MODEL 1
REMARK VINA RESULT:      -8.5      0.000      0.000
REMARK  Name = 
REMARK  6 active torsions:
REMARK  status: ('A' for Active; 'I' for Inactive)
REMARK    1  A    between atoms: C_2  and  C_3
REMARK    2  A    between atoms: C_3  and  C_4
REMARK    3  A    between atoms: C_4  and  N_5
REMARK    4  A    between atoms: N_19  and  C_20
REMARK    5  A    between atoms: C_20  and  C_21
REMARK    6  A    between atoms: C_21  and  C_22
REMARK                            x       y       z     vdW  Elec       q    Type
REMARK                         _______ _______ _______ _____ _____    ______ ____
ROOT
ATOM      1  N   UNL     1       4.807   5.517  16.402  0.00  0.00    +0.000 N 
ATOM      2  C   UNL     1       4.175   4.552  17.161  0.00  0.00    +0.000 C 
ATOM      3  O   UNL     1       4.576   3.391  17.127  0.00  0.00    +0.000 OA
ATOM      4  N   UNL     1       3.132   5.011  17.963  0.00  0.00    +0.000 N 
ATOM      5  C   UNL     1       2.569   6.368  17.896  0.00  0.00    +0.000 C 
ATOM      6  C   UNL     1       2.396   7.008  19.263  0.00  0.00    +0.000 C 
ATOM      7  O   UNL     1       2.405   8.226  19.432  0.00  0.00    +0.000 OA
ATOM      8  N   UNL     1       2.033   6.159  20.272  0.00  0.00    +0.000 N 
ATOM      9  C   UNL     1       1.968   4.770  20.099  0.00  0.00    +0.000 A 
ATOM     10  C   UNL     1       1.414   3.999  21.125  0.00  0.00    +0.000 A 
ATOM     11  C   UNL     1       1.333   2.616  20.983  0.00  0.00    +0.000 A 
ATOM     12  C   UNL     1       1.819   2.008  19.827  0.00  0.00    +0.000 A 
ATOM     13  C   UNL     1       2.410   2.777  18.819  0.00  0.00    +0.000 A 
ATOM     14  C   UNL     1       2.497   4.169  18.940  0.00  0.00    +0.000 A 
ATOM     15  H   UNL     1       4.843   6.448  16.786  0.00  0.00    +0.000 HD
ATOM     16  H   UNL     1       1.780   6.585  21.153  0.00  0.00    +0.000 HD
ENDROOT
BRANCH   1  17
ATOM     17  C   UNL     1       5.943   5.183  15.553  0.00  0.00    +0.000 C 
BRANCH  17  18
ATOM     18  C   UNL     1       7.278   5.438  16.246  0.00  0.00    +0.000 C 
BRANCH  18  20
ATOM     19  O   UNL     1       6.688   6.339  18.401  0.00  0.00    +0.000 OA
ATOM     20  C   UNL     1       7.157   6.526  17.288  0.00  0.00    +0.000 C 
ATOM     21  N   UNL     1       7.683   7.735  16.877  0.00  0.00    +0.000 N 
ATOM     22  H   UNL     1       7.978   7.838  15.914  0.00  0.00    +0.000 HD
BRANCH  21  23
ATOM     23  C   UNL     1       7.633   8.908  17.734  0.00  0.00    +0.000 C 
BRANCH  23  24
ATOM     24  C   UNL     1       8.831   8.983  18.680  0.00  0.00    +0.000 C 
BRANCH  24  25
ATOM     25  C   UNL     1       9.319  10.395  18.894  0.00  0.00    +0.000 A 
ATOM     26  C   UNL     1      10.073  10.719  20.032  0.00  0.00    +0.000 A 
ATOM     27  C   UNL     1      10.541  12.022  20.226  0.00  0.00    +0.000 A 
ATOM     28  C   UNL     1      10.251  13.009  19.286  0.00  0.00    +0.000 A 
ATOM     29 CL   UNL     1      10.835  14.610  19.520  0.00  0.00    +0.000 Cl
ATOM     30  C   UNL     1       9.492  12.705  18.158  0.00  0.00    +0.000 A 
ATOM     31  C   UNL     1       9.026  11.402  17.964  0.00  0.00    +0.000 A 
ENDBRANCH  24  25
ENDBRANCH  23  24
ENDBRANCH  21  23
ENDBRANCH  18  20
ENDBRANCH  17  18
ENDBRANCH   1  17
TORSDOF 6
ENDMDL
MODEL 2
REMARK VINA RESULT:      -8.4      1.776      2.354
REMARK  Name = 
REMARK  6 active torsions:
REMARK  status: ('A' for Active; 'I' for Inactive)
REMARK    1  A    between atoms: C_2  and  C_3
REMARK    2  A    between atoms: C_3  and  C_4
REMARK    3  A    between atoms: C_4  and  N_5
REMARK    4  A    between atoms: N_19  and  C_20
REMARK    5  A    between atoms: C_20  and  C_21
REMARK    6  A    between atoms: C_21  and  C_22
REMARK                            x       y       z     vdW  Elec       q    Type
REMARK                         _______ _______ _______ _____ _____    ______ ____
ROOT
ATOM      1  N   UNL     1       5.977   6.252  17.868  0.00  0.00    +0.000 N 
ATOM      2  C   UNL     1       5.439   5.179  18.550  0.00  0.00    +0.000 C 
ATOM      3  O   UNL     1       6.157   4.228  18.853  0.00  0.00    +0.000 OA
ATOM      4  N   UNL     1       4.093   5.299  18.886  0.00  0.00    +0.000 N 
ATOM      5  C   UNL     1       3.209   6.371  18.403  0.00  0.00    +0.000 C 
ATOM      6  C   UNL     1       2.376   6.999  19.507  0.00  0.00    +0.000 C 
ATOM      7  O   UNL     1       1.955   8.153  19.448  0.00  0.00    +0.000 OA
ATOM      8  N   UNL     1       1.950   6.143  20.486  0.00  0.00    +0.000 N 
ATOM      9  C   UNL     1       2.374   4.809  20.555  0.00  0.00    +0.000 A 
ATOM     10  C   UNL     1       1.751   3.962  21.475  0.00  0.00    +0.000 A 
ATOM     11  C   UNL     1       2.148   2.629  21.566  0.00  0.00    +0.000 A 
ATOM     12  C   UNL     1       3.173   2.154  20.751  0.00  0.00    +0.000 A 
ATOM     13  C   UNL     1       3.823   3.013  19.859  0.00  0.00    +0.000 A 
ATOM     14  C   UNL     1       3.437   4.355  19.749  0.00  0.00    +0.000 A 
ATOM     15  H   UNL     1       5.592   7.161  18.070  0.00  0.00    +0.000 HD
ATOM     16  H   UNL     1       1.283   6.511  21.150  0.00  0.00    +0.000 HD
ENDROOT
BRANCH   1  17
ATOM     17  C   UNL     1       7.386   6.278  17.495  0.00  0.00    +0.000 C 
BRANCH  17  18
ATOM     18  C   UNL     1       8.234   7.067  18.487  0.00  0.00    +0.000 C 
BRANCH  18  20
ATOM     19  O   UNL     1       7.501   9.036  17.306  0.00  0.00    +0.000 OA
ATOM     20  C   UNL     1       8.197   8.548  18.185  0.00  0.00    +0.000 C 
ATOM     21  N   UNL     1       8.980   9.298  19.040  0.00  0.00    +0.000 N 
ATOM     22  H   UNL     1       9.592   8.820  19.690  0.00  0.00    +0.000 HD
BRANCH  21  23
ATOM     23  C   UNL     1       9.093  10.739  18.888  0.00  0.00    +0.000 C 
BRANCH  23  24
ATOM     24  C   UNL     1      10.529  11.178  18.603  0.00  0.00    +0.000 C 
BRANCH  24  25
ATOM     25  C   UNL     1      10.632  12.637  18.234  0.00  0.00    +0.000 A 
ATOM     26  C   UNL     1      11.308  13.028  17.068  0.00  0.00    +0.000 A 
ATOM     27  C   UNL     1      11.391  14.377  16.714  0.00  0.00    +0.000 A 
ATOM     28  C   UNL     1      10.806  15.344  17.529  0.00  0.00    +0.000 A 
ATOM     29 CL   UNL     1      10.900  17.004  17.087  0.00  0.00    +0.000 Cl
ATOM     30  C   UNL     1      10.144  14.973  18.697  0.00  0.00    +0.000 A 
ATOM     31  C   UNL     1      10.059  13.623  19.050  0.00  0.00    +0.000 A 
ENDBRANCH  24  25
ENDBRANCH  23  24
ENDBRANCH  21  23
ENDBRANCH  18  20
ENDBRANCH  17  18
ENDBRANCH   1  17
TORSDOF 6
ENDMDL
MODEL 3
REMARK VINA RESULT:      -8.3      0.716      1.128
REMARK  Name = 
REMARK  6 active torsions:
REMARK  status: ('A' for Active; 'I' for Inactive)
REMARK    1  A    between atoms: C_2  and  C_3
REMARK    2  A    between atoms: C_3  and  C_4
REMARK    3  A    between atoms: C_4  and  N_5
REMARK    4  A    between atoms: N_19  and  C_20
REMARK    5  A    between atoms: C_20  and  C_21
REMARK    6  A    between atoms: C_21  and  C_22
REMARK                            x       y       z     vdW  Elec       q    Type
REMARK                         _______ _______ _______ _____ _____    ______ ____
ROOT
ATOM      1  N   UNL     1       4.683   5.790  16.455  0.00  0.00    +0.000 N 
ATOM      2  C   UNL     1       4.079   4.744  17.125  0.00  0.00    +0.000 C 
ATOM      3  O   UNL     1       4.484   3.596  16.954  0.00  0.00    +0.000 OA
ATOM      4  N   UNL     1       3.059   5.107  18.001  0.00  0.00    +0.000 N 
ATOM      5  C   UNL     1       2.489   6.459  18.097  0.00  0.00    +0.000 C 
ATOM      6  C   UNL     1       2.355   6.948  19.529  0.00  0.00    +0.000 C 
ATOM      7  O   UNL     1       2.364   8.141  19.827  0.00  0.00    +0.000 OA
ATOM      8  N   UNL     1       2.026   5.994  20.452  0.00  0.00    +0.000 N 
ATOM      9  C   UNL     1       1.962   4.631  20.134  0.00  0.00    +0.000 A 
ATOM     10  C   UNL     1       1.443   3.750  21.087  0.00  0.00    +0.000 A 
ATOM     11  C   UNL     1       1.363   2.390  20.800  0.00  0.00    +0.000 A 
ATOM     12  C   UNL     1       1.816   1.913  19.572  0.00  0.00    +0.000 A 
ATOM     13  C   UNL     1       2.373   2.789  18.634  0.00  0.00    +0.000 A 
ATOM     14  C   UNL     1       2.458   4.161  18.901  0.00  0.00    +0.000 A 
ATOM     15  H   UNL     1       4.728   6.674  16.935  0.00  0.00    +0.000 HD
ATOM     16  H   UNL     1       1.798   6.321  21.381  0.00  0.00    +0.000 HD
ENDROOT
BRANCH   1  17
ATOM     17  C   UNL     1       5.795   5.557  15.541  0.00  0.00    +0.000 C 
BRANCH  17  18
ATOM     18  C   UNL     1       7.136   5.489  16.265  0.00  0.00    +0.000 C 
BRANCH  18  20
ATOM     19  O   UNL     1       6.791   6.228  18.533  0.00  0.00    +0.000 OA
ATOM     20  C   UNL     1       7.193   6.479  17.406  0.00  0.00    +0.000 C 
ATOM     21  N   UNL     1       7.799   7.671  17.063  0.00  0.00    +0.000 N 
ATOM     22  H   UNL     1       8.032   7.841  16.092  0.00  0.00    +0.000 HD
BRANCH  21  23
ATOM     23  C   UNL     1       7.922   8.757  18.022  0.00  0.00    +0.000 C 
BRANCH  23  24
ATOM     24  C   UNL     1       8.795   9.896  17.495  0.00  0.00    +0.000 C 
BRANCH  24  25
ATOM     25  C   UNL     1       9.115  10.925  18.551  0.00  0.00    +0.000 A 
ATOM     26  C   UNL     1       9.057  12.293  18.249  0.00  0.00    +0.000 A 
ATOM     27  C   UNL     1       9.336  13.249  19.230  0.00  0.00    +0.000 A 
ATOM     28  C   UNL     1       9.683  12.840  20.516  0.00  0.00    +0.000 A 
ATOM     29 CL   UNL     1      10.017  14.018  21.725  0.00  0.00    +0.000 Cl
ATOM     30  C   UNL     1       9.758  11.485  20.828  0.00  0.00    +0.000 A 
ATOM     31  C   UNL     1       9.477  10.529  19.847  0.00  0.00    +0.000 A 
ENDBRANCH  24  25
ENDBRANCH  23  24
ENDBRANCH  21  23
ENDBRANCH  18  20
ENDBRANCH  17  18
ENDBRANCH   1  17
TORSDOF 6
ENDMDL
MODEL 4
REMARK VINA RESULT:      -8.2      1.419      1.835
REMARK  Name = 
REMARK  6 active torsions:
REMARK  status: ('A' for Active; 'I' for Inactive)
REMARK    1  A    between atoms: C_2  and  C_3
REMARK    2  A    between atoms: C_3  and  C_4
REMARK    3  A    between atoms: C_4  and  N_5
REMARK    4  A    between atoms: N_19  and  C_20
REMARK    5  A    between atoms: C_20  and  C_21
REMARK    6  A    between atoms: C_21  and  C_22
REMARK                            x       y       z     vdW  Elec       q    Type
REMARK                         _______ _______ _______ _____ _____    ______ ____
ROOT
ATOM      1  N   UNL     1       5.521   6.448  17.625  0.00  0.00    +0.000 N 
ATOM      2  C   UNL     1       4.836   5.296  17.956  0.00  0.00    +0.000 C 
ATOM      3  O   UNL     1       5.379   4.202  17.812  0.00  0.00    +0.000 OA
ATOM      4  N   UNL     1       3.563   5.488  18.486  0.00  0.00    +0.000 N 
ATOM      5  C   UNL     1       2.869   6.785  18.527  0.00  0.00    +0.000 C 
ATOM      6  C   UNL     1       2.246   7.084  19.879  0.00  0.00    +0.000 C 
ATOM      7  O   UNL     1       2.049   8.229  20.282  0.00  0.00    +0.000 OA
ATOM      8  N   UNL     1       1.733   6.005  20.546  0.00  0.00    +0.000 N 
ATOM      9  C   UNL     1       1.899   4.691  20.090  0.00  0.00    +0.000 A 
ATOM     10  C   UNL     1       1.191   3.671  20.732  0.00  0.00    +0.000 A 
ATOM     11  C   UNL     1       1.332   2.354  20.300  0.00  0.00    +0.000 A 
ATOM     12  C   UNL     1       2.191   2.060  19.244  0.00  0.00    +0.000 A 
ATOM     13  C   UNL     1       2.931   3.075  18.629  0.00  0.00    +0.000 A 
ATOM     14  C   UNL     1       2.800   4.406  19.044  0.00  0.00    +0.000 A 
ATOM     15  H   UNL     1       5.330   7.267  18.179  0.00  0.00    +0.000 HD
ATOM     16  H   UNL     1       1.194   6.201  21.379  0.00  0.00    +0.000 HD
ENDROOT
BRANCH   1  17
ATOM     17  C   UNL     1       6.881   6.393  17.102  0.00  0.00    +0.000 C 
BRANCH  17  18
ATOM     18  C   UNL     1       7.908   6.914  18.103  0.00  0.00    +0.000 C 
BRANCH  18  20
ATOM     19  O   UNL     1       7.322   9.114  17.313  0.00  0.00    +0.000 OA
ATOM     20  C   UNL     1       8.002   8.422  18.057  0.00  0.00    +0.000 C 
ATOM     21  N   UNL     1       8.888   8.941  18.981  0.00  0.00    +0.000 N 
ATOM     22  H   UNL     1       9.476   8.306  19.505  0.00  0.00    +0.000 HD
BRANCH  21  23
ATOM     23  C   UNL     1       9.134  10.371  19.067  0.00  0.00    +0.000 C 
BRANCH  23  24
ATOM     24  C   UNL     1      10.121  10.851  18.003  0.00  0.00    +0.000 C 
BRANCH  24  25
ATOM     25  C   UNL     1      10.663  12.230  18.289  0.00  0.00    +0.000 A 
ATOM     26  C   UNL     1      11.746  12.399  19.164  0.00  0.00    +0.000 A 
ATOM     27  C   UNL     1      12.262  13.673  19.417  0.00  0.00    +0.000 A 
ATOM     28  C   UNL     1      11.692  14.786  18.804  0.00  0.00    +0.000 A 
ATOM     29 CL   UNL     1      12.333  16.353  19.109  0.00  0.00    +0.000 Cl
ATOM     30  C   UNL     1      10.607  14.636  17.943  0.00  0.00    +0.000 A 
ATOM     31  C   UNL     1      10.092  13.361  17.688  0.00  0.00    +0.000 A 
ENDBRANCH  24  25
ENDBRANCH  23  24
ENDBRANCH  21  23
ENDBRANCH  18  20
ENDBRANCH  17  18
ENDBRANCH   1  17
TORSDOF 6
ENDMDL
MODEL 5
REMARK VINA RESULT:      -8.1      2.009      2.572
REMARK  Name = 
REMARK  6 active torsions:
REMARK  status: ('A' for Active; 'I' for Inactive)
REMARK    1  A    between atoms: C_2  and  C_3
REMARK    2  A    between atoms: C_3  and  C_4
REMARK    3  A    between atoms: C_4  and  N_5
REMARK    4  A    between atoms: N_19  and  C_20
REMARK    5  A    between atoms: C_20  and  C_21
REMARK    6  A    between atoms: C_21  and  C_22
REMARK                            x       y       z     vdW  Elec       q    Type
REMARK                         _______ _______ _______ _____ _____    ______ ____
ROOT
ATOM      1  N   UNL     1       5.975   6.377  17.842  0.00  0.00    +0.000 N 
ATOM      2  C   UNL     1       5.469   5.291  18.527  0.00  0.00    +0.000 C 
ATOM      3  O   UNL     1       6.213   4.359  18.827  0.00  0.00    +0.000 OA
ATOM      4  N   UNL     1       4.122   5.376  18.871  0.00  0.00    +0.000 N 
ATOM      5  C   UNL     1       3.208   6.424  18.392  0.00  0.00    +0.000 C 
ATOM      6  C   UNL     1       2.364   7.030  19.500  0.00  0.00    +0.000 C 
ATOM      7  O   UNL     1       1.913   8.172  19.443  0.00  0.00    +0.000 OA
ATOM      8  N   UNL     1       1.967   6.164  20.482  0.00  0.00    +0.000 N 
ATOM      9  C   UNL     1       2.425   4.842  20.549  0.00  0.00    +0.000 A 
ATOM     10  C   UNL     1       1.830   3.979  21.473  0.00  0.00    +0.000 A 
ATOM     11  C   UNL     1       2.262   2.657  21.563  0.00  0.00    +0.000 A 
ATOM     12  C   UNL     1       3.295   2.209  20.742  0.00  0.00    +0.000 A 
ATOM     13  C   UNL     1       3.918   3.084  19.846  0.00  0.00    +0.000 A 
ATOM     14  C   UNL     1       3.496   4.415  19.737  0.00  0.00    +0.000 A 
ATOM     15  H   UNL     1       5.567   7.275  18.045  0.00  0.00    +0.000 HD
ATOM     16  H   UNL     1       1.294   6.514  21.150  0.00  0.00    +0.000 HD
ENDROOT
BRANCH   1  17
ATOM     17  C   UNL     1       7.380   6.440  17.460  0.00  0.00    +0.000 C 
BRANCH  17  18
ATOM     18  C   UNL     1       8.222   7.210  18.473  0.00  0.00    +0.000 C 
BRANCH  18  20
ATOM     19  O   UNL     1       7.506   9.206  17.329  0.00  0.00    +0.000 OA
ATOM     20  C   UNL     1       8.236   8.689  18.162  0.00  0.00    +0.000 C 
ATOM     21  N   UNL     1       9.112   9.404  18.955  0.00  0.00    +0.000 N 
ATOM     22  H   UNL     1       9.744   8.899  19.565  0.00  0.00    +0.000 HD
BRANCH  21  23
ATOM     23  C   UNL     1       9.285  10.837  18.784  0.00  0.00    +0.000 C 
BRANCH  23  24
ATOM     24  C   UNL     1      10.444  11.382  19.618  0.00  0.00    +0.000 C 
BRANCH  24  25
ATOM     25  C   UNL     1       9.990  12.328  20.703  0.00  0.00    +0.000 A 
ATOM     26  C   UNL     1      10.548  13.610  20.805  0.00  0.00    +0.000 A 
ATOM     27  C   UNL     1      10.118  14.495  21.798  0.00  0.00    +0.000 A 
ATOM     28  C   UNL     1       9.132  14.097  22.699  0.00  0.00    +0.000 A 
ATOM     29 CL   UNL     1       8.596  15.190  23.915  0.00  0.00    +0.000 Cl
ATOM     30  C   UNL     1       8.578  12.822  22.619  0.00  0.00    +0.000 A 
ATOM     31  C   UNL     1       9.007  11.938  21.625  0.00  0.00    +0.000 A 
ENDBRANCH  24  25
ENDBRANCH  23  24
ENDBRANCH  21  23
ENDBRANCH  18  20
ENDBRANCH  17  18
ENDBRANCH   1  17
TORSDOF 6
ENDMDL
MODEL 6
REMARK VINA RESULT:      -7.9      4.197     10.156
REMARK  Name = 
REMARK  6 active torsions:
REMARK  status: ('A' for Active; 'I' for Inactive)
REMARK    1  A    between atoms: C_2  and  C_3
REMARK    2  A    between atoms: C_3  and  C_4
REMARK    3  A    between atoms: C_4  and  N_5
REMARK    4  A    between atoms: N_19  and  C_20
REMARK    5  A    between atoms: C_20  and  C_21
REMARK    6  A    between atoms: C_21  and  C_22
REMARK                            x       y       z     vdW  Elec       q    Type
REMARK                         _______ _______ _______ _____ _____    ______ ____
ROOT
ATOM      1  N   UNL     1       9.042  10.714  19.270  0.00  0.00    +0.000 N 
ATOM      2  C   UNL     1       9.715  11.703  18.579  0.00  0.00    +0.000 C 
ATOM      3  O   UNL     1      10.363  11.411  17.576  0.00  0.00    +0.000 OA
ATOM      4  N   UNL     1       9.552  12.994  19.075  0.00  0.00    +0.000 N 
ATOM      5  C   UNL     1       8.893  13.316  20.350  0.00  0.00    +0.000 C 
ATOM      6  C   UNL     1       7.890  14.450  20.231  0.00  0.00    +0.000 C 
ATOM      7  O   UNL     1       6.928  14.569  20.988  0.00  0.00    +0.000 OA
ATOM      8  N   UNL     1       8.225  15.447  19.356  0.00  0.00    +0.000 N 
ATOM      9  C   UNL     1       9.341  15.364  18.513  0.00  0.00    +0.000 A 
ATOM     10  C   UNL     1       9.711  16.499  17.786  0.00  0.00    +0.000 A 
ATOM     11  C   UNL     1      10.817  16.449  16.942  0.00  0.00    +0.000 A 
ATOM     12  C   UNL     1      11.538  15.264  16.813  0.00  0.00    +0.000 A 
ATOM     13  C   UNL     1      11.143  14.117  17.509  0.00  0.00    +0.000 A 
ATOM     14  C   UNL     1      10.037  14.147  18.367  0.00  0.00    +0.000 A 
ATOM     15  H   UNL     1       8.174  10.974  19.709  0.00  0.00    +0.000 HD
ATOM     16  H   UNL     1       7.642  16.273  19.365  0.00  0.00    +0.000 HD
ENDROOT
BRANCH   1  17
ATOM     17  C   UNL     1       9.088   9.324  18.832  0.00  0.00    +0.000 C 
BRANCH  17  18
ATOM     18  C   UNL     1       7.963   8.985  17.860  0.00  0.00    +0.000 C 
BRANCH  18  20
ATOM     19  O   UNL     1       7.922   6.753  18.766  0.00  0.00    +0.000 OA
ATOM     20  C   UNL     1       7.701   7.497  17.821  0.00  0.00    +0.000 C 
ATOM     21  N   UNL     1       7.133   7.074  16.636  0.00  0.00    +0.000 N 
ATOM     22  H   UNL     1       7.056   7.730  15.869  0.00  0.00    +0.000 HD
BRANCH  21  23
ATOM     23  C   UNL     1       6.834   5.670  16.403  0.00  0.00    +0.000 C 
BRANCH  23  24
ATOM     24  C   UNL     1       5.418   5.464  15.865  0.00  0.00    +0.000 C 
BRANCH  24  25
ATOM     25  C   UNL     1       4.403   5.249  16.961  0.00  0.00    +0.000 A 
ATOM     26  C   UNL     1       3.883   3.969  17.205  0.00  0.00    +0.000 A 
ATOM     27  C   UNL     1       2.956   3.763  18.230  0.00  0.00    +0.000 A 
ATOM     28  C   UNL     1       2.536   4.838  19.011  0.00  0.00    +0.000 A 
ATOM     29 CL   UNL     1       1.402   4.582  20.278  0.00  0.00    +0.000 Cl
ATOM     30  C   UNL     1       3.033   6.117  18.772  0.00  0.00    +0.000 A 
ATOM     31  C   UNL     1       3.962   6.323  17.748  0.00  0.00    +0.000 A 
ENDBRANCH  24  25
ENDBRANCH  23  24
ENDBRANCH  21  23
ENDBRANCH  18  20
ENDBRANCH  17  18
ENDBRANCH   1  17
TORSDOF 6
ENDMDL
MODEL 7
REMARK VINA RESULT:      -7.8      4.525     10.793
REMARK  Name = 
REMARK  6 active torsions:
REMARK  status: ('A' for Active; 'I' for Inactive)
REMARK    1  A    between atoms: C_2  and  C_3
REMARK    2  A    between atoms: C_3  and  C_4
REMARK    3  A    between atoms: C_4  and  N_5
REMARK    4  A    between atoms: N_19  and  C_20
REMARK    5  A    between atoms: C_20  and  C_21
REMARK    6  A    between atoms: C_21  and  C_22
REMARK                            x       y       z     vdW  Elec       q    Type
REMARK                         _______ _______ _______ _____ _____    ______ ____
ROOT
ATOM      1  N   UNL     1       9.324  10.654  18.430  0.00  0.00    +0.000 N 
ATOM      2  C   UNL     1       9.404  11.660  19.373  0.00  0.00    +0.000 C 
ATOM      3  O   UNL     1       9.022  11.448  20.522  0.00  0.00    +0.000 OA
ATOM      4  N   UNL     1       9.974  12.850  18.929  0.00  0.00    +0.000 N 
ATOM      5  C   UNL     1      10.300  13.142  17.525  0.00  0.00    +0.000 C 
ATOM      6  C   UNL     1      11.690  13.727  17.345  0.00  0.00    +0.000 C 
ATOM      7  O   UNL     1      12.332  13.606  16.304  0.00  0.00    +0.000 OA
ATOM      8  N   UNL     1      12.112  14.565  18.340  0.00  0.00    +0.000 N 
ATOM      9  C   UNL     1      11.382  14.761  19.519  0.00  0.00    +0.000 A 
ATOM     10  C   UNL     1      11.793  15.768  20.396  0.00  0.00    +0.000 A 
ATOM     11  C   UNL     1      11.086  15.989  21.576  0.00  0.00    +0.000 A 
ATOM     12  C   UNL     1       9.983  15.195  21.882  0.00  0.00    +0.000 A 
ATOM     13  C   UNL     1       9.597  14.160  21.024  0.00  0.00    +0.000 A 
ATOM     14  C   UNL     1      10.291  13.924  19.831  0.00  0.00    +0.000 A 
ATOM     15  H   UNL     1      10.044  10.631  17.726  0.00  0.00    +0.000 HD
ATOM     16  H   UNL     1      12.972  15.070  18.173  0.00  0.00    +0.000 HD
ENDROOT
BRANCH   1  17
ATOM     17  C   UNL     1       8.791   9.341  18.771  0.00  0.00    +0.000 C 
BRANCH  17  18
ATOM     18  C   UNL     1       8.004   8.719  17.622  0.00  0.00    +0.000 C 
BRANCH  18  20
ATOM     19  O   UNL     1       8.167   6.635  18.822  0.00  0.00    +0.000 OA
ATOM     20  C   UNL     1       7.661   7.275  17.911  0.00  0.00    +0.000 C 
ATOM     21  N   UNL     1       6.678   6.773  17.082  0.00  0.00    +0.000 N 
ATOM     22  H   UNL     1       6.365   7.332  16.299  0.00  0.00    +0.000 HD
BRANCH  21  23
ATOM     23  C   UNL     1       6.235   5.392  17.190  0.00  0.00    +0.000 C 
BRANCH  23  24
ATOM     24  C   UNL     1       5.021   5.105  16.307  0.00  0.00    +0.000 C 
BRANCH  24  25
ATOM     25  C   UNL     1       3.908   4.409  17.052  0.00  0.00    +0.000 A 
ATOM     26  C   UNL     1       2.925   5.156  17.718  0.00  0.00    +0.000 A 
ATOM     27  C   UNL     1       1.884   4.515  18.395  0.00  0.00    +0.000 A 
ATOM     28  C   UNL     1       1.824   3.123  18.415  0.00  0.00    +0.000 A 
ATOM     29 CL   UNL     1       0.536   2.334  19.239  0.00  0.00    +0.000 Cl
ATOM     30  C   UNL     1       2.800   2.368  17.770  0.00  0.00    +0.000 A 
ATOM     31  C   UNL     1       3.841   3.009  17.091  0.00  0.00    +0.000 A 
ENDBRANCH  24  25
ENDBRANCH  23  24
ENDBRANCH  21  23
ENDBRANCH  18  20
ENDBRANCH  17  18
ENDBRANCH   1  17
TORSDOF 6
ENDMDL
MODEL 8
REMARK VINA RESULT:      -7.8      3.958      9.851
REMARK  Name = 
REMARK  6 active torsions:
REMARK  status: ('A' for Active; 'I' for Inactive)
REMARK    1  A    between atoms: C_2  and  C_3
REMARK    2  A    between atoms: C_3  and  C_4
REMARK    3  A    between atoms: C_4  and  N_5
REMARK    4  A    between atoms: N_19  and  C_20
REMARK    5  A    between atoms: C_20  and  C_21
REMARK    6  A    between atoms: C_21  and  C_22
REMARK                            x       y       z     vdW  Elec       q    Type
REMARK                         _______ _______ _______ _____ _____    ______ ____
ROOT
ATOM      1  N   UNL     1       8.599   9.671  18.888  0.00  0.00    +0.000 N 
ATOM      2  C   UNL     1       9.466  10.742  18.795  0.00  0.00    +0.000 C 
ATOM      3  O   UNL     1       9.951  11.040  17.706  0.00  0.00    +0.000 OA
ATOM      4  N   UNL     1       9.681  11.441  19.981  0.00  0.00    +0.000 N 
ATOM      5  C   UNL     1       9.208  10.999  21.302  0.00  0.00    +0.000 C 
ATOM      6  C   UNL     1       8.535  12.107  22.094  0.00  0.00    +0.000 C 
ATOM      7  O   UNL     1       7.687  11.886  22.956  0.00  0.00    +0.000 OA
ATOM      8  N   UNL     1       9.069  13.357  21.934  0.00  0.00    +0.000 N 
ATOM      9  C   UNL     1      10.070  13.632  20.994  0.00  0.00    +0.000 A 
ATOM     10  C   UNL     1      10.681  14.889  21.024  0.00  0.00    +0.000 A 
ATOM     11  C   UNL     1      11.682  15.192  20.104  0.00  0.00    +0.000 A 
ATOM     12  C   UNL     1      12.055  14.249  19.149  0.00  0.00    +0.000 A 
ATOM     13  C   UNL     1      11.414  13.007  19.093  0.00  0.00    +0.000 A 
ATOM     14  C   UNL     1      10.409  12.680  20.011  0.00  0.00    +0.000 A 
ATOM     15  H   UNL     1       7.859   9.741  19.568  0.00  0.00    +0.000 HD
ATOM     16  H   UNL     1       8.726  14.078  22.554  0.00  0.00    +0.000 HD
ENDROOT
BRANCH   1  17
ATOM     17  C   UNL     1       8.249   8.881  17.715  0.00  0.00    +0.000 C 
BRANCH  17  18
ATOM     18  C   UNL     1       8.017   7.412  18.054  0.00  0.00    +0.000 C 
BRANCH  18  20
ATOM     19  O   UNL     1       5.691   7.298  17.435  0.00  0.00    +0.000 OA
ATOM     20  C   UNL     1       6.825   6.858  17.307  0.00  0.00    +0.000 C 
ATOM     21  N   UNL     1       7.155   5.849  16.424  0.00  0.00    +0.000 N 
ATOM     22  H   UNL     1       8.098   5.481  16.432  0.00  0.00    +0.000 HD
BRANCH  21  23
ATOM     23  C   UNL     1       6.136   5.175  15.636  0.00  0.00    +0.000 C 
BRANCH  23  24
ATOM     24  C   UNL     1       5.757   3.817  16.227  0.00  0.00    +0.000 C 
BRANCH  24  25
ATOM     25  C   UNL     1       4.625   3.907  17.221  0.00  0.00    +0.000 A 
ATOM     26  C   UNL     1       3.295   3.960  16.779  0.00  0.00    +0.000 A 
ATOM     27  C   UNL     1       2.244   4.027  17.697  0.00  0.00    +0.000 A 
ATOM     28  C   UNL     1       2.518   4.050  19.063  0.00  0.00    +0.000 A 
ATOM     29 CL   UNL     1       1.223   4.123  20.193  0.00  0.00    +0.000 Cl
ATOM     30  C   UNL     1       3.834   4.012  19.517  0.00  0.00    +0.000 A 
ATOM     31  C   UNL     1       4.885   3.943  18.599  0.00  0.00    +0.000 A 
ENDBRANCH  24  25
ENDBRANCH  23  24
ENDBRANCH  21  23
ENDBRANCH  18  20
ENDBRANCH  17  18
ENDBRANCH   1  17
TORSDOF 6
ENDMDL
MODEL 9
REMARK VINA RESULT:      -7.8      3.726      6.828
REMARK  Name = 
REMARK  6 active torsions:
REMARK  status: ('A' for Active; 'I' for Inactive)
REMARK    1  A    between atoms: C_2  and  C_3
REMARK    2  A    between atoms: C_3  and  C_4
REMARK    3  A    between atoms: C_4  and  N_5
REMARK    4  A    between atoms: N_19  and  C_20
REMARK    5  A    between atoms: C_20  and  C_21
REMARK    6  A    between atoms: C_21  and  C_22
REMARK                            x       y       z     vdW  Elec       q    Type
REMARK                         _______ _______ _______ _____ _____    ______ ____
ROOT
ATOM      1  N   UNL     1       2.164   7.360  20.404  0.00  0.00    +0.000 N 
ATOM      2  C   UNL     1       1.557   8.432  19.780  0.00  0.00    +0.000 C 
ATOM      3  O   UNL     1       1.435   8.435  18.557  0.00  0.00    +0.000 OA
ATOM      4  N   UNL     1       1.081   9.427  20.630  0.00  0.00    +0.000 N 
ATOM      5  C   UNL     1       1.352   9.484  22.075  0.00  0.00    +0.000 C 
ATOM      6  C   UNL     1       0.108   9.757  22.903  0.00  0.00    +0.000 C 
ATOM      7  O   UNL     1      -0.005   9.393  24.071  0.00  0.00    +0.000 OA
ATOM      8  N   UNL     1      -0.805  10.605  22.337  0.00  0.00    +0.000 N 
ATOM      9  C   UNL     1      -0.681  11.076  21.024  0.00  0.00    +0.000 A 
ATOM     10  C   UNL     1      -1.556  12.076  20.592  0.00  0.00    +0.000 A 
ATOM     11  C   UNL     1      -1.457  12.568  19.292  0.00  0.00    +0.000 A 
ATOM     12  C   UNL     1      -0.498  12.048  18.426  0.00  0.00    +0.000 A 
ATOM     13  C   UNL     1       0.351  11.018  18.846  0.00  0.00    +0.000 A 
ATOM     14  C   UNL     1       0.271  10.513  20.150  0.00  0.00    +0.000 A 
ATOM     15  H   UNL     1       1.824   7.114  21.320  0.00  0.00    +0.000 HD
ATOM     16  H   UNL     1      -1.569  10.907  22.927  0.00  0.00    +0.000 HD
ENDROOT
BRANCH   1  17
ATOM     17  C   UNL     1       2.667   6.227  19.637  0.00  0.00    +0.000 C 
BRANCH  17  18
ATOM     18  C   UNL     1       1.651   5.094  19.543  0.00  0.00    +0.000 C 
BRANCH  18  20
ATOM     19  O   UNL     1       1.237   3.418  17.861  0.00  0.00    +0.000 OA
ATOM     20  C   UNL     1       2.046   4.090  18.484  0.00  0.00    +0.000 C 
ATOM     21  N   UNL     1       3.407   4.052  18.250  0.00  0.00    +0.000 N 
ATOM     22  H   UNL     1       4.023   4.574  18.860  0.00  0.00    +0.000 HD
BRANCH  21  23
ATOM     23  C   UNL     1       3.979   3.128  17.286  0.00  0.00    +0.000 C 
BRANCH  23  24
ATOM     24  C   UNL     1       4.816   3.845  16.226  0.00  0.00    +0.000 C 
BRANCH  24  25
ATOM     25  C   UNL     1       5.709   4.912  16.810  0.00  0.00    +0.000 A 
ATOM     26  C   UNL     1       6.826   4.559  17.580  0.00  0.00    +0.000 A 
ATOM     27  C   UNL     1       7.665   5.544  18.108  0.00  0.00    +0.000 A 
ATOM     28  C   UNL     1       7.385   6.889  17.876  0.00  0.00    +0.000 A 
ATOM     29 CL   UNL     1       8.423   8.101  18.519  0.00  0.00    +0.000 Cl
ATOM     30  C   UNL     1       6.270   7.256  17.126  0.00  0.00    +0.000 A 
ATOM     31  C   UNL     1       5.433   6.271  16.596  0.00  0.00    +0.000 A 
ENDBRANCH  24  25
ENDBRANCH  23  24
ENDBRANCH  21  23
ENDBRANCH  18  20
ENDBRANCH  17  18
ENDBRANCH   1  17
TORSDOF 6
ENDMDL
