MODEL 1
REMARK VINA RESULT:      -7.9      0.000      0.000
REMARK  Name = 
REMARK  11 active torsions:
REMARK  status: ('A' for Active; 'I' for Inactive)
REMARK    1  A    between atoms: C_1  and  O_2
REMARK    2  A    between atoms: O_2  and  C_3
REMARK    3  A    between atoms: C_6  and  N_7
REMARK    4  A    between atoms: N_7  and  C_8
REMARK    5  A    between atoms: N_7  and  S_21
REMARK    6  A    between atoms: C_8  and  C_9
REMARK    7  A    between atoms: N_11  and  C_12
REMARK    8  A    between atoms: C_15  and  C_16
REMARK    9  A    between atoms: S_21  and  C_24
REMARK   10  A    between atoms: C_27  and  C_28
REMARK   11  A    between atoms: C_29  and  N_30
REMARK                            x       y       z     vdW  Elec       q    Type
REMARK                         _______ _______ _______ _____ _____    ______ ____
ROOT
ATOM      1  N   UNL     1       0.624  11.467  20.571  0.00  0.00    +0.000 N 
ENDROOT
BRANCH   1   5
ATOM      2  C   UNL     1       3.495  14.215  19.108  0.00  0.00    +0.000 A 
ATOM      3  C   UNL     1       3.156  14.206  20.463  0.00  0.00    +0.000 A 
ATOM      4  C   UNL     1       2.230  13.291  20.969  0.00  0.00    +0.000 A 
ATOM      5  C   UNL     1       1.617  12.386  20.108  0.00  0.00    +0.000 A 
ATOM      6  C   UNL     1       1.946  12.394  18.746  0.00  0.00    +0.000 A 
ATOM      7  C   UNL     1       2.891  13.301  18.246  0.00  0.00    +0.000 A 
BRANCH   2   9
ATOM      8  C   UNL     1       5.384  14.845  17.808  0.00  0.00    +0.000 C 
ATOM      9  O   UNL     1       4.379  15.193  18.752  0.00  0.00    +0.000 OA
ENDBRANCH   2   9
ENDBRANCH   1   5
BRANCH   1  10
ATOM     10  S   UNL     1      -0.994  12.020  20.619  0.00  0.00    +0.000 S 
ATOM     11  O   UNL     1      -1.641  11.472  21.796  0.00  0.00    +0.000 OA
ATOM     12  O   UNL     1      -0.973  13.451  20.392  0.00  0.00    +0.000 OA
BRANCH  10  13
ATOM     13  C   UNL     1      -1.802  11.280  19.196  0.00  0.00    +0.000 A 
ATOM     14  C   UNL     1      -1.055  10.528  18.280  0.00  0.00    +0.000 A 
ATOM     15  C   UNL     1      -1.659  10.024  17.118  0.00  0.00    +0.000 A 
ATOM     16  C   UNL     1      -3.008  10.282  16.834  0.00  0.00    +0.000 A 
ATOM     17  C   UNL     1      -3.638   9.682  15.604  0.00  0.00    +0.000 C 
ATOM     18  C   UNL     1      -3.716  11.100  17.734  0.00  0.00    +0.000 A 
ATOM     19  C   UNL     1      -3.133  11.597  18.913  0.00  0.00    +0.000 A 
BRANCH  18  20
ATOM     20  N   UNL     1      -5.097  11.480  17.459  0.00  0.00    +0.000 N 
ATOM     21  O   UNL     1      -5.285  12.452  16.717  0.00  0.00    +0.000 OA
ATOM     22  O   UNL     1      -5.978  10.803  18.001  0.00  0.00    +0.000 OA
ENDBRANCH  18  20
ENDBRANCH  10  13
ENDBRANCH   1  10
BRANCH   1  23
ATOM     23  C   UNL     1       0.958  10.374  21.509  0.00  0.00    +0.000 C 
BRANCH  23  24
ATOM     24  C   UNL     1       0.751   8.931  21.097  0.00  0.00    +0.000 C 
ATOM     25  O   UNL     1      -0.365   8.421  21.195  0.00  0.00    +0.000 OA
ATOM     26  N   UNL     1       1.886   8.294  20.614  0.00  0.00    +0.000 N 
ATOM     27  H   UNL     1       2.775   8.745  20.801  0.00  0.00    +0.000 HD
BRANCH  26  28
ATOM     28  C   UNL     1       1.940   6.997  20.056  0.00  0.00    +0.000 A 
ATOM     29  C   UNL     1       1.567   5.846  20.755  0.00  0.00    +0.000 A 
ATOM     30  C   UNL     1       1.619   4.582  20.148  0.00  0.00    +0.000 A 
ATOM     31  C   UNL     1       2.045   4.449  18.826  0.00  0.00    +0.000 A 
ATOM     32  C   UNL     1       2.421   5.604  18.122  0.00  0.00    +0.000 A 
ATOM     33  C   UNL     1       2.358   6.867  18.727  0.00  0.00    +0.000 A 
BRANCH  31  34
ATOM     34  C   UNL     1       2.117   3.137  18.116  0.00  0.00    +0.000 C 
ATOM     35  N   UNL     1       2.122   1.988  18.857  0.00  0.00    +0.000 N 
ATOM     36  O   UNL     1       2.161   3.076  16.892  0.00  0.00    +0.000 OA
ATOM     37  H   UNL     1       2.052   1.937  19.861  0.00  0.00    +0.000 HD
ATOM     38  H   UNL     1       2.147   1.116  18.344  0.00  0.00    +0.000 HD
ENDBRANCH  31  34
ENDBRANCH  26  28
ENDBRANCH  23  24
ENDBRANCH   1  23
TORSDOF 9
ENDMDL
MODEL 2
REMARK VINA RESULT:      -7.5      1.510      2.226
REMARK  Name = 
REMARK  11 active torsions:
REMARK  status: ('A' for Active; 'I' for Inactive)
REMARK    1  A    between atoms: C_1  and  O_2
REMARK    2  A    between atoms: O_2  and  C_3
REMARK    3  A    between atoms: C_6  and  N_7
REMARK    4  A    between atoms: N_7  and  C_8
REMARK    5  A    between atoms: N_7  and  S_21
REMARK    6  A    between atoms: C_8  and  C_9
REMARK    7  A    between atoms: N_11  and  C_12
REMARK    8  A    between atoms: C_15  and  C_16
REMARK    9  A    between atoms: S_21  and  C_24
REMARK   10  A    between atoms: C_27  and  C_28
REMARK   11  A    between atoms: C_29  and  N_30
REMARK                            x       y       z     vdW  Elec       q    Type
REMARK                         _______ _______ _______ _____ _____    ______ ____
ROOT
ATOM      1  N   UNL     1       0.415  11.823  20.827  0.00  0.00    +0.000 N 
ENDROOT
BRANCH   1   5
ATOM      2  C   UNL     1       3.104  14.658  19.195  0.00  0.00    +0.000 A 
ATOM      3  C   UNL     1       2.017  14.204  18.443  0.00  0.00    +0.000 A 
ATOM      4  C   UNL     1       1.105  13.289  18.973  0.00  0.00    +0.000 A 
ATOM      5  C   UNL     1       1.291  12.802  20.263  0.00  0.00    +0.000 A 
ATOM      6  C   UNL     1       2.383  13.246  21.020  0.00  0.00    +0.000 A 
ATOM      7  C   UNL     1       3.285  14.180  20.491  0.00  0.00    +0.000 A 
BRANCH   2   9
ATOM      8  C   UNL     1       3.571  15.866  17.200  0.00  0.00    +0.000 C 
ATOM      9  O   UNL     1       3.933  15.515  18.530  0.00  0.00    +0.000 OA
ENDBRANCH   2   9
ENDBRANCH   1   5
BRANCH   1  10
ATOM     10  S   UNL     1      -0.983  12.393  21.632  0.00  0.00    +0.000 S 
ATOM     11  O   UNL     1      -1.323  11.465  22.694  0.00  0.00    +0.000 OA
ATOM     12  O   UNL     1      -0.777  13.798  21.924  0.00  0.00    +0.000 OA
BRANCH  10  13
ATOM     13  C   UNL     1      -2.309  12.302  20.425  0.00  0.00    +0.000 A 
ATOM     14  C   UNL     1      -3.582  12.793  20.745  0.00  0.00    +0.000 A 
ATOM     15  C   UNL     1      -4.647  12.643  19.843  0.00  0.00    +0.000 A 
ATOM     16  C   UNL     1      -4.471  11.980  18.620  0.00  0.00    +0.000 A 
ATOM     17  C   UNL     1      -5.621  11.883  17.653  0.00  0.00    +0.000 C 
ATOM     18  C   UNL     1      -3.201  11.433  18.354  0.00  0.00    +0.000 A 
ATOM     19  C   UNL     1      -2.118  11.591  19.237  0.00  0.00    +0.000 A 
BRANCH  18  20
ATOM     20  N   UNL     1      -2.969  10.658  17.142  0.00  0.00    +0.000 N 
ATOM     21  O   UNL     1      -3.223   9.447  17.180  0.00  0.00    +0.000 OA
ATOM     22  O   UNL     1      -2.522  11.272  16.166  0.00  0.00    +0.000 OA
ENDBRANCH  18  20
ENDBRANCH  10  13
ENDBRANCH   1  10
BRANCH   1  23
ATOM     23  C   UNL     1       0.910  10.499  21.259  0.00  0.00    +0.000 C 
BRANCH  23  24
ATOM     24  C   UNL     1       1.024   9.368  20.257  0.00  0.00    +0.000 C 
ATOM     25  O   UNL     1       0.557   9.503  19.126  0.00  0.00    +0.000 OA
ATOM     26  N   UNL     1       1.686   8.241  20.725  0.00  0.00    +0.000 N 
ATOM     27  H   UNL     1       1.812   8.171  21.728  0.00  0.00    +0.000 HD
BRANCH  26  28
ATOM     28  C   UNL     1       2.031   7.102  19.962  0.00  0.00    +0.000 A 
ATOM     29  C   UNL     1       2.690   7.174  18.732  0.00  0.00    +0.000 A 
ATOM     30  C   UNL     1       3.029   6.012  18.023  0.00  0.00    +0.000 A 
ATOM     31  C   UNL     1       2.714   4.752  18.537  0.00  0.00    +0.000 A 
ATOM     32  C   UNL     1       2.052   4.677  19.772  0.00  0.00    +0.000 A 
ATOM     33  C   UNL     1       1.723   5.840  20.483  0.00  0.00    +0.000 A 
BRANCH  31  34
ATOM     34  C   UNL     1       3.053   3.476  17.840  0.00  0.00    +0.000 C 
ATOM     35  N   UNL     1       4.271   2.902  18.073  0.00  0.00    +0.000 N 
ATOM     36  O   UNL     1       2.258   2.935  17.078  0.00  0.00    +0.000 OA
ATOM     37  H   UNL     1       4.972   3.251  18.707  0.00  0.00    +0.000 HD
ATOM     38  H   UNL     1       4.459   2.025  17.604  0.00  0.00    +0.000 HD
ENDBRANCH  31  34
ENDBRANCH  26  28
ENDBRANCH  23  24
ENDBRANCH   1  23
TORSDOF 9
ENDMDL
MODEL 3
REMARK VINA RESULT:      -7.5      2.225      5.409
REMARK  Name = 
REMARK  11 active torsions:
REMARK  status: ('A' for Active; 'I' for Inactive)
REMARK    1  A    between atoms: C_1  and  O_2
REMARK    2  A    between atoms: O_2  and  C_3
REMARK    3  A    between atoms: C_6  and  N_7
REMARK    4  A    between atoms: N_7  and  C_8
REMARK    5  A    between atoms: N_7  and  S_21
REMARK    6  A    between atoms: C_8  and  C_9
REMARK    7  A    between atoms: N_11  and  C_12
REMARK    8  A    between atoms: C_15  and  C_16
REMARK    9  A    between atoms: S_21  and  C_24
REMARK   10  A    between atoms: C_27  and  C_28
REMARK   11  A    between atoms: C_29  and  N_30
REMARK                            x       y       z     vdW  Elec       q    Type
REMARK                         _______ _______ _______ _____ _____    ______ ____
ROOT
ATOM      1  N   UNL     1       0.116  10.658  19.419  0.00  0.00    +0.000 N 
ENDROOT
BRANCH   1   5
ATOM      2  C   UNL     1      -3.565  10.962  17.348  0.00  0.00    +0.000 A 
ATOM      3  C   UNL     1      -3.334  11.734  18.489  0.00  0.00    +0.000 A 
ATOM      4  C   UNL     1      -2.117  11.667  19.171  0.00  0.00    +0.000 A 
ATOM      5  C   UNL     1      -1.124  10.801  18.722  0.00  0.00    +0.000 A 
ATOM      6  C   UNL     1      -1.352  10.018  17.583  0.00  0.00    +0.000 A 
ATOM      7  C   UNL     1      -2.567  10.104  16.889  0.00  0.00    +0.000 A 
BRANCH   2   9
ATOM      8  C   UNL     1      -5.882  11.342  17.721  0.00  0.00    +0.000 C 
ATOM      9  O   UNL     1      -4.814  11.100  16.814  0.00  0.00    +0.000 OA
ENDBRANCH   2   9
ENDBRANCH   1   5
BRANCH   1  10
ATOM     10  S   UNL     1       0.504  11.851  20.582  0.00  0.00    +0.000 S 
ATOM     11  O   UNL     1      -0.719  12.301  21.219  0.00  0.00    +0.000 OA
ATOM     12  O   UNL     1       1.602  11.342  21.380  0.00  0.00    +0.000 OA
BRANCH  10  13
ATOM     13  C   UNL     1       1.143  13.247  19.651  0.00  0.00    +0.000 A 
ATOM     14  C   UNL     1       2.456  13.219  19.162  0.00  0.00    +0.000 A 
ATOM     15  C   UNL     1       2.994  14.342  18.512  0.00  0.00    +0.000 A 
ATOM     16  C   UNL     1       2.246  15.518  18.363  0.00  0.00    +0.000 A 
ATOM     17  C   UNL     1       2.835  16.686  17.616  0.00  0.00    +0.000 C 
ATOM     18  C   UNL     1       0.956  15.544  18.927  0.00  0.00    +0.000 A 
ATOM     19  C   UNL     1       0.394  14.423  19.562  0.00  0.00    +0.000 A 
BRANCH  18  20
ATOM     20  N   UNL     1       0.155  16.761  18.884  0.00  0.00    +0.000 N 
ATOM     21  O   UNL     1      -0.611  16.908  17.923  0.00  0.00    +0.000 OA
ATOM     22  O   UNL     1       0.312  17.564  19.812  0.00  0.00    +0.000 OA
ENDBRANCH  18  20
ENDBRANCH  10  13
ENDBRANCH   1  10
BRANCH   1  23
ATOM     23  C   UNL     1       1.265   9.950  18.817  0.00  0.00    +0.000 C 
BRANCH  23  24
ATOM     24  C   UNL     1       1.635   8.560  19.293  0.00  0.00    +0.000 C 
ATOM     25  O   UNL     1       1.364   8.216  20.444  0.00  0.00    +0.000 OA
ATOM     26  N   UNL     1       2.260   7.766  18.342  0.00  0.00    +0.000 N 
ATOM     27  H   UNL     1       2.628   8.239  17.524  0.00  0.00    +0.000 HD
BRANCH  26  28
ATOM     28  C   UNL     1       2.597   6.401  18.489  0.00  0.00    +0.000 A 
ATOM     29  C   UNL     1       1.879   5.365  17.886  0.00  0.00    +0.000 A 
ATOM     30  C   UNL     1       2.267   4.026  18.045  0.00  0.00    +0.000 A 
ATOM     31  C   UNL     1       3.386   3.701  18.814  0.00  0.00    +0.000 A 
ATOM     32  C   UNL     1       4.109   4.740  19.422  0.00  0.00    +0.000 A 
ATOM     33  C   UNL     1       3.725   6.077  19.251  0.00  0.00    +0.000 A 
BRANCH  31  34
ATOM     34  C   UNL     1       3.860   2.300  19.019  0.00  0.00    +0.000 C 
ATOM     35  N   UNL     1       4.972   2.086  19.784  0.00  0.00    +0.000 N 
ATOM     36  O   UNL     1       3.266   1.348  18.524  0.00  0.00    +0.000 OA
ATOM     37  H   UNL     1       5.503   2.799  20.259  0.00  0.00    +0.000 HD
ATOM     38  H   UNL     1       5.252   1.123  19.922  0.00  0.00    +0.000 HD
ENDBRANCH  31  34
ENDBRANCH  26  28
ENDBRANCH  23  24
ENDBRANCH   1  23
TORSDOF 9
ENDMDL
MODEL 4
REMARK VINA RESULT:      -7.4      1.057      1.412
REMARK  Name = 
REMARK  11 active torsions:
REMARK  status: ('A' for Active; 'I' for Inactive)
REMARK    1  A    between atoms: C_1  and  O_2
REMARK    2  A    between atoms: O_2  and  C_3
REMARK    3  A    between atoms: C_6  and  N_7
REMARK    4  A    between atoms: N_7  and  C_8
REMARK    5  A    between atoms: N_7  and  S_21
REMARK    6  A    between atoms: C_8  and  C_9
REMARK    7  A    between atoms: N_11  and  C_12
REMARK    8  A    between atoms: C_15  and  C_16
REMARK    9  A    between atoms: S_21  and  C_24
REMARK   10  A    between atoms: C_27  and  C_28
REMARK   11  A    between atoms: C_29  and  N_30
REMARK                            x       y       z     vdW  Elec       q    Type
REMARK                         _______ _______ _______ _____ _____    ______ ____
ROOT
ATOM      1  N   UNL     1       0.536  11.439  20.107  0.00  0.00    +0.000 N 
ENDROOT
BRANCH   1   5
ATOM      2  C   UNL     1       3.468  14.343  19.158  0.00  0.00    +0.000 A 
ATOM      3  C   UNL     1       3.096  14.127  20.487  0.00  0.00    +0.000 A 
ATOM      4  C   UNL     1       2.150  13.157  20.822  0.00  0.00    +0.000 A 
ATOM      5  C   UNL     1       1.549  12.405  19.816  0.00  0.00    +0.000 A 
ATOM      6  C   UNL     1       1.911  12.622  18.481  0.00  0.00    +0.000 A 
ATOM      7  C   UNL     1       2.877  13.583  18.150  0.00  0.00    +0.000 A 
BRANCH   2   9
ATOM      8  C   UNL     1       5.664  15.172  19.542  0.00  0.00    +0.000 C 
ATOM      9  O   UNL     1       4.370  15.353  18.979  0.00  0.00    +0.000 OA
ENDBRANCH   2   9
ENDBRANCH   1   5
BRANCH   1  10
ATOM     10  S   UNL     1      -1.064  12.013  20.299  0.00  0.00    +0.000 S 
ATOM     11  O   UNL     1      -1.643  11.399  21.479  0.00  0.00    +0.000 OA
ATOM     12  O   UNL     1      -1.029  13.457  20.166  0.00  0.00    +0.000 OA
BRANCH  10  13
ATOM     13  C   UNL     1      -1.978  11.384  18.888  0.00  0.00    +0.000 A 
ATOM     14  C   UNL     1      -1.301  10.726  17.853  0.00  0.00    +0.000 A 
ATOM     15  C   UNL     1      -1.994  10.312  16.704  0.00  0.00    +0.000 A 
ATOM     16  C   UNL     1      -3.364  10.569  16.554  0.00  0.00    +0.000 A 
ATOM     17  C   UNL     1      -4.087  10.066  15.332  0.00  0.00    +0.000 C 
ATOM     18  C   UNL     1      -4.004  11.296  17.576  0.00  0.00    +0.000 A 
ATOM     19  C   UNL     1      -3.332  11.700  18.742  0.00  0.00    +0.000 A 
BRANCH  18  20
ATOM     20  N   UNL     1      -5.407  11.673  17.447  0.00  0.00    +0.000 N 
ATOM     21  O   UNL     1      -6.250  10.918  17.948  0.00  0.00    +0.000 OA
ATOM     22  O   UNL     1      -5.648  12.718  16.833  0.00  0.00    +0.000 OA
ENDBRANCH  18  20
ENDBRANCH  10  13
ENDBRANCH   1  10
BRANCH   1  23
ATOM     23  C   UNL     1       0.851  10.172  20.800  0.00  0.00    +0.000 C 
BRANCH  23  24
ATOM     24  C   UNL     1       1.286   8.959  20.003  0.00  0.00    +0.000 C 
ATOM     25  O   UNL     1       1.369   9.030  18.777  0.00  0.00    +0.000 OA
ATOM     26  N   UNL     1       1.575   7.835  20.765  0.00  0.00    +0.000 N 
ATOM     27  H   UNL     1       1.247   7.839  21.725  0.00  0.00    +0.000 HD
BRANCH  26  28
ATOM     28  C   UNL     1       2.112   6.619  20.285  0.00  0.00    +0.000 A 
ATOM     29  C   UNL     1       3.165   6.555  19.368  0.00  0.00    +0.000 A 
ATOM     30  C   UNL     1       3.676   5.322  18.937  0.00  0.00    +0.000 A 
ATOM     31  C   UNL     1       3.141   4.127  19.420  0.00  0.00    +0.000 A 
ATOM     32  C   UNL     1       2.082   4.188  20.340  0.00  0.00    +0.000 A 
ATOM     33  C   UNL     1       1.580   5.422  20.776  0.00  0.00    +0.000 A 
BRANCH  31  34
ATOM     34  C   UNL     1       3.642   2.780  19.011  0.00  0.00    +0.000 C 
ATOM     35  N   UNL     1       4.892   2.396  19.406  0.00  0.00    +0.000 N 
ATOM     36  O   UNL     1       2.950   2.020  18.343  0.00  0.00    +0.000 OA
ATOM     37  H   UNL     1       5.516   2.936  19.985  0.00  0.00    +0.000 HD
ATOM     38  H   UNL     1       5.192   1.469  19.132  0.00  0.00    +0.000 HD
ENDBRANCH  31  34
ENDBRANCH  26  28
ENDBRANCH  23  24
ENDBRANCH   1  23
TORSDOF 9
ENDMDL
MODEL 5
REMARK VINA RESULT:      -7.3      3.353      6.420
REMARK  Name = 
REMARK  11 active torsions:
REMARK  status: ('A' for Active; 'I' for Inactive)
REMARK    1  A    between atoms: C_1  and  O_2
REMARK    2  A    between atoms: O_2  and  C_3
REMARK    3  A    between atoms: C_6  and  N_7
REMARK    4  A    between atoms: N_7  and  C_8
REMARK    5  A    between atoms: N_7  and  S_21
REMARK    6  A    between atoms: C_8  and  C_9
REMARK    7  A    between atoms: N_11  and  C_12
REMARK    8  A    between atoms: C_15  and  C_16
REMARK    9  A    between atoms: S_21  and  C_24
REMARK   10  A    between atoms: C_27  and  C_28
REMARK   11  A    between atoms: C_29  and  N_30
REMARK                            x       y       z     vdW  Elec       q    Type
REMARK                         _______ _______ _______ _____ _____    ______ ____
ROOT
ATOM      1  N   UNL     1      -0.975  12.870  21.141  0.00  0.00    +0.000 N 
ENDROOT
BRANCH   1   5
ATOM      2  C   UNL     1      -4.591  13.147  23.325  0.00  0.00    +0.000 A 
ATOM      3  C   UNL     1      -3.562  12.314  23.771  0.00  0.00    +0.000 A 
ATOM      4  C   UNL     1      -2.353  12.228  23.078  0.00  0.00    +0.000 A 
ATOM      5  C   UNL     1      -2.174  12.967  21.913  0.00  0.00    +0.000 A 
ATOM      6  C   UNL     1      -3.205  13.798  21.455  0.00  0.00    +0.000 A 
ATOM      7  C   UNL     1      -4.410  13.897  22.165  0.00  0.00    +0.000 A 
BRANCH   2   9
ATOM      8  C   UNL     1      -6.923  12.687  23.421  0.00  0.00    +0.000 C 
ATOM      9  O   UNL     1      -5.729  13.094  24.079  0.00  0.00    +0.000 OA
ENDBRANCH   2   9
ENDBRANCH   1   5
BRANCH   1  10
ATOM     10  S   UNL     1       0.344  13.852  21.613  0.00  0.00    +0.000 S 
ATOM     11  O   UNL     1       0.008  14.523  22.854  0.00  0.00    +0.000 OA
ATOM     12  O   UNL     1       1.545  13.046  21.517  0.00  0.00    +0.000 OA
BRANCH  10  13
ATOM     13  C   UNL     1       0.473  15.128  20.357  0.00  0.00    +0.000 A 
ATOM     14  C   UNL     1      -0.680  15.777  19.897  0.00  0.00    +0.000 A 
ATOM     15  C   UNL     1      -0.600  16.710  18.852  0.00  0.00    +0.000 A 
ATOM     16  C   UNL     1       0.623  16.992  18.227  0.00  0.00    +0.000 A 
ATOM     17  C   UNL     1       0.683  18.036  17.143  0.00  0.00    +0.000 C 
ATOM     18  C   UNL     1       1.754  16.273  18.658  0.00  0.00    +0.000 A 
ATOM     19  C   UNL     1       1.696  15.351  19.718  0.00  0.00    +0.000 A 
BRANCH  18  20
ATOM     20  N   UNL     1       3.041  16.453  17.997  0.00  0.00    +0.000 N 
ATOM     21  O   UNL     1       3.791  17.334  18.437  0.00  0.00    +0.000 OA
ATOM     22  O   UNL     1       3.280  15.714  17.035  0.00  0.00    +0.000 OA
ENDBRANCH  18  20
ENDBRANCH  10  13
ENDBRANCH   1  10
BRANCH   1  23
ATOM     23  C   UNL     1      -1.000  12.469  19.718  0.00  0.00    +0.000 C 
BRANCH  23  24
ATOM     24  C   UNL     1      -0.616  11.059  19.320  0.00  0.00    +0.000 C 
ATOM     25  O   UNL     1      -1.421  10.354  18.711  0.00  0.00    +0.000 OA
ATOM     26  N   UNL     1       0.670  10.681  19.683  0.00  0.00    +0.000 N 
ATOM     27  H   UNL     1       1.137  11.260  20.372  0.00  0.00    +0.000 HD
BRANCH  26  28
ATOM     28  C   UNL     1       1.314   9.474  19.329  0.00  0.00    +0.000 A 
ATOM     29  C   UNL     1       1.879   9.246  18.072  0.00  0.00    +0.000 A 
ATOM     30  C   UNL     1       2.526   8.037  17.777  0.00  0.00    +0.000 A 
ATOM     31  C   UNL     1       2.620   7.031  18.741  0.00  0.00    +0.000 A 
ATOM     32  C   UNL     1       2.052   7.257  20.004  0.00  0.00    +0.000 A 
ATOM     33  C   UNL     1       1.415   8.471  20.299  0.00  0.00    +0.000 A 
BRANCH  31  34
ATOM     34  C   UNL     1       3.301   5.724  18.498  0.00  0.00    +0.000 C 
ATOM     35  N   UNL     1       2.682   4.797  17.708  0.00  0.00    +0.000 N 
ATOM     36  O   UNL     1       4.400   5.479  18.983  0.00  0.00    +0.000 OA
ATOM     37  H   UNL     1       1.799   4.921  17.239  0.00  0.00    +0.000 HD
ATOM     38  H   UNL     1       3.181   3.931  17.545  0.00  0.00    +0.000 HD
ENDBRANCH  31  34
ENDBRANCH  26  28
ENDBRANCH  23  24
ENDBRANCH   1  23
TORSDOF 9
ENDMDL
MODEL 6
REMARK VINA RESULT:      -7.3      4.466     10.038
REMARK  Name = 
REMARK  11 active torsions:
REMARK  status: ('A' for Active; 'I' for Inactive)
REMARK    1  A    between atoms: C_1  and  O_2
REMARK    2  A    between atoms: O_2  and  C_3
REMARK    3  A    between atoms: C_6  and  N_7
REMARK    4  A    between atoms: N_7  and  C_8
REMARK    5  A    between atoms: N_7  and  S_21
REMARK    6  A    between atoms: C_8  and  C_9
REMARK    7  A    between atoms: N_11  and  C_12
REMARK    8  A    between atoms: C_15  and  C_16
REMARK    9  A    between atoms: S_21  and  C_24
REMARK   10  A    between atoms: C_27  and  C_28
REMARK   11  A    between atoms: C_29  and  N_30
REMARK                            x       y       z     vdW  Elec       q    Type
REMARK                         _______ _______ _______ _____ _____    ______ ____
ROOT
ATOM      1  N   UNL     1       3.960   6.357  17.654  0.00  0.00    +0.000 N 
ENDROOT
BRANCH   1   5
ATOM      2  C   UNL     1       1.601   3.583  19.816  0.00  0.00    +0.000 A 
ATOM      3  C   UNL     1       2.577   4.339  20.471  0.00  0.00    +0.000 A 
ATOM      4  C   UNL     1       3.347   5.276  19.781  0.00  0.00    +0.000 A 
ATOM      5  C   UNL     1       3.158   5.448  18.413  0.00  0.00    +0.000 A 
ATOM      6  C   UNL     1       2.187   4.688  17.747  0.00  0.00    +0.000 A 
ATOM      7  C   UNL     1       1.402   3.762  18.449  0.00  0.00    +0.000 A 
BRANCH   2   9
ATOM      8  C   UNL     1       1.514   2.437  21.898  0.00  0.00    +0.000 C 
ATOM      9  O   UNL     1       0.959   2.677  20.611  0.00  0.00    +0.000 OA
ENDBRANCH   2   9
ENDBRANCH   1   5
BRANCH   1  10
ATOM     10  S   UNL     1       5.633   6.020  17.541  0.00  0.00    +0.000 S 
ATOM     11  O   UNL     1       6.364   7.273  17.545  0.00  0.00    +0.000 OA
ATOM     12  O   UNL     1       5.938   4.990  18.515  0.00  0.00    +0.000 OA
BRANCH  10  13
ATOM     13  C   UNL     1       5.872   5.288  15.919  0.00  0.00    +0.000 A 
ATOM     14  C   UNL     1       5.231   4.086  15.593  0.00  0.00    +0.000 A 
ATOM     15  C   UNL     1       5.483   3.460  14.362  0.00  0.00    +0.000 A 
ATOM     16  C   UNL     1       6.398   4.003  13.448  0.00  0.00    +0.000 A 
ATOM     17  C   UNL     1       6.607   3.333  12.115  0.00  0.00    +0.000 C 
ATOM     18  C   UNL     1       7.082   5.172  13.831  0.00  0.00    +0.000 A 
ATOM     19  C   UNL     1       6.827   5.825  15.050  0.00  0.00    +0.000 A 
BRANCH  18  20
ATOM     20  N   UNL     1       8.108   5.745  12.968  0.00  0.00    +0.000 N 
ATOM     21  O   UNL     1       9.283   5.671  13.350  0.00  0.00    +0.000 OA
ATOM     22  O   UNL     1       7.720   6.274  11.920  0.00  0.00    +0.000 OA
ENDBRANCH  18  20
ENDBRANCH  10  13
ENDBRANCH   1  10
BRANCH   1  23
ATOM     23  C   UNL     1       3.577   7.776  17.491  0.00  0.00    +0.000 C 
BRANCH  23  24
ATOM     24  C   UNL     1       2.385   8.332  18.241  0.00  0.00    +0.000 C 
ATOM     25  O   UNL     1       2.150   7.949  19.388  0.00  0.00    +0.000 OA
ATOM     26  N   UNL     1       1.643   9.272  17.540  0.00  0.00    +0.000 N 
ATOM     27  H   UNL     1       1.802   9.324  16.540  0.00  0.00    +0.000 HD
BRANCH  26  28
ATOM     28  C   UNL     1       0.562  10.028  18.049  0.00  0.00    +0.000 A 
ATOM     29  C   UNL     1       0.724  11.106  18.923  0.00  0.00    +0.000 A 
ATOM     30  C   UNL     1      -0.380  11.837  19.384  0.00  0.00    +0.000 A 
ATOM     31  C   UNL     1      -1.672  11.501  18.974  0.00  0.00    +0.000 A 
ATOM     32  C   UNL     1      -1.838  10.418  18.098  0.00  0.00    +0.000 A 
ATOM     33  C   UNL     1      -0.731   9.696  17.631  0.00  0.00    +0.000 A 
BRANCH  31  34
ATOM     34  C   UNL     1      -2.891  12.241  19.419  0.00  0.00    +0.000 C 
ATOM     35  N   UNL     1      -2.735  13.409  20.112  0.00  0.00    +0.000 N 
ATOM     36  O   UNL     1      -4.016  11.826  19.165  0.00  0.00    +0.000 OA
ATOM     37  H   UNL     1      -1.855  13.846  20.335  0.00  0.00    +0.000 HD
ATOM     38  H   UNL     1      -3.581  13.898  20.377  0.00  0.00    +0.000 HD
ENDBRANCH  31  34
ENDBRANCH  26  28
ENDBRANCH  23  24
ENDBRANCH   1  23
TORSDOF 9
ENDMDL
MODEL 7
REMARK VINA RESULT:      -7.2      2.558      3.440
REMARK  Name = 
REMARK  11 active torsions:
REMARK  status: ('A' for Active; 'I' for Inactive)
REMARK    1  A    between atoms: C_1  and  O_2
REMARK    2  A    between atoms: O_2  and  C_3
REMARK    3  A    between atoms: C_6  and  N_7
REMARK    4  A    between atoms: N_7  and  C_8
REMARK    5  A    between atoms: N_7  and  S_21
REMARK    6  A    between atoms: C_8  and  C_9
REMARK    7  A    between atoms: N_11  and  C_12
REMARK    8  A    between atoms: C_15  and  C_16
REMARK    9  A    between atoms: S_21  and  C_24
REMARK   10  A    between atoms: C_27  and  C_28
REMARK   11  A    between atoms: C_29  and  N_30
REMARK                            x       y       z     vdW  Elec       q    Type
REMARK                         _______ _______ _______ _____ _____    ______ ____
ROOT
ATOM      1  N   UNL     1       0.734  11.150  19.353  0.00  0.00    +0.000 N 
ENDROOT
BRANCH   1   5
ATOM      2  C   UNL     1       3.458  14.389  19.494  0.00  0.00    +0.000 A 
ATOM      3  C   UNL     1       3.239  13.704  18.296  0.00  0.00    +0.000 A 
ATOM      4  C   UNL     1       2.327  12.650  18.224  0.00  0.00    +0.000 A 
ATOM      5  C   UNL     1       1.637  12.258  19.367  0.00  0.00    +0.000 A 
ATOM      6  C   UNL     1       1.857  12.934  20.574  0.00  0.00    +0.000 A 
ATOM      7  C   UNL     1       2.759  14.006  20.637  0.00  0.00    +0.000 A 
BRANCH   2   9
ATOM      8  C   UNL     1       5.397  15.383  20.445  0.00  0.00    +0.000 C 
ATOM      9  O   UNL     1       4.409  15.366  19.422  0.00  0.00    +0.000 OA
ENDBRANCH   2   9
ENDBRANCH   1   5
BRANCH   1  10
ATOM     10  S   UNL     1      -0.897  11.472  18.954  0.00  0.00    +0.000 S 
ATOM     11  O   UNL     1      -0.951  12.662  18.127  0.00  0.00    +0.000 OA
ATOM     12  O   UNL     1      -1.487  10.230  18.492  0.00  0.00    +0.000 OA
BRANCH  10  13
ATOM     13  C   UNL     1      -1.704  11.885  20.504  0.00  0.00    +0.000 A 
ATOM     14  C   UNL     1      -1.094  11.551  21.720  0.00  0.00    +0.000 A 
ATOM     15  C   UNL     1      -1.759  11.788  22.934  0.00  0.00    +0.000 A 
ATOM     16  C   UNL     1      -3.050  12.333  22.957  0.00  0.00    +0.000 A 
ATOM     17  C   UNL     1      -3.714  12.622  24.279  0.00  0.00    +0.000 C 
ATOM     18  C   UNL     1      -3.669  12.592  21.719  0.00  0.00    +0.000 A 
ATOM     19  C   UNL     1      -3.011  12.381  20.495  0.00  0.00    +0.000 A 
BRANCH  18  20
ATOM     20  N   UNL     1      -5.042  13.080  21.666  0.00  0.00    +0.000 N 
ATOM     21  O   UNL     1      -5.949  12.238  21.698  0.00  0.00    +0.000 OA
ATOM     22  O   UNL     1      -5.194  14.304  21.581  0.00  0.00    +0.000 OA
ENDBRANCH  18  20
ENDBRANCH  10  13
ENDBRANCH   1  10
BRANCH   1  23
ATOM     23  C   UNL     1       0.967   9.951  20.188  0.00  0.00    +0.000 C 
BRANCH  23  24
ATOM     24  C   UNL     1       1.509   8.684  19.561  0.00  0.00    +0.000 C 
ATOM     25  O   UNL     1       1.704   8.636  18.347  0.00  0.00    +0.000 OA
ATOM     26  N   UNL     1       1.758   7.652  20.456  0.00  0.00    +0.000 N 
ATOM     27  H   UNL     1       1.342   7.738  21.377  0.00  0.00    +0.000 HD
BRANCH  26  28
ATOM     28  C   UNL     1       2.373   6.416  20.153  0.00  0.00    +0.000 A 
ATOM     29  C   UNL     1       3.537   6.307  19.387  0.00  0.00    +0.000 A 
ATOM     30  C   UNL     1       4.121   5.057  19.131  0.00  0.00    +0.000 A 
ATOM     31  C   UNL     1       3.546   3.891  19.640  0.00  0.00    +0.000 A 
ATOM     32  C   UNL     1       2.376   3.998  20.407  0.00  0.00    +0.000 A 
ATOM     33  C   UNL     1       1.802   5.249  20.671  0.00  0.00    +0.000 A 
BRANCH  31  34
ATOM     34  C   UNL     1       4.118   2.530  19.413  0.00  0.00    +0.000 C 
ATOM     35  N   UNL     1       3.826   1.879  18.247  0.00  0.00    +0.000 N 
ATOM     36  O   UNL     1       4.847   1.998  20.244  0.00  0.00    +0.000 OA
ATOM     37  H   UNL     1       3.268   2.249  17.493  0.00  0.00    +0.000 HD
ATOM     38  H   UNL     1       4.248   0.969  18.115  0.00  0.00    +0.000 HD
ENDBRANCH  31  34
ENDBRANCH  26  28
ENDBRANCH  23  24
ENDBRANCH   1  23
TORSDOF 9
ENDMDL
MODEL 8
REMARK VINA RESULT:      -7.2      2.643      5.369
REMARK  Name = 
REMARK  11 active torsions:
REMARK  status: ('A' for Active; 'I' for Inactive)
REMARK    1  A    between atoms: C_1  and  O_2
REMARK    2  A    between atoms: O_2  and  C_3
REMARK    3  A    between atoms: C_6  and  N_7
REMARK    4  A    between atoms: N_7  and  C_8
REMARK    5  A    between atoms: N_7  and  S_21
REMARK    6  A    between atoms: C_8  and  C_9
REMARK    7  A    between atoms: N_11  and  C_12
REMARK    8  A    between atoms: C_15  and  C_16
REMARK    9  A    between atoms: S_21  and  C_24
REMARK   10  A    between atoms: C_27  and  C_28
REMARK   11  A    between atoms: C_29  and  N_30
REMARK                            x       y       z     vdW  Elec       q    Type
REMARK                         _______ _______ _______ _____ _____    ______ ____
ROOT
ATOM      1  N   UNL     1      -0.482  11.379  20.327  0.00  0.00    +0.000 N 
ENDROOT
BRANCH   1   5
ATOM      2  C   UNL     1      -3.088  10.799  17.040  0.00  0.00    +0.000 A 
ATOM      3  C   UNL     1      -1.884  10.094  17.117  0.00  0.00    +0.000 A 
ATOM      4  C   UNL     1      -1.024  10.253  18.205  0.00  0.00    +0.000 A 
ATOM      5  C   UNL     1      -1.357  11.143  19.221  0.00  0.00    +0.000 A 
ATOM      6  C   UNL     1      -2.559  11.860  19.147  0.00  0.00    +0.000 A 
ATOM      7  C   UNL     1      -3.430  11.682  18.063  0.00  0.00    +0.000 A 
BRANCH   2   9
ATOM      8  C   UNL     1      -3.080  10.131  14.758  0.00  0.00    +0.000 C 
ATOM      9  O   UNL     1      -3.804  10.575  15.899  0.00  0.00    +0.000 OA
ENDBRANCH   2   9
ENDBRANCH   1   5
BRANCH   1  10
ATOM     10  S   UNL     1       0.885  12.367  20.049  0.00  0.00    +0.000 S 
ATOM     11  O   UNL     1       1.850  12.141  21.108  0.00  0.00    +0.000 OA
ATOM     12  O   UNL     1       1.268  12.203  18.660  0.00  0.00    +0.000 OA
BRANCH  10  13
ATOM     13  C   UNL     1       0.308  14.058  20.231  0.00  0.00    +0.000 A 
ATOM     14  C   UNL     1      -0.674  14.362  21.183  0.00  0.00    +0.000 A 
ATOM     15  C   UNL     1      -1.197  15.662  21.270  0.00  0.00    +0.000 A 
ATOM     16  C   UNL     1      -0.773  16.673  20.395  0.00  0.00    +0.000 A 
ATOM     17  C   UNL     1      -1.316  18.069  20.550  0.00  0.00    +0.000 C 
ATOM     18  C   UNL     1       0.161  16.322  19.402  0.00  0.00    +0.000 A 
ATOM     19  C   UNL     1       0.711  15.031  19.313  0.00  0.00    +0.000 A 
BRANCH  18  20
ATOM     20  N   UNL     1       0.584  17.299  18.406  0.00  0.00    +0.000 N 
ATOM     21  O   UNL     1      -0.161  17.484  17.435  0.00  0.00    +0.000 OA
ATOM     22  O   UNL     1       1.666  17.863  18.604  0.00  0.00    +0.000 OA
ENDBRANCH  18  20
ENDBRANCH  10  13
ENDBRANCH   1  10
BRANCH   1  23
ATOM     23  C   UNL     1      -0.359  10.409  21.437  0.00  0.00    +0.000 C 
BRANCH  23  24
ATOM     24  C   UNL     1       0.071   8.985  21.156  0.00  0.00    +0.000 C 
ATOM     25  O   UNL     1      -0.636   8.047  21.527  0.00  0.00    +0.000 OA
ATOM     26  N   UNL     1       1.268   8.864  20.464  0.00  0.00    +0.000 N 
ATOM     27  H   UNL     1       1.856   9.689  20.425  0.00  0.00    +0.000 HD
BRANCH  26  28
ATOM     28  C   UNL     1       1.830   7.662  19.974  0.00  0.00    +0.000 A 
ATOM     29  C   UNL     1       1.824   6.465  20.694  0.00  0.00    +0.000 A 
ATOM     30  C   UNL     1       2.376   5.293  20.154  0.00  0.00    +0.000 A 
ATOM     31  C   UNL     1       2.946   5.302  18.880  0.00  0.00    +0.000 A 
ATOM     32  C   UNL     1       2.955   6.504  18.156  0.00  0.00    +0.000 A 
ATOM     33  C   UNL     1       2.392   7.670  18.694  0.00  0.00    +0.000 A 
BRANCH  31  34
ATOM     34  C   UNL     1       3.544   4.091  18.242  0.00  0.00    +0.000 C 
ATOM     35  N   UNL     1       4.783   3.679  18.645  0.00  0.00    +0.000 N 
ATOM     36  O   UNL     1       2.941   3.462  17.379  0.00  0.00    +0.000 OA
ATOM     37  H   UNL     1       5.337   4.109  19.369  0.00  0.00    +0.000 HD
ATOM     38  H   UNL     1       5.150   2.842  18.210  0.00  0.00    +0.000 HD
ENDBRANCH  31  34
ENDBRANCH  26  28
ENDBRANCH  23  24
ENDBRANCH   1  23
TORSDOF 9
ENDMDL
MODEL 9
REMARK VINA RESULT:      -7.2      3.201      6.247
REMARK  Name = 
REMARK  11 active torsions:
REMARK  status: ('A' for Active; 'I' for Inactive)
REMARK    1  A    between atoms: C_1  and  O_2
REMARK    2  A    between atoms: O_2  and  C_3
REMARK    3  A    between atoms: C_6  and  N_7
REMARK    4  A    between atoms: N_7  and  C_8
REMARK    5  A    between atoms: N_7  and  S_21
REMARK    6  A    between atoms: C_8  and  C_9
REMARK    7  A    between atoms: N_11  and  C_12
REMARK    8  A    between atoms: C_15  and  C_16
REMARK    9  A    between atoms: S_21  and  C_24
REMARK   10  A    between atoms: C_27  and  C_28
REMARK   11  A    between atoms: C_29  and  N_30
REMARK                            x       y       z     vdW  Elec       q    Type
REMARK                         _______ _______ _______ _____ _____    ______ ____
ROOT
ATOM      1  N   UNL     1      -0.700  12.604  20.740  0.00  0.00    +0.000 N 
ENDROOT
BRANCH   1   5
ATOM      2  C   UNL     1      -4.270  12.918  22.994  0.00  0.00    +0.000 A 
ATOM      3  C   UNL     1      -4.176  13.521  21.737  0.00  0.00    +0.000 A 
ATOM      4  C   UNL     1      -3.016  13.407  20.968  0.00  0.00    +0.000 A 
ATOM      5  C   UNL     1      -1.926  12.701  21.468  0.00  0.00    +0.000 A 
ATOM      6  C   UNL     1      -2.010  12.101  22.730  0.00  0.00    +0.000 A 
ATOM      7  C   UNL     1      -3.184  12.200  23.491  0.00  0.00    +0.000 A 
BRANCH   2   9
ATOM      8  C   UNL     1      -5.927  14.490  23.657  0.00  0.00    +0.000 C 
ATOM      9  O   UNL     1      -5.447  13.151  23.647  0.00  0.00    +0.000 OA
ENDBRANCH   2   9
ENDBRANCH   1   5
BRANCH   1  10
ATOM     10  S   UNL     1       0.618  13.544  21.293  0.00  0.00    +0.000 S 
ATOM     11  O   UNL     1       0.287  14.094  22.594  0.00  0.00    +0.000 OA
ATOM     12  O   UNL     1       1.822  12.756  21.115  0.00  0.00    +0.000 OA
BRANCH  10  13
ATOM     13  C   UNL     1       0.734  14.933  20.161  0.00  0.00    +0.000 A 
ATOM     14  C   UNL     1      -0.419  15.648  19.812  0.00  0.00    +0.000 A 
ATOM     15  C   UNL     1      -0.353  16.676  18.858  0.00  0.00    +0.000 A 
ATOM     16  C   UNL     1       0.854  16.991  18.216  0.00  0.00    +0.000 A 
ATOM     17  C   UNL     1       0.900  18.133  17.236  0.00  0.00    +0.000 C 
ATOM     18  C   UNL     1       1.981  16.209  18.532  0.00  0.00    +0.000 A 
ATOM     19  C   UNL     1       1.938  15.190  19.500  0.00  0.00    +0.000 A 
BRANCH  18  20
ATOM     20  N   UNL     1       3.247  16.424  17.843  0.00  0.00    +0.000 N 
ATOM     21  O   UNL     1       3.447  15.784  16.802  0.00  0.00    +0.000 OA
ATOM     22  O   UNL     1       4.033  17.225  18.361  0.00  0.00    +0.000 OA
ENDBRANCH  18  20
ENDBRANCH  10  13
ENDBRANCH   1  10
BRANCH   1  23
ATOM     23  C   UNL     1      -0.677  12.250  19.304  0.00  0.00    +0.000 C 
BRANCH  23  24
ATOM     24  C   UNL     1      -0.253  10.861  18.872  0.00  0.00    +0.000 C 
ATOM     25  O   UNL     1      -0.891  10.270  18.002  0.00  0.00    +0.000 OA
ATOM     26  N   UNL     1       0.873  10.370  19.517  0.00  0.00    +0.000 N 
ATOM     27  H   UNL     1       1.160  10.851  20.363  0.00  0.00    +0.000 HD
BRANCH  26  28
ATOM     28  C   UNL     1       1.544   9.161  19.218  0.00  0.00    +0.000 A 
ATOM     29  C   UNL     1       1.628   8.090  20.111  0.00  0.00    +0.000 A 
ATOM     30  C   UNL     1       2.288   6.904  19.759  0.00  0.00    +0.000 A 
ATOM     31  C   UNL     1       2.876   6.769  18.500  0.00  0.00    +0.000 A 
ATOM     32  C   UNL     1       2.794   7.844  17.601  0.00  0.00    +0.000 A 
ATOM     33  C   UNL     1       2.124   9.024  17.953  0.00  0.00    +0.000 A 
BRANCH  31  34
ATOM     34  C   UNL     1       3.586   5.532  18.056  0.00  0.00    +0.000 C 
ATOM     35  N   UNL     1       3.101   4.317  18.452  0.00  0.00    +0.000 N 
ATOM     36  O   UNL     1       4.580   5.590  17.341  0.00  0.00    +0.000 OA
ATOM     37  H   UNL     1       2.274   4.168  19.008  0.00  0.00    +0.000 HD
ATOM     38  H   UNL     1       3.592   3.499  18.115  0.00  0.00    +0.000 HD
ENDBRANCH  31  34
ENDBRANCH  26  28
ENDBRANCH  23  24
ENDBRANCH   1  23
TORSDOF 9
ENDMDL
