MODEL 1
REMARK VINA RESULT:      -7.8      0.000      0.000
REMARK  Name = 
REMARK  5 active torsions:
REMARK  status: ('A' for Active; 'I' for Inactive)
REMARK    1  A    between atoms: C_1  and  C_2
REMARK    2  A    between atoms: C_8  and  N_9
REMARK    3  A    between atoms: C_10  and  C_12
REMARK    4  A    between atoms: C_12  and  N_13
REMARK    5  A    between atoms: N_21  and  C_22
REMARK                            x       y       z     vdW  Elec       q    Type
REMARK                         _______ _______ _______ _____ _____    ______ ____
ROOT
ATOM      1  C   UNL     1       3.029   4.747  20.429  0.00  0.00    +0.000 C 
ENDROOT
BRANCH   1   2
ATOM      2  N   UNL     1       3.118   4.095  19.102  0.00  0.00    +0.000 NA
ATOM      3  C   UNL     1       2.944   5.032  17.981  0.00  0.00    +0.000 C 
ATOM      4  C   UNL     1       4.085   6.031  17.809  0.00  0.00    +0.000 C 
ATOM      5  C   UNL     1       5.494   5.397  17.764  0.00  0.00    +0.000 C 
ATOM      6  C   UNL     1       6.517   6.540  18.018  0.00  0.00    +0.000 C 
ATOM      7  C   UNL     1       7.588   6.437  16.946  0.00  0.00    +0.000 C 
ATOM      8  C   UNL     1       6.998   5.544  15.903  0.00  0.00    +0.000 C 
ATOM      9  O   UNL     1       7.509   5.329  14.814  0.00  0.00    +0.000 OA
ATOM     10  N   UNL     1       5.859   4.939  16.414  0.00  0.00    +0.000 N 
ATOM     11  C   UNL     1       5.378   3.716  15.801  0.00  0.00    +0.000 C 
ATOM     12  C   UNL     1       5.635   4.299  18.841  0.00  0.00    +0.000 C 
ATOM     13  C   UNL     1       4.404   3.387  18.962  0.00  0.00    +0.000 C 
ENDBRANCH   1   2
BRANCH   1  15
ATOM     14  N   UNL     1       2.224   7.039  20.627  0.00  0.00    +0.000 N 
ATOM     15  C   UNL     1       1.847   5.707  20.532  0.00  0.00    +0.000 C 
ATOM     16  O   UNL     1       0.699   5.268  20.515  0.00  0.00    +0.000 OA
ATOM     17  H   UNL     1       3.208   7.186  20.829  0.00  0.00    +0.000 HD
BRANCH  14  25
ATOM     18  C   UNL     1       1.978   8.688  18.195  0.00  0.00    +0.000 C 
ATOM     19  C   UNL     1       1.228   8.957  19.472  0.00  0.00    +0.000 A 
ATOM     20  C   UNL     1       0.338  10.046  19.487  0.00  0.00    +0.000 A 
ATOM     21  C   UNL     1      -0.383  10.358  20.636  0.00  0.00    +0.000 A 
ATOM     22  F   UNL     1      -1.215  11.406  20.633  0.00  0.00    +0.000 F 
ATOM     23  C   UNL     1      -0.251   9.593  21.779  0.00  0.00    +0.000 A 
ATOM     24  C   UNL     1       0.611   8.496  21.772  0.00  0.00    +0.000 A 
ATOM     25  C   UNL     1       1.361   8.163  20.633  0.00  0.00    +0.000 A 
ENDBRANCH  14  25
ENDBRANCH   1  15
TORSDOF 3
ENDMDL
MODEL 2
REMARK VINA RESULT:      -7.6      0.943      1.921
REMARK  Name = 
REMARK  5 active torsions:
REMARK  status: ('A' for Active; 'I' for Inactive)
REMARK    1  A    between atoms: C_1  and  C_2
REMARK    2  A    between atoms: C_8  and  N_9
REMARK    3  A    between atoms: C_10  and  C_12
REMARK    4  A    between atoms: C_12  and  N_13
REMARK    5  A    between atoms: N_21  and  C_22
REMARK                            x       y       z     vdW  Elec       q    Type
REMARK                         _______ _______ _______ _____ _____    ______ ____
ROOT
ATOM      1  C   UNL     1       3.197   4.978  19.696  0.00  0.00    +0.000 C 
ENDROOT
BRANCH   1   2
ATOM      2  N   UNL     1       4.439   5.757  19.479  0.00  0.00    +0.000 NA
ATOM      3  C   UNL     1       5.638   4.914  19.349  0.00  0.00    +0.000 C 
ATOM      4  C   UNL     1       5.685   4.071  18.078  0.00  0.00    +0.000 C 
ATOM      5  C   UNL     1       5.443   4.862  16.772  0.00  0.00    +0.000 C 
ATOM      6  C   UNL     1       5.102   3.824  15.666  0.00  0.00    +0.000 C 
ATOM      7  C   UNL     1       5.964   4.147  14.459  0.00  0.00    +0.000 C 
ATOM      8  C   UNL     1       7.025   5.061  14.982  0.00  0.00    +0.000 C 
ATOM      9  O   UNL     1       7.992   5.433  14.334  0.00  0.00    +0.000 OA
ATOM     10  N   UNL     1       6.674   5.482  16.257  0.00  0.00    +0.000 N 
ATOM     11  C   UNL     1       7.268   6.696  16.784  0.00  0.00    +0.000 C 
ATOM     12  C   UNL     1       4.280   5.864  16.947  0.00  0.00    +0.000 C 
ATOM     13  C   UNL     1       4.305   6.616  18.288  0.00  0.00    +0.000 C 
ENDBRANCH   1   2
BRANCH   1  15
ATOM     14  N   UNL     1       2.345   7.197  20.238  0.00  0.00    +0.000 N 
ATOM     15  C   UNL     1       2.047   5.842  20.207  0.00  0.00    +0.000 C 
ATOM     16  O   UNL     1       0.985   5.315  20.533  0.00  0.00    +0.000 OA
ATOM     17  H   UNL     1       3.329   7.415  20.126  0.00  0.00    +0.000 HD
BRANCH  14  25
ATOM     18  C   UNL     1       1.530   9.106  18.144  0.00  0.00    +0.000 C 
ATOM     19  C   UNL     1       1.049   9.166  19.568  0.00  0.00    +0.000 A 
ATOM     20  C   UNL     1       0.136  10.182  19.905  0.00  0.00    +0.000 A 
ATOM     21  C   UNL     1      -0.344  10.303  21.206  0.00  0.00    +0.000 A 
ATOM     22  F   UNL     1      -1.202  11.284  21.508  0.00  0.00    +0.000 F 
ATOM     23  C   UNL     1       0.055   9.417  22.188  0.00  0.00    +0.000 A 
ATOM     24  C   UNL     1       0.942   8.390  21.864  0.00  0.00    +0.000 A 
ATOM     25  C   UNL     1       1.454   8.249  20.564  0.00  0.00    +0.000 A 
ENDBRANCH  14  25
ENDBRANCH   1  15
TORSDOF 3
ENDMDL
MODEL 3
REMARK VINA RESULT:      -6.9      2.709      4.155
REMARK  Name = 
REMARK  5 active torsions:
REMARK  status: ('A' for Active; 'I' for Inactive)
REMARK    1  A    between atoms: C_1  and  C_2
REMARK    2  A    between atoms: C_8  and  N_9
REMARK    3  A    between atoms: C_10  and  C_12
REMARK    4  A    between atoms: C_12  and  N_13
REMARK    5  A    between atoms: N_21  and  C_22
REMARK                            x       y       z     vdW  Elec       q    Type
REMARK                         _______ _______ _______ _____ _____    ______ ____
ROOT
ATOM      1  C   UNL     1       2.194   8.122  17.429  0.00  0.00    +0.000 C 
ENDROOT
BRANCH   1   2
ATOM      2  N   UNL     1       3.222   7.620  18.370  0.00  0.00    +0.000 NA
ATOM      3  C   UNL     1       2.658   6.852  19.491  0.00  0.00    +0.000 C 
ATOM      4  C   UNL     1       2.050   5.509  19.096  0.00  0.00    +0.000 C 
ATOM      5  C   UNL     1       2.975   4.610  18.242  0.00  0.00    +0.000 C 
ATOM      6  C   UNL     1       2.077   3.523  17.589  0.00  0.00    +0.000 C 
ATOM      7  C   UNL     1       2.746   2.180  17.825  0.00  0.00    +0.000 C 
ATOM      8  C   UNL     1       3.754   2.440  18.898  0.00  0.00    +0.000 C 
ATOM      9  O   UNL     1       4.402   1.568  19.456  0.00  0.00    +0.000 OA
ATOM     10  N   UNL     1       3.894   3.810  19.067  0.00  0.00    +0.000 N 
ATOM     11  C   UNL     1       5.101   4.321  19.688  0.00  0.00    +0.000 C 
ATOM     12  C   UNL     1       3.693   5.440  17.156  0.00  0.00    +0.000 C 
ATOM     13  C   UNL     1       4.215   6.797  17.655  0.00  0.00    +0.000 C 
ENDBRANCH   1   2
BRANCH   1  15
ATOM     14  N   UNL     1       0.206   9.330  18.160  0.00  0.00    +0.000 N 
ATOM     15  C   UNL     1       1.565   9.433  17.895  0.00  0.00    +0.000 C 
ATOM     16  O   UNL     1       2.261  10.439  18.009  0.00  0.00    +0.000 OA
ATOM     17  H   UNL     1      -0.227   8.480  17.815  0.00  0.00    +0.000 HD
BRANCH  14  25
ATOM     18  C   UNL     1      -2.219  10.144  16.695  0.00  0.00    +0.000 C 
ATOM     19  C   UNL     1      -1.797  10.733  18.014  0.00  0.00    +0.000 A 
ATOM     20  C   UNL     1      -2.630  11.712  18.587  0.00  0.00    +0.000 A 
ATOM     21  C   UNL     1      -2.297  12.304  19.801  0.00  0.00    +0.000 A 
ATOM     22  F   UNL     1      -3.097  13.242  20.323  0.00  0.00    +0.000 F 
ATOM     23  C   UNL     1      -1.150  11.932  20.475  0.00  0.00    +0.000 A 
ATOM     24  C   UNL     1      -0.326  10.948  19.930  0.00  0.00    +0.000 A 
ATOM     25  C   UNL     1      -0.627  10.339  18.701  0.00  0.00    +0.000 A 
ENDBRANCH  14  25
ENDBRANCH   1  15
TORSDOF 3
ENDMDL
MODEL 4
REMARK VINA RESULT:      -6.9      4.093      8.785
REMARK  Name = 
REMARK  5 active torsions:
REMARK  status: ('A' for Active; 'I' for Inactive)
REMARK    1  A    between atoms: C_1  and  C_2
REMARK    2  A    between atoms: C_8  and  N_9
REMARK    3  A    between atoms: C_10  and  C_12
REMARK    4  A    between atoms: C_12  and  N_13
REMARK    5  A    between atoms: N_21  and  C_22
REMARK                            x       y       z     vdW  Elec       q    Type
REMARK                         _______ _______ _______ _____ _____    ______ ____
ROOT
ATOM      1  C   UNL     1       1.290   9.142  19.143  0.00  0.00    +0.000 C 
ENDROOT
BRANCH   1   2
ATOM      2  N   UNL     1       0.797  10.427  18.593  0.00  0.00    +0.000 NA
ATOM      3  C   UNL     1      -0.662  10.581  18.699  0.00  0.00    +0.000 C 
ATOM      4  C   UNL     1      -1.180  10.743  20.126  0.00  0.00    +0.000 C 
ATOM      5  C   UNL     1      -0.464  11.836  20.951  0.00  0.00    +0.000 C 
ATOM      6  C   UNL     1      -0.800  11.575  22.445  0.00  0.00    +0.000 C 
ATOM      7  C   UNL     1      -1.246  12.896  23.048  0.00  0.00    +0.000 C 
ATOM      8  C   UNL     1      -1.535  13.772  21.873  0.00  0.00    +0.000 C 
ATOM      9  O   UNL     1      -2.050  14.878  21.951  0.00  0.00    +0.000 OA
ATOM     10  N   UNL     1      -1.037  13.173  20.725  0.00  0.00    +0.000 N 
ATOM     11  C   UNL     1      -0.776  13.996  19.560  0.00  0.00    +0.000 C 
ATOM     12  C   UNL     1       1.063  11.780  20.725  0.00  0.00    +0.000 C 
ATOM     13  C   UNL     1       1.466  11.560  19.258  0.00  0.00    +0.000 C 
ENDBRANCH   1   2
BRANCH   1  15
ATOM     14  N   UNL     1       2.659   7.184  18.656  0.00  0.00    +0.000 N 
ATOM     15  C   UNL     1       2.204   8.402  18.170  0.00  0.00    +0.000 C 
ATOM     16  O   UNL     1       2.460   8.897  17.074  0.00  0.00    +0.000 OA
ATOM     17  H   UNL     1       2.506   7.043  19.650  0.00  0.00    +0.000 HD
BRANCH  14  25
ATOM     18  C   UNL     1       1.656   4.425  18.384  0.00  0.00    +0.000 C 
ATOM     19  C   UNL     1       2.960   4.905  17.807  0.00  0.00    +0.000 A 
ATOM     20  C   UNL     1       3.727   3.982  17.072  0.00  0.00    +0.000 A 
ATOM     21  C   UNL     1       4.947   4.356  16.517  0.00  0.00    +0.000 A 
ATOM     22  F   UNL     1       5.667   3.459  15.832  0.00  0.00    +0.000 F 
ATOM     23  C   UNL     1       5.421   5.646  16.662  0.00  0.00    +0.000 A 
ATOM     24  C   UNL     1       4.661   6.578  17.369  0.00  0.00    +0.000 A 
ATOM     25  C   UNL     1       3.432   6.229  17.952  0.00  0.00    +0.000 A 
ENDBRANCH  14  25
ENDBRANCH   1  15
TORSDOF 3
ENDMDL
MODEL 5
REMARK VINA RESULT:      -6.9      0.639      1.467
REMARK  Name = 
REMARK  5 active torsions:
REMARK  status: ('A' for Active; 'I' for Inactive)
REMARK    1  A    between atoms: C_1  and  C_2
REMARK    2  A    between atoms: C_8  and  N_9
REMARK    3  A    between atoms: C_10  and  C_12
REMARK    4  A    between atoms: C_12  and  N_13
REMARK    5  A    between atoms: N_21  and  C_22
REMARK                            x       y       z     vdW  Elec       q    Type
REMARK                         _______ _______ _______ _____ _____    ______ ____
ROOT
ATOM      1  C   UNL     1       2.998   5.109  20.453  0.00  0.00    +0.000 C 
ENDROOT
BRANCH   1   2
ATOM      2  N   UNL     1       3.152   4.299  19.221  0.00  0.00    +0.000 NA
ATOM      3  C   UNL     1       2.945   5.074  17.987  0.00  0.00    +0.000 C 
ATOM      4  C   UNL     1       4.027   6.112  17.703  0.00  0.00    +0.000 C 
ATOM      5  C   UNL     1       5.473   5.566  17.757  0.00  0.00    +0.000 C 
ATOM      6  C   UNL     1       6.420   6.792  17.875  0.00  0.00    +0.000 C 
ATOM      7  C   UNL     1       7.516   6.620  16.838  0.00  0.00    +0.000 C 
ATOM      8  C   UNL     1       7.003   5.566  15.911  0.00  0.00    +0.000 C 
ATOM      9  O   UNL     1       7.547   5.247  14.865  0.00  0.00    +0.000 OA
ATOM     10  N   UNL     1       5.891   4.963  16.481  0.00  0.00    +0.000 N 
ATOM     11  C   UNL     1       5.497   3.643  16.025  0.00  0.00    +0.000 C 
ATOM     12  C   UNL     1       5.657   4.625  18.967  0.00  0.00    +0.000 C 
ATOM     13  C   UNL     1       4.480   3.661  19.189  0.00  0.00    +0.000 C 
ENDBRANCH   1   2
BRANCH   1  15
ATOM     14  N   UNL     1       2.265   7.414  20.151  0.00  0.00    +0.000 N 
ATOM     15  C   UNL     1       1.847   6.107  20.357  0.00  0.00    +0.000 C 
ATOM     16  O   UNL     1       0.686   5.714  20.452  0.00  0.00    +0.000 OA
ATOM     17  H   UNL     1       3.257   7.568  20.302  0.00  0.00    +0.000 HD
BRANCH  14  25
ATOM     18  C   UNL     1       1.214   8.935  22.448  0.00  0.00    +0.000 C 
ATOM     19  C   UNL     1       0.932   9.282  21.011  0.00  0.00    +0.000 A 
ATOM     20  C   UNL     1       0.141  10.418  20.758  0.00  0.00    +0.000 A 
ATOM     21  C   UNL     1      -0.165  10.793  19.454  0.00  0.00    +0.000 A 
ATOM     22  F   UNL     1      -0.930  11.870  19.236  0.00  0.00    +0.000 F 
ATOM     23  C   UNL     1       0.315  10.067  18.381  0.00  0.00    +0.000 A 
ATOM     24  C   UNL     1       1.119   8.952  18.616  0.00  0.00    +0.000 A 
ATOM     25  C   UNL     1       1.436   8.540  19.920  0.00  0.00    +0.000 A 
ENDBRANCH  14  25
ENDBRANCH   1  15
TORSDOF 3
ENDMDL
MODEL 6
REMARK VINA RESULT:      -6.8      2.566      4.046
REMARK  Name = 
REMARK  5 active torsions:
REMARK  status: ('A' for Active; 'I' for Inactive)
REMARK    1  A    between atoms: C_1  and  C_2
REMARK    2  A    between atoms: C_8  and  N_9
REMARK    3  A    between atoms: C_10  and  C_12
REMARK    4  A    between atoms: C_12  and  N_13
REMARK    5  A    between atoms: N_21  and  C_22
REMARK                            x       y       z     vdW  Elec       q    Type
REMARK                         _______ _______ _______ _____ _____    ______ ____
ROOT
ATOM      1  C   UNL     1       2.171   8.175  17.679  0.00  0.00    +0.000 C 
ENDROOT
BRANCH   1   2
ATOM      2  N   UNL     1       3.257   7.569  18.486  0.00  0.00    +0.000 NA
ATOM      3  C   UNL     1       2.762   6.773  19.620  0.00  0.00    +0.000 C 
ATOM      4  C   UNL     1       2.042   5.487  19.225  0.00  0.00    +0.000 C 
ATOM      5  C   UNL     1       2.824   4.588  18.239  0.00  0.00    +0.000 C 
ATOM      6  C   UNL     1       1.805   3.586  17.628  0.00  0.00    +0.000 C 
ATOM      7  C   UNL     1       2.416   2.199  17.731  0.00  0.00    +0.000 C 
ATOM      8  C   UNL     1       3.539   2.348  18.706  0.00  0.00    +0.000 C 
ATOM      9  O   UNL     1       4.187   1.415  19.153  0.00  0.00    +0.000 OA
ATOM     10  N   UNL     1       3.773   3.698  18.926  0.00  0.00    +0.000 N 
ATOM     11  C   UNL     1       5.063   4.111  19.445  0.00  0.00    +0.000 C 
ATOM     12  C   UNL     1       3.478   5.437  17.126  0.00  0.00    +0.000 C 
ATOM     13  C   UNL     1       4.125   6.735  17.635  0.00  0.00    +0.000 C 
ENDBRANCH   1   2
BRANCH   1  15
ATOM     14  N   UNL     1       0.533   9.244  19.134  0.00  0.00    +0.000 N 
ATOM     15  C   UNL     1       1.624   9.456  18.303  0.00  0.00    +0.000 C 
ATOM     16  O   UNL     1       2.158  10.535  18.052  0.00  0.00    +0.000 OA
ATOM     17  H   UNL     1       0.115   8.323  19.055  0.00  0.00    +0.000 HD
BRANCH  14  25
ATOM     18  C   UNL     1       1.047   9.329  22.036  0.00  0.00    +0.000 C 
ATOM     19  C   UNL     1       0.119  10.272  21.319  0.00  0.00    +0.000 A 
ATOM     20  C   UNL     1      -0.516  11.268  22.085  0.00  0.00    +0.000 A 
ATOM     21  C   UNL     1      -1.393  12.169  21.489  0.00  0.00    +0.000 A 
ATOM     22  F   UNL     1      -1.996  13.101  22.237  0.00  0.00    +0.000 F 
ATOM     23  C   UNL     1      -1.645  12.114  20.131  0.00  0.00    +0.000 A 
ATOM     24  C   UNL     1      -1.005  11.147  19.356  0.00  0.00    +0.000 A 
ATOM     25  C   UNL     1      -0.124  10.215  19.929  0.00  0.00    +0.000 A 
ENDBRANCH  14  25
ENDBRANCH   1  15
TORSDOF 3
ENDMDL
MODEL 7
REMARK VINA RESULT:      -6.7      4.028      7.834
REMARK  Name = 
REMARK  5 active torsions:
REMARK  status: ('A' for Active; 'I' for Inactive)
REMARK    1  A    between atoms: C_1  and  C_2
REMARK    2  A    between atoms: C_8  and  N_9
REMARK    3  A    between atoms: C_10  and  C_12
REMARK    4  A    between atoms: C_12  and  N_13
REMARK    5  A    between atoms: N_21  and  C_22
REMARK                            x       y       z     vdW  Elec       q    Type
REMARK                         _______ _______ _______ _____ _____    ______ ____
ROOT
ATOM      1  C   UNL     1       1.896   8.588  20.169  0.00  0.00    +0.000 C 
ENDROOT
BRANCH   1   2
ATOM      2  N   UNL     1       0.643   9.175  19.639  0.00  0.00    +0.000 NA
ATOM      3  C   UNL     1      -0.016  10.088  20.586  0.00  0.00    +0.000 C 
ATOM      4  C   UNL     1       0.741  11.388  20.842  0.00  0.00    +0.000 C 
ATOM      5  C   UNL     1       1.160  12.151  19.564  0.00  0.00    +0.000 C 
ATOM      6  C   UNL     1       2.254  13.174  19.981  0.00  0.00    +0.000 C 
ATOM      7  C   UNL     1       1.869  14.517  19.387  0.00  0.00    +0.000 C 
ATOM      8  C   UNL     1       0.435  14.364  18.995  0.00  0.00    +0.000 C 
ATOM      9  O   UNL     1      -0.271  15.280  18.602  0.00  0.00    +0.000 OA
ATOM     10  N   UNL     1       0.088  13.022  19.055  0.00  0.00    +0.000 N 
ATOM     11  C   UNL     1      -1.062  12.559  18.302  0.00  0.00    +0.000 C 
ATOM     12  C   UNL     1       1.712  11.176  18.501  0.00  0.00    +0.000 C 
ATOM     13  C   UNL     1       0.901   9.877  18.369  0.00  0.00    +0.000 C 
ENDBRANCH   1   2
BRANCH   1  15
ATOM     14  N   UNL     1       2.541   6.608  18.901  0.00  0.00    +0.000 N 
ATOM     15  C   UNL     1       1.923   7.066  20.056  0.00  0.00    +0.000 C 
ATOM     16  O   UNL     1       1.432   6.378  20.949  0.00  0.00    +0.000 OA
ATOM     17  H   UNL     1       2.699   7.320  18.197  0.00  0.00    +0.000 HD
BRANCH  14  25
ATOM     18  C   UNL     1       5.266   5.541  19.260  0.00  0.00    +0.000 C 
ATOM     19  C   UNL     1       4.109   4.731  18.740  0.00  0.00    +0.000 A 
ATOM     20  C   UNL     1       4.345   3.378  18.435  0.00  0.00    +0.000 A 
ATOM     21  C   UNL     1       3.323   2.573  17.944  0.00  0.00    +0.000 A 
ATOM     22  F   UNL     1       3.572   1.291  17.648  0.00  0.00    +0.000 F 
ATOM     23  C   UNL     1       2.051   3.082  17.760  0.00  0.00    +0.000 A 
ATOM     24  C   UNL     1       1.797   4.416  18.079  0.00  0.00    +0.000 A 
ATOM     25  C   UNL     1       2.809   5.258  18.566  0.00  0.00    +0.000 A 
ENDBRANCH  14  25
ENDBRANCH   1  15
TORSDOF 3
ENDMDL
MODEL 8
REMARK VINA RESULT:      -6.6      4.131      8.483
REMARK  Name = 
REMARK  5 active torsions:
REMARK  status: ('A' for Active; 'I' for Inactive)
REMARK    1  A    between atoms: C_1  and  C_2
REMARK    2  A    between atoms: C_8  and  N_9
REMARK    3  A    between atoms: C_10  and  C_12
REMARK    4  A    between atoms: C_12  and  N_13
REMARK    5  A    between atoms: N_21  and  C_22
REMARK                            x       y       z     vdW  Elec       q    Type
REMARK                         _______ _______ _______ _____ _____    ______ ____
ROOT
ATOM      1  C   UNL     1       1.531   9.263  19.153  0.00  0.00    +0.000 C 
ENDROOT
BRANCH   1   2
ATOM      2  N   UNL     1       0.410   9.661  20.037  0.00  0.00    +0.000 NA
ATOM      3  C   UNL     1       0.803  10.635  21.068  0.00  0.00    +0.000 C 
ATOM      4  C   UNL     1       1.157  12.019  20.530  0.00  0.00    +0.000 C 
ATOM      5  C   UNL     1       0.097  12.633  19.587  0.00  0.00    +0.000 C 
ATOM      6  C   UNL     1       0.788  13.794  18.819  0.00  0.00    +0.000 C 
ATOM      7  C   UNL     1      -0.123  15.006  18.912  0.00  0.00    +0.000 C 
ATOM      8  C   UNL     1      -1.084  14.677  20.008  0.00  0.00    +0.000 C 
ATOM      9  O   UNL     1      -1.893  15.466  20.472  0.00  0.00    +0.000 OA
ATOM     10  N   UNL     1      -0.970  13.330  20.323  0.00  0.00    +0.000 N 
ATOM     11  C   UNL     1      -2.072  12.672  20.998  0.00  0.00    +0.000 C 
ATOM     12  C   UNL     1      -0.435  11.574  18.597  0.00  0.00    +0.000 C 
ATOM     13  C   UNL     1      -0.705  10.204  19.240  0.00  0.00    +0.000 C 
ENDBRANCH   1   2
BRANCH   1  15
ATOM     14  N   UNL     1       2.164   7.159  18.097  0.00  0.00    +0.000 N 
ATOM     15  C   UNL     1       1.901   7.790  19.304  0.00  0.00    +0.000 C 
ATOM     16  O   UNL     1       1.949   7.284  20.424  0.00  0.00    +0.000 OA
ATOM     17  H   UNL     1       1.876   7.682  17.276  0.00  0.00    +0.000 HD
BRANCH  14  25
ATOM     18  C   UNL     1       4.957   6.701  17.271  0.00  0.00    +0.000 C 
ATOM     19  C   UNL     1       3.967   5.599  17.533  0.00  0.00    +0.000 A 
ATOM     20  C   UNL     1       4.419   4.272  17.400  0.00  0.00    +0.000 A 
ATOM     21  C   UNL     1       3.556   3.203  17.620  0.00  0.00    +0.000 A 
ATOM     22  F   UNL     1       4.002   1.950  17.475  0.00  0.00    +0.000 F 
ATOM     23  C   UNL     1       2.242   3.423  17.990  0.00  0.00    +0.000 A 
ATOM     24  C   UNL     1       1.787   4.732  18.148  0.00  0.00    +0.000 A 
ATOM     25  C   UNL     1       2.629   5.833  17.921  0.00  0.00    +0.000 A 
ENDBRANCH  14  25
ENDBRANCH   1  15
TORSDOF 3
ENDMDL
MODEL 9
REMARK VINA RESULT:      -6.6      2.930      4.395
REMARK  Name = 
REMARK  5 active torsions:
REMARK  status: ('A' for Active; 'I' for Inactive)
REMARK    1  A    between atoms: C_1  and  C_2
REMARK    2  A    between atoms: C_8  and  N_9
REMARK    3  A    between atoms: C_10  and  C_12
REMARK    4  A    between atoms: C_12  and  N_13
REMARK    5  A    between atoms: N_21  and  C_22
REMARK                            x       y       z     vdW  Elec       q    Type
REMARK                         _______ _______ _______ _____ _____    ______ ____
ROOT
ATOM      1  C   UNL     1       1.987   7.755  19.197  0.00  0.00    +0.000 C 
ENDROOT
BRANCH   1   2
ATOM      2  N   UNL     1       3.114   7.052  18.540  0.00  0.00    +0.000 NA
ATOM      3  C   UNL     1       3.936   6.270  19.477  0.00  0.00    +0.000 C 
ATOM      4  C   UNL     1       3.235   5.050  20.068  0.00  0.00    +0.000 C 
ATOM      5  C   UNL     1       2.576   4.118  19.026  0.00  0.00    +0.000 C 
ATOM      6  C   UNL     1       1.576   3.209  19.795  0.00  0.00    +0.000 C 
ATOM      7  C   UNL     1       1.834   1.778  19.355  0.00  0.00    +0.000 C 
ATOM      8  C   UNL     1       3.168   1.821  18.682  0.00  0.00    +0.000 C 
ATOM      9  O   UNL     1       3.781   0.831  18.310  0.00  0.00    +0.000 OA
ATOM     10  N   UNL     1       3.526   3.144  18.467  0.00  0.00    +0.000 N 
ATOM     11  C   UNL     1       4.514   3.447  17.449  0.00  0.00    +0.000 C 
ATOM     12  C   UNL     1       1.836   4.939  17.947  0.00  0.00    +0.000 C 
ATOM     13  C   UNL     1       2.615   6.174  17.465  0.00  0.00    +0.000 C 
ENDBRANCH   1   2
BRANCH   1  15
ATOM     14  N   UNL     1       0.949   9.953  19.379  0.00  0.00    +0.000 N 
ATOM     15  C   UNL     1       1.698   9.114  18.566  0.00  0.00    +0.000 C 
ATOM     16  O   UNL     1       2.128   9.371  17.443  0.00  0.00    +0.000 OA
ATOM     17  H   UNL     1       0.519   9.495  20.175  0.00  0.00    +0.000 HD
BRANCH  14  25
ATOM     18  C   UNL     1      -1.680  10.584  18.202  0.00  0.00    +0.000 C 
ATOM     19  C   UNL     1      -0.649  11.620  18.560  0.00  0.00    +0.000 A 
ATOM     20  C   UNL     1      -0.979  12.971  18.340  0.00  0.00    +0.000 A 
ATOM     21  C   UNL     1      -0.071  13.981  18.640  0.00  0.00    +0.000 A 
ATOM     22  F   UNL     1      -0.400  15.258  18.412  0.00  0.00    +0.000 F 
ATOM     23  C   UNL     1       1.167  13.679  19.175  0.00  0.00    +0.000 A 
ATOM     24  C   UNL     1       1.500  12.347  19.419  0.00  0.00    +0.000 A 
ATOM     25  C   UNL     1       0.610  11.303  19.115  0.00  0.00    +0.000 A 
ENDBRANCH  14  25
ENDBRANCH   1  15
TORSDOF 3
ENDMDL
