MODEL 1
REMARK VINA RESULT:      -7.8      0.000      0.000
REMARK  Name = 
REMARK  2 active torsions:
REMARK  status: ('A' for Active; 'I' for Inactive)
REMARK    1  A    between atoms: C_2  and  C_3
REMARK    2  A    between atoms: C_2  and  C_9
REMARK                            x       y       z     vdW  Elec       q    Type
REMARK                         _______ _______ _______ _____ _____    ______ ____
ROOT
ATOM      1  C   UNL     1       4.151   4.257  16.802  0.00  0.00    +0.000 C 
ATOM      2  C   UNL     1       3.814   5.598  17.434  0.00  0.00    +0.000 C 
ATOM      3  N   UNL     1       2.720   5.652  18.373  0.00  0.00    +0.000 NA
ATOM      4  C   UNL     1       2.418   4.559  19.000  0.00  0.00    +0.000 C 
ATOM      5  C   UNL     1       1.615   4.807  20.237  0.00  0.00    +0.000 C 
ATOM      6  C   UNL     1       1.350   3.760  21.025  0.00  0.00    +0.000 C 
ATOM      7  C   UNL     1       1.646   2.407  20.591  0.00  0.00    +0.000 C 
ATOM      8  C   UNL     1       2.372   2.218  19.487  0.00  0.00    +0.000 C 
ATOM      9  N   UNL     1       2.835   3.269  18.692  0.00  0.00    +0.000 N 
ATOM     10  C   UNL     1       3.912   3.056  17.723  0.00  0.00    +0.000 C 
ENDROOT
BRANCH   1  12
ATOM     11  O   UNL     1       6.145   3.640  15.580  0.00  0.00    +0.000 OA
ATOM     12  C   UNL     1       5.631   4.374  16.418  0.00  0.00    +0.000 C 
BRANCH  12  13
ATOM     13  C   UNL     1       6.528   5.328  17.173  0.00  0.00    +0.000 A 
ATOM     14  C   UNL     1       7.071   4.906  18.392  0.00  0.00    +0.000 A 
ATOM     15  C   UNL     1       7.869   5.774  19.139  0.00  0.00    +0.000 A 
ATOM     16  C   UNL     1       8.135   7.062  18.673  0.00  0.00    +0.000 A 
ATOM     17  C   UNL     1       7.596   7.488  17.467  0.00  0.00    +0.000 A 
ATOM     18  C   UNL     1       6.794   6.624  16.714  0.00  0.00    +0.000 A 
ENDBRANCH  12  13
ENDBRANCH   1  12
TORSDOF 2
ENDMDL
MODEL 2
REMARK VINA RESULT:      -7.8      2.117      3.156
REMARK  Name = 
REMARK  2 active torsions:
REMARK  status: ('A' for Active; 'I' for Inactive)
REMARK    1  A    between atoms: C_2  and  C_3
REMARK    2  A    between atoms: C_2  and  C_9
REMARK                            x       y       z     vdW  Elec       q    Type
REMARK                         _______ _______ _______ _____ _____    ______ ____
ROOT
ATOM      1  C   UNL     1       4.415   4.857  16.664  0.00  0.00    +0.000 C 
ATOM      2  C   UNL     1       4.555   5.933  17.728  0.00  0.00    +0.000 C 
ATOM      3  N   UNL     1       3.477   6.100  18.673  0.00  0.00    +0.000 NA
ATOM      4  C   UNL     1       2.721   5.073  18.902  0.00  0.00    +0.000 C 
ATOM      5  C   UNL     1       1.955   5.195  20.181  0.00  0.00    +0.000 C 
ATOM      6  C   UNL     1       1.235   4.140  20.576  0.00  0.00    +0.000 C 
ATOM      7  C   UNL     1       1.034   3.004  19.695  0.00  0.00    +0.000 C 
ATOM      8  C   UNL     1       1.737   2.919  18.564  0.00  0.00    +0.000 C 
ATOM      9  N   UNL     1       2.643   3.902  18.156  0.00  0.00    +0.000 N 
ATOM     10  C   UNL     1       3.647   3.615  17.130  0.00  0.00    +0.000 C 
ENDROOT
BRANCH   1  12
ATOM     11  O   UNL     1       6.738   4.366  17.128  0.00  0.00    +0.000 OA
ATOM     12  C   UNL     1       5.858   4.503  16.284  0.00  0.00    +0.000 C 
BRANCH  12  13
ATOM     13  C   UNL     1       6.256   4.443  14.827  0.00  0.00    +0.000 A 
ATOM     14  C   UNL     1       5.526   3.609  13.973  0.00  0.00    +0.000 A 
ATOM     15  C   UNL     1       5.889   3.494  12.630  0.00  0.00    +0.000 A 
ATOM     16  C   UNL     1       6.975   4.214  12.131  0.00  0.00    +0.000 A 
ATOM     17  C   UNL     1       7.706   5.039  12.974  0.00  0.00    +0.000 A 
ATOM     18  C   UNL     1       7.348   5.158  14.321  0.00  0.00    +0.000 A 
ENDBRANCH  12  13
ENDBRANCH   1  12
TORSDOF 2
ENDMDL
MODEL 3
REMARK VINA RESULT:      -7.8      0.074      1.140
REMARK  Name = 
REMARK  2 active torsions:
REMARK  status: ('A' for Active; 'I' for Inactive)
REMARK    1  A    between atoms: C_2  and  C_3
REMARK    2  A    between atoms: C_2  and  C_9
REMARK                            x       y       z     vdW  Elec       q    Type
REMARK                         _______ _______ _______ _____ _____    ______ ____
ROOT
ATOM      1  C   UNL     1       4.145   4.295  16.810  0.00  0.00    +0.000 C 
ATOM      2  C   UNL     1       3.765   5.628  17.435  0.00  0.00    +0.000 C 
ATOM      3  N   UNL     1       2.653   5.656  18.355  0.00  0.00    +0.000 NA
ATOM      4  C   UNL     1       2.366   4.557  18.977  0.00  0.00    +0.000 C 
ATOM      5  C   UNL     1       1.536   4.786  20.199  0.00  0.00    +0.000 C 
ATOM      6  C   UNL     1       1.281   3.733  20.983  0.00  0.00    +0.000 C 
ATOM      7  C   UNL     1       1.617   2.387  20.555  0.00  0.00    +0.000 C 
ATOM      8  C   UNL     1       2.366   2.215  19.464  0.00  0.00    +0.000 C 
ATOM      9  N   UNL     1       2.819   3.276  18.677  0.00  0.00    +0.000 N 
ATOM     10  C   UNL     1       3.918   3.089  17.728  0.00  0.00    +0.000 C 
ENDROOT
BRANCH   1  12
ATOM     11  O   UNL     1       6.160   3.765  15.583  0.00  0.00    +0.000 OA
ATOM     12  C   UNL     1       5.629   4.447  16.453  0.00  0.00    +0.000 C 
BRANCH  12  13
ATOM     13  C   UNL     1       6.506   5.366  17.271  0.00  0.00    +0.000 A 
ATOM     14  C   UNL     1       6.767   6.649  16.778  0.00  0.00    +0.000 A 
ATOM     15  C   UNL     1       7.608   7.512  17.484  0.00  0.00    +0.000 A 
ATOM     16  C   UNL     1       8.185   7.103  18.686  0.00  0.00    +0.000 A 
ATOM     17  C   UNL     1       7.933   5.830  19.179  0.00  0.00    +0.000 A 
ATOM     18  C   UNL     1       7.093   4.961  18.476  0.00  0.00    +0.000 A 
ENDBRANCH  12  13
ENDBRANCH   1  12
TORSDOF 2
ENDMDL
MODEL 4
REMARK VINA RESULT:      -7.7      3.071      6.430
REMARK  Name = 
REMARK  2 active torsions:
REMARK  status: ('A' for Active; 'I' for Inactive)
REMARK    1  A    between atoms: C_2  and  C_3
REMARK    2  A    between atoms: C_2  and  C_9
REMARK                            x       y       z     vdW  Elec       q    Type
REMARK                         _______ _______ _______ _____ _____    ______ ____
ROOT
ATOM      1  C   UNL     1       5.819   4.487  16.756  0.00  0.00    +0.000 C 
ATOM      2  C   UNL     1       6.738   5.675  16.529  0.00  0.00    +0.000 C 
ATOM      3  N   UNL     1       7.587   5.666  15.361  0.00  0.00    +0.000 NA
ATOM      4  C   UNL     1       7.198   4.959  14.348  0.00  0.00    +0.000 C 
ATOM      5  C   UNL     1       7.870   5.360  13.074  0.00  0.00    +0.000 C 
ATOM      6  C   UNL     1       7.457   4.777  11.944  0.00  0.00    +0.000 C 
ATOM      7  C   UNL     1       6.543   3.649  11.978  0.00  0.00    +0.000 C 
ATOM      8  C   UNL     1       5.953   3.320  13.129  0.00  0.00    +0.000 C 
ATOM      9  N   UNL     1       6.202   3.989  14.330  0.00  0.00    +0.000 N 
ATOM     10  C   UNL     1       5.288   3.853  15.466  0.00  0.00    +0.000 C 
ENDROOT
BRANCH   1  12
ATOM     11  O   UNL     1       4.688   6.192  18.047  0.00  0.00    +0.000 OA
ATOM     12  C   UNL     1       4.673   5.045  17.610  0.00  0.00    +0.000 C 
BRANCH  12  13
ATOM     13  C   UNL     1       3.549   4.133  18.043  0.00  0.00    +0.000 A 
ATOM     14  C   UNL     1       2.233   4.523  17.767  0.00  0.00    +0.000 A 
ATOM     15  C   UNL     1       1.166   3.729  18.189  0.00  0.00    +0.000 A 
ATOM     16  C   UNL     1       1.404   2.540  18.879  0.00  0.00    +0.000 A 
ATOM     17  C   UNL     1       2.705   2.149  19.159  0.00  0.00    +0.000 A 
ATOM     18  C   UNL     1       3.779   2.942  18.741  0.00  0.00    +0.000 A 
ENDBRANCH  12  13
ENDBRANCH   1  12
TORSDOF 2
ENDMDL
MODEL 5
REMARK VINA RESULT:      -7.7      2.140      3.188
REMARK  Name = 
REMARK  2 active torsions:
REMARK  status: ('A' for Active; 'I' for Inactive)
REMARK    1  A    between atoms: C_2  and  C_3
REMARK    2  A    between atoms: C_2  and  C_9
REMARK                            x       y       z     vdW  Elec       q    Type
REMARK                         _______ _______ _______ _____ _____    ______ ____
ROOT
ATOM      1  C   UNL     1       4.533   4.864  16.684  0.00  0.00    +0.000 C 
ATOM      2  C   UNL     1       4.684   5.869  17.814  0.00  0.00    +0.000 C 
ATOM      3  N   UNL     1       3.599   6.002  18.756  0.00  0.00    +0.000 NA
ATOM      4  C   UNL     1       2.817   4.982  18.913  0.00  0.00    +0.000 C 
ATOM      5  C   UNL     1       2.039   5.042  20.189  0.00  0.00    +0.000 C 
ATOM      6  C   UNL     1       1.290   3.982  20.510  0.00  0.00    +0.000 C 
ATOM      7  C   UNL     1       1.074   2.907  19.558  0.00  0.00    +0.000 C 
ATOM      8  C   UNL     1       1.789   2.876  18.432  0.00  0.00    +0.000 C 
ATOM      9  N   UNL     1       2.721   3.861  18.095  0.00  0.00    +0.000 N 
ATOM     10  C   UNL     1       3.731   3.614  17.064  0.00  0.00    +0.000 C 
ENDROOT
BRANCH   1  12
ATOM     11  O   UNL     1       6.860   4.381  17.137  0.00  0.00    +0.000 OA
ATOM     12  C   UNL     1       5.972   4.500  16.298  0.00  0.00    +0.000 C 
BRANCH  12  13
ATOM     13  C   UNL     1       6.355   4.408  14.839  0.00  0.00    +0.000 A 
ATOM     14  C   UNL     1       7.455   5.150  14.392  0.00  0.00    +0.000 A 
ATOM     15  C   UNL     1       7.814   5.124  13.044  0.00  0.00    +0.000 A 
ATOM     16  C   UNL     1       7.085   4.354  12.136  0.00  0.00    +0.000 A 
ATOM     17  C   UNL     1       5.991   3.620  12.572  0.00  0.00    +0.000 A 
ATOM     18  C   UNL     1       5.625   3.642  13.922  0.00  0.00    +0.000 A 
ENDBRANCH  12  13
ENDBRANCH   1  12
TORSDOF 2
ENDMDL
MODEL 6
REMARK VINA RESULT:      -7.7      3.052      6.311
REMARK  Name = 
REMARK  2 active torsions:
REMARK  status: ('A' for Active; 'I' for Inactive)
REMARK    1  A    between atoms: C_2  and  C_3
REMARK    2  A    between atoms: C_2  and  C_9
REMARK                            x       y       z     vdW  Elec       q    Type
REMARK                         _______ _______ _______ _____ _____    ______ ____
ROOT
ATOM      1  C   UNL     1       5.776   4.542  16.788  0.00  0.00    +0.000 C 
ATOM      2  C   UNL     1       6.733   5.700  16.562  0.00  0.00    +0.000 C 
ATOM      3  N   UNL     1       7.588   5.660  15.400  0.00  0.00    +0.000 NA
ATOM      4  C   UNL     1       7.183   4.961  14.387  0.00  0.00    +0.000 C 
ATOM      5  C   UNL     1       7.876   5.336  13.115  0.00  0.00    +0.000 C 
ATOM      6  C   UNL     1       7.451   4.761  11.985  0.00  0.00    +0.000 C 
ATOM      7  C   UNL     1       6.503   3.662  12.019  0.00  0.00    +0.000 C 
ATOM      8  C   UNL     1       5.896   3.356  13.167  0.00  0.00    +0.000 C 
ATOM      9  N   UNL     1       6.157   4.022  14.367  0.00  0.00    +0.000 N 
ATOM     10  C   UNL     1       5.233   3.920  15.497  0.00  0.00    +0.000 C 
ENDROOT
BRANCH   1  12
ATOM     11  O   UNL     1       4.654   6.310  18.001  0.00  0.00    +0.000 OA
ATOM     12  C   UNL     1       4.643   5.139  17.633  0.00  0.00    +0.000 C 
BRANCH  12  13
ATOM     13  C   UNL     1       3.538   4.244  18.144  0.00  0.00    +0.000 A 
ATOM     14  C   UNL     1       3.888   3.125  18.909  0.00  0.00    +0.000 A 
ATOM     15  C   UNL     1       2.899   2.251  19.363  0.00  0.00    +0.000 A 
ATOM     16  C   UNL     1       1.558   2.491  19.064  0.00  0.00    +0.000 A 
ATOM     17  C   UNL     1       1.204   3.595  18.302  0.00  0.00    +0.000 A 
ATOM     18  C   UNL     1       2.190   4.474  17.843  0.00  0.00    +0.000 A 
ENDBRANCH  12  13
ENDBRANCH   1  12
TORSDOF 2
ENDMDL
MODEL 7
REMARK VINA RESULT:      -7.6      2.958      6.195
REMARK  Name = 
REMARK  2 active torsions:
REMARK  status: ('A' for Active; 'I' for Inactive)
REMARK    1  A    between atoms: C_2  and  C_3
REMARK    2  A    between atoms: C_2  and  C_9
REMARK                            x       y       z     vdW  Elec       q    Type
REMARK                         _______ _______ _______ _____ _____    ______ ____
ROOT
ATOM      1  C   UNL     1       5.285   5.041  16.795  0.00  0.00    +0.000 C 
ATOM      2  C   UNL     1       6.431   6.019  16.595  0.00  0.00    +0.000 C 
ATOM      3  N   UNL     1       7.385   5.743  15.548  0.00  0.00    +0.000 NA
ATOM      4  C   UNL     1       6.985   5.019  14.552  0.00  0.00    +0.000 C 
ATOM      5  C   UNL     1       7.856   5.166  13.345  0.00  0.00    +0.000 C 
ATOM      6  C   UNL     1       7.467   4.556  12.221  0.00  0.00    +0.000 C 
ATOM      7  C   UNL     1       6.360   3.618  12.227  0.00  0.00    +0.000 C 
ATOM      8  C   UNL     1       5.595   3.514  13.316  0.00  0.00    +0.000 C 
ATOM      9  N   UNL     1       5.832   4.244  14.484  0.00  0.00    +0.000 N 
ATOM     10  C   UNL     1       4.789   4.386  15.501  0.00  0.00    +0.000 C 
ENDROOT
BRANCH   1  12
ATOM     11  O   UNL     1       4.153   7.100  17.372  0.00  0.00    +0.000 OA
ATOM     12  C   UNL     1       4.178   5.875  17.452  0.00  0.00    +0.000 C 
BRANCH  12  13
ATOM     13  C   UNL     1       3.153   5.199  18.333  0.00  0.00    +0.000 A 
ATOM     14  C   UNL     1       3.215   5.419  19.714  0.00  0.00    +0.000 A 
ATOM     15  C   UNL     1       2.312   4.779  20.565  0.00  0.00    +0.000 A 
ATOM     16  C   UNL     1       1.341   3.924  20.044  0.00  0.00    +0.000 A 
ATOM     17  C   UNL     1       1.277   3.698  18.676  0.00  0.00    +0.000 A 
ATOM     18  C   UNL     1       2.179   4.336  17.819  0.00  0.00    +0.000 A 
ENDBRANCH  12  13
ENDBRANCH   1  12
TORSDOF 2
ENDMDL
MODEL 8
REMARK VINA RESULT:      -7.5      2.413      3.475
REMARK  Name = 
REMARK  2 active torsions:
REMARK  status: ('A' for Active; 'I' for Inactive)
REMARK    1  A    between atoms: C_2  and  C_3
REMARK    2  A    between atoms: C_2  and  C_9
REMARK                            x       y       z     vdW  Elec       q    Type
REMARK                         _______ _______ _______ _____ _____    ______ ____
ROOT
ATOM      1  C   UNL     1       5.596   5.321  16.871  0.00  0.00    +0.000 C 
ATOM      2  C   UNL     1       5.986   5.445  18.335  0.00  0.00    +0.000 C 
ATOM      3  N   UNL     1       4.931   5.474  19.319  0.00  0.00    +0.000 NA
ATOM      4  C   UNL     1       3.807   4.912  19.005  0.00  0.00    +0.000 C 
ATOM      5  C   UNL     1       2.967   4.594  20.201  0.00  0.00    +0.000 C 
ATOM      6  C   UNL     1       1.839   3.905  20.002  0.00  0.00    +0.000 C 
ATOM      7  C   UNL     1       1.343   3.660  18.660  0.00  0.00    +0.000 C 
ATOM      8  C   UNL     1       2.118   3.947  17.612  0.00  0.00    +0.000 C 
ATOM      9  N   UNL     1       3.388   4.517  17.739  0.00  0.00    +0.000 N 
ATOM     10  C   UNL     1       4.341   4.477  16.629  0.00  0.00    +0.000 C 
ENDROOT
BRANCH   1  12
ATOM     11  O   UNL     1       7.818   4.365  16.839  0.00  0.00    +0.000 OA
ATOM     12  C   UNL     1       6.824   4.693  16.199  0.00  0.00    +0.000 C 
BRANCH  12  13
ATOM     13  C   UNL     1       6.879   4.583  14.693  0.00  0.00    +0.000 A 
ATOM     14  C   UNL     1       6.079   3.620  14.067  0.00  0.00    +0.000 A 
ATOM     15  C   UNL     1       6.134   3.460  12.681  0.00  0.00    +0.000 A 
ATOM     16  C   UNL     1       6.980   4.261  11.914  0.00  0.00    +0.000 A 
ATOM     17  C   UNL     1       7.779   5.214  12.529  0.00  0.00    +0.000 A 
ATOM     18  C   UNL     1       7.730   5.379  13.917  0.00  0.00    +0.000 A 
ENDBRANCH  12  13
ENDBRANCH   1  12
TORSDOF 2
ENDMDL
MODEL 9
REMARK VINA RESULT:      -7.3      2.298      3.225
REMARK  Name = 
REMARK  2 active torsions:
REMARK  status: ('A' for Active; 'I' for Inactive)
REMARK    1  A    between atoms: C_2  and  C_3
REMARK    2  A    between atoms: C_2  and  C_9
REMARK                            x       y       z     vdW  Elec       q    Type
REMARK                         _______ _______ _______ _____ _____    ______ ____
ROOT
ATOM      1  C   UNL     1       4.265   3.545  17.112  0.00  0.00    +0.000 C 
ATOM      2  C   UNL     1       2.817   3.837  16.756  0.00  0.00    +0.000 C 
ATOM      3  N   UNL     1       1.785   3.316  17.620  0.00  0.00    +0.000 NA
ATOM      4  C   UNL     1       2.102   3.083  18.854  0.00  0.00    +0.000 C 
ATOM      5  C   UNL     1       0.908   2.990  19.749  0.00  0.00    +0.000 C 
ATOM      6  C   UNL     1       1.124   2.872  21.063  0.00  0.00    +0.000 C 
ATOM      7  C   UNL     1       2.459   2.629  21.579  0.00  0.00    +0.000 C 
ATOM      8  C   UNL     1       3.507   2.726  20.758  0.00  0.00    +0.000 C 
ATOM      9  N   UNL     1       3.381   3.016  19.396  0.00  0.00    +0.000 N 
ATOM     10  C   UNL     1       4.534   3.473  18.619  0.00  0.00    +0.000 C 
ENDROOT
BRANCH   1  12
ATOM     11  O   UNL     1       5.087   5.814  16.946  0.00  0.00    +0.000 OA
ATOM     12  C   UNL     1       5.058   4.686  16.463  0.00  0.00    +0.000 C 
BRANCH  12  13
ATOM     13  C   UNL     1       5.723   4.468  15.123  0.00  0.00    +0.000 A 
ATOM     14  C   UNL     1       6.957   5.084  14.887  0.00  0.00    +0.000 A 
ATOM     15  C   UNL     1       7.583   4.942  13.647  0.00  0.00    +0.000 A 
ATOM     16  C   UNL     1       6.986   4.181  12.641  0.00  0.00    +0.000 A 
ATOM     17  C   UNL     1       5.760   3.571  12.868  0.00  0.00    +0.000 A 
ATOM     18  C   UNL     1       5.128   3.711  14.108  0.00  0.00    +0.000 A 
ENDBRANCH  12  13
ENDBRANCH   1  12
TORSDOF 2
ENDMDL
