MODEL 1
REMARK VINA RESULT:      -8.1      0.000      0.000
REMARK  Name = 
REMARK  6 active torsions:
REMARK  status: ('A' for Active; 'I' for Inactive)
REMARK    1  A    between atoms: C_1  and  C_2
REMARK    2  A    between atoms: C_2  and  C_3
REMARK    3  A    between atoms: C_2  and  O_4
REMARK    4  A    between atoms: O_4  and  C_5
REMARK    5  A    between atoms: C_5  and  C_7
REMARK    6  A    between atoms: C_15  and  O_16
REMARK                            x       y       z     vdW  Elec       q    Type
REMARK                         _______ _______ _______ _____ _____    ______ ____
ROOT
ATOM      1  C   UNL     1       5.851   4.585  15.157  0.00  0.00    +0.000 A 
ATOM      2  C   UNL     1       5.234   3.550  15.843  0.00  0.00    +0.000 A 
ATOM      3  C   UNL     1       4.423   4.015  16.929  0.00  0.00    +0.000 A 
ATOM      4  C   UNL     1       4.443   5.388  17.003  0.00  0.00    +0.000 A 
ATOM      5  S   UNL     1       5.432   6.106  15.831  0.00  0.00    +0.000 S 
ATOM      6  C   UNL     1       3.721   6.173  17.968  0.00  0.00    +0.000 C 
ATOM      7  O   UNL     1       3.710   7.403  18.026  0.00  0.00    +0.000 OA
ATOM      8  C   UNL     1       2.930   5.404  18.965  0.00  0.00    +0.000 A 
ATOM      9  C   UNL     1       2.218   6.082  19.961  0.00  0.00    +0.000 A 
ATOM     10  C   UNL     1       1.486   5.377  20.911  0.00  0.00    +0.000 A 
ATOM     11  C   UNL     1       1.458   3.983  20.876  0.00  0.00    +0.000 A 
ATOM     12  C   UNL     1       2.160   3.292  19.885  0.00  0.00    +0.000 A 
ATOM     13  C   UNL     1       2.899   3.997  18.924  0.00  0.00    +0.000 A 
ATOM     14  C   UNL     1       3.643   3.230  17.874  0.00  0.00    +0.000 C 
ATOM     15  O   UNL     1       3.593   2.007  17.832  0.00  0.00    +0.000 OA
ENDROOT
BRANCH   1  16
ATOM     16  C   UNL     1       6.748   4.551  14.018  0.00  0.00    +0.000 C 
ATOM     17  O   UNL     1       7.492   5.457  13.657  0.00  0.00    +0.000 OA
BRANCH  16  18
ATOM     18  O   UNL     1       6.646   3.343  13.388  0.00  0.00    +0.000 OA
BRANCH  18  20
ATOM     19  C   UNL     1       7.051   2.245  11.266  0.00  0.00    +0.000 C 
ATOM     20  C   UNL     1       6.359   3.403  11.978  0.00  0.00    +0.000 C 
ATOM     21  C   UNL     1       4.848   3.296  11.805  0.00  0.00    +0.000 C 
ENDBRANCH  18  20
ENDBRANCH  16  18
ENDBRANCH   1  16
BRANCH   9  22
ATOM     22  O   UNL     1       2.187   7.448  20.074  0.00  0.00    +0.000 OA
ATOM     23  H   UNL     1       1.740   7.826  19.283  0.00  0.00    +0.000 HD
ENDBRANCH   9  22
TORSDOF 4
ENDMDL
MODEL 2
REMARK VINA RESULT:      -7.8      1.047      2.544
REMARK  Name = 
REMARK  6 active torsions:
REMARK  status: ('A' for Active; 'I' for Inactive)
REMARK    1  A    between atoms: C_1  and  C_2
REMARK    2  A    between atoms: C_2  and  C_3
REMARK    3  A    between atoms: C_2  and  O_4
REMARK    4  A    between atoms: O_4  and  C_5
REMARK    5  A    between atoms: C_5  and  C_7
REMARK    6  A    between atoms: C_15  and  O_16
REMARK                            x       y       z     vdW  Elec       q    Type
REMARK                         _______ _______ _______ _____ _____    ______ ____
ROOT
ATOM      1  C   UNL     1       5.963   4.816  15.079  0.00  0.00    +0.000 A 
ATOM      2  C   UNL     1       5.418   5.945  15.671  0.00  0.00    +0.000 A 
ATOM      3  C   UNL     1       4.610   5.633  16.813  0.00  0.00    +0.000 A 
ATOM      4  C   UNL     1       4.598   4.278  17.048  0.00  0.00    +0.000 A 
ATOM      5  S   UNL     1       5.497   3.394  15.917  0.00  0.00    +0.000 S 
ATOM      6  C   UNL     1       3.898   3.634  18.127  0.00  0.00    +0.000 C 
ATOM      7  O   UNL     1       3.902   2.426  18.363  0.00  0.00    +0.000 OA
ATOM      8  C   UNL     1       3.112   4.532  19.014  0.00  0.00    +0.000 A 
ATOM      9  C   UNL     1       2.374   3.993  20.074  0.00  0.00    +0.000 A 
ATOM     10  C   UNL     1       1.621   4.818  20.904  0.00  0.00    +0.000 A 
ATOM     11  C   UNL     1       1.597   6.195  20.682  0.00  0.00    +0.000 A 
ATOM     12  C   UNL     1       2.332   6.749  19.631  0.00  0.00    +0.000 A 
ATOM     13  C   UNL     1       3.094   5.923  18.792  0.00  0.00    +0.000 A 
ATOM     14  C   UNL     1       3.871   6.545  17.673  0.00  0.00    +0.000 C 
ATOM     15  O   UNL     1       3.867   7.757  17.499  0.00  0.00    +0.000 OA
ENDROOT
BRANCH   1  16
ATOM     16  C   UNL     1       6.820   4.689  13.915  0.00  0.00    +0.000 C 
ATOM     17  O   UNL     1       7.574   5.551  13.475  0.00  0.00    +0.000 OA
BRANCH  16  18
ATOM     18  O   UNL     1       6.666   3.449  13.365  0.00  0.00    +0.000 OA
BRANCH  18  20
ATOM     19  C   UNL     1       7.062   2.245  11.299  0.00  0.00    +0.000 C 
ATOM     20  C   UNL     1       6.363   3.430  11.957  0.00  0.00    +0.000 C 
ATOM     21  C   UNL     1       4.852   3.294  11.809  0.00  0.00    +0.000 C 
ENDBRANCH  18  20
ENDBRANCH  16  18
ENDBRANCH   1  16
BRANCH   9  22
ATOM     22  O   UNL     1       2.337   2.655  20.368  0.00  0.00    +0.000 OA
ATOM     23  H   UNL     1       1.414   2.401  20.600  0.00  0.00    +0.000 HD
ENDBRANCH   9  22
TORSDOF 4
ENDMDL
MODEL 3
REMARK VINA RESULT:      -7.6      0.780      1.093
REMARK  Name = 
REMARK  6 active torsions:
REMARK  status: ('A' for Active; 'I' for Inactive)
REMARK    1  A    between atoms: C_1  and  C_2
REMARK    2  A    between atoms: C_2  and  C_3
REMARK    3  A    between atoms: C_2  and  O_4
REMARK    4  A    between atoms: O_4  and  C_5
REMARK    5  A    between atoms: C_5  and  C_7
REMARK    6  A    between atoms: C_15  and  O_16
REMARK                            x       y       z     vdW  Elec       q    Type
REMARK                         _______ _______ _______ _____ _____    ______ ____
ROOT
ATOM      1  C   UNL     1       5.793   4.726  15.463  0.00  0.00    +0.000 A 
ATOM      2  C   UNL     1       5.282   3.545  15.979  0.00  0.00    +0.000 A 
ATOM      3  C   UNL     1       4.413   3.762  17.096  0.00  0.00    +0.000 A 
ATOM      4  C   UNL     1       4.286   5.105  17.365  0.00  0.00    +0.000 A 
ATOM      5  S   UNL     1       5.207   6.083  16.333  0.00  0.00    +0.000 S 
ATOM      6  C   UNL     1       3.472   5.664  18.411  0.00  0.00    +0.000 C 
ATOM      7  O   UNL     1       3.330   6.865  18.642  0.00  0.00    +0.000 OA
ATOM      8  C   UNL     1       2.756   4.682  19.267  0.00  0.00    +0.000 A 
ATOM      9  C   UNL     1       1.963   5.132  20.329  0.00  0.00    +0.000 A 
ATOM     10  C   UNL     1       1.299   4.225  21.150  0.00  0.00    +0.000 A 
ATOM     11  C   UNL     1       1.420   2.856  20.917  0.00  0.00    +0.000 A 
ATOM     12  C   UNL     1       2.204   2.391  19.858  0.00  0.00    +0.000 A 
ATOM     13  C   UNL     1       2.875   3.300  19.027  0.00  0.00    +0.000 A 
ATOM     14  C   UNL     1       3.710   2.773  17.900  0.00  0.00    +0.000 C 
ATOM     15  O   UNL     1       3.791   1.570  17.683  0.00  0.00    +0.000 OA
ENDROOT
BRANCH   1  16
ATOM     16  C   UNL     1       6.703   4.950  14.355  0.00  0.00    +0.000 C 
ATOM     17  O   UNL     1       7.891   5.242  14.444  0.00  0.00    +0.000 OA
BRANCH  16  18
ATOM     18  O   UNL     1       6.037   4.787  13.174  0.00  0.00    +0.000 OA
BRANCH  18  20
ATOM     19  C   UNL     1       4.730   3.216  11.871  0.00  0.00    +0.000 C 
ATOM     20  C   UNL     1       6.018   3.444  12.655  0.00  0.00    +0.000 C 
ATOM     21  C   UNL     1       7.224   3.283  11.736  0.00  0.00    +0.000 C 
ENDBRANCH  18  20
ENDBRANCH  16  18
ENDBRANCH   1  16
BRANCH   9  22
ATOM     22  O   UNL     1       1.785   6.457  20.634  0.00  0.00    +0.000 OA
ATOM     23  H   UNL     1       0.983   6.553  21.197  0.00  0.00    +0.000 HD
ENDBRANCH   9  22
TORSDOF 4
ENDMDL
MODEL 4
REMARK VINA RESULT:      -6.5      4.978      7.403
REMARK  Name = 
REMARK  6 active torsions:
REMARK  status: ('A' for Active; 'I' for Inactive)
REMARK    1  A    between atoms: C_1  and  C_2
REMARK    2  A    between atoms: C_2  and  C_3
REMARK    3  A    between atoms: C_2  and  O_4
REMARK    4  A    between atoms: O_4  and  C_5
REMARK    5  A    between atoms: C_5  and  C_7
REMARK    6  A    between atoms: C_15  and  O_16
REMARK                            x       y       z     vdW  Elec       q    Type
REMARK                         _______ _______ _______ _____ _____    ______ ____
ROOT
ATOM      1  C   UNL     1       2.102   8.061  18.961  0.00  0.00    +0.000 A 
ATOM      2  C   UNL     1       1.723   8.120  20.294  0.00  0.00    +0.000 A 
ATOM      3  C   UNL     1       0.824   9.202  20.564  0.00  0.00    +0.000 A 
ATOM      4  C   UNL     1       0.543   9.903  19.415  0.00  0.00    +0.000 A 
ATOM      5  S   UNL     1       1.357   9.311  18.053  0.00  0.00    +0.000 S 
ATOM      6  C   UNL     1      -0.339  11.037  19.335  0.00  0.00    +0.000 C 
ATOM      7  O   UNL     1      -0.619  11.655  18.309  0.00  0.00    +0.000 OA
ATOM      8  C   UNL     1      -0.948  11.474  20.620  0.00  0.00    +0.000 A 
ATOM      9  C   UNL     1      -1.797  12.586  20.645  0.00  0.00    +0.000 A 
ATOM     10  C   UNL     1      -2.361  13.018  21.842  0.00  0.00    +0.000 A 
ATOM     11  C   UNL     1      -2.083  12.339  23.029  0.00  0.00    +0.000 A 
ATOM     12  C   UNL     1      -1.242  11.225  23.019  0.00  0.00    +0.000 A 
ATOM     13  C   UNL     1      -0.670  10.785  21.816  0.00  0.00    +0.000 A 
ATOM     14  C   UNL     1       0.230   9.587  21.835  0.00  0.00    +0.000 C 
ATOM     15  O   UNL     1       0.449   8.979  22.876  0.00  0.00    +0.000 OA
ENDROOT
BRANCH   1  16
ATOM     16  C   UNL     1       2.991   7.139  18.279  0.00  0.00    +0.000 C 
ATOM     17  O   UNL     1       3.790   7.428  17.395  0.00  0.00    +0.000 OA
BRANCH  16  18
ATOM     18  O   UNL     1       2.808   5.877  18.768  0.00  0.00    +0.000 OA
BRANCH  18  20
ATOM     19  C   UNL     1       3.989   3.864  18.118  0.00  0.00    +0.000 C 
ATOM     20  C   UNL     1       2.850   4.822  17.790  0.00  0.00    +0.000 C 
ATOM     21  C   UNL     1       1.516   4.086  17.841  0.00  0.00    +0.000 C 
ENDBRANCH  18  20
ENDBRANCH  16  18
ENDBRANCH   1  16
BRANCH   9  22
ATOM     22  O   UNL     1      -2.127  13.314  19.532  0.00  0.00    +0.000 OA
ATOM     23  H   UNL     1      -3.016  13.715  19.661  0.00  0.00    +0.000 HD
ENDBRANCH   9  22
TORSDOF 4
ENDMDL
MODEL 5
REMARK VINA RESULT:      -6.5      3.421      5.645
REMARK  Name = 
REMARK  6 active torsions:
REMARK  status: ('A' for Active; 'I' for Inactive)
REMARK    1  A    between atoms: C_1  and  C_2
REMARK    2  A    between atoms: C_2  and  C_3
REMARK    3  A    between atoms: C_2  and  O_4
REMARK    4  A    between atoms: O_4  and  C_5
REMARK    5  A    between atoms: C_5  and  C_7
REMARK    6  A    between atoms: C_15  and  O_16
REMARK                            x       y       z     vdW  Elec       q    Type
REMARK                         _______ _______ _______ _____ _____    ______ ____
ROOT
ATOM      1  C   UNL     1       3.735   5.456  18.552  0.00  0.00    +0.000 A 
ATOM      2  C   UNL     1       3.500   6.633  17.858  0.00  0.00    +0.000 A 
ATOM      3  C   UNL     1       2.614   7.516  18.555  0.00  0.00    +0.000 A 
ATOM      4  C   UNL     1       2.233   6.977  19.761  0.00  0.00    +0.000 A 
ATOM      5  S   UNL     1       2.886   5.440  20.043  0.00  0.00    +0.000 S 
ATOM      6  C   UNL     1       1.362   7.615  20.712  0.00  0.00    +0.000 C 
ATOM      7  O   UNL     1       1.036   7.154  21.805  0.00  0.00    +0.000 OA
ATOM      8  C   UNL     1       0.827   8.943  20.308  0.00  0.00    +0.000 A 
ATOM      9  C   UNL     1      -0.052   9.626  21.157  0.00  0.00    +0.000 A 
ATOM     10  C   UNL     1      -0.574  10.862  20.787  0.00  0.00    +0.000 A 
ATOM     11  C   UNL     1      -0.222  11.430  19.562  0.00  0.00    +0.000 A 
ATOM     12  C   UNL     1       0.658  10.762  18.707  0.00  0.00    +0.000 A 
ATOM     13  C   UNL     1       1.188   9.516  19.074  0.00  0.00    +0.000 A 
ATOM     14  C   UNL     1       2.128   8.823  18.136  0.00  0.00    +0.000 C 
ATOM     15  O   UNL     1       2.454   9.338  17.074  0.00  0.00    +0.000 OA
ENDROOT
BRANCH   1  16
ATOM     16  C   UNL     1       4.552   4.308  18.204  0.00  0.00    +0.000 C 
ATOM     17  O   UNL     1       4.238   3.405  17.437  0.00  0.00    +0.000 OA
BRANCH  16  18
ATOM     18  O   UNL     1       5.744   4.376  18.867  0.00  0.00    +0.000 OA
BRANCH  18  20
ATOM     19  C   UNL     1       7.674   5.741  19.399  0.00  0.00    +0.000 C 
ATOM     20  C   UNL     1       6.711   5.285  18.309  0.00  0.00    +0.000 C 
ATOM     21  C   UNL     1       7.472   4.542  17.216  0.00  0.00    +0.000 C 
ENDBRANCH  18  20
ENDBRANCH  16  18
ENDBRANCH   1  16
BRANCH   9  22
ATOM     22  O   UNL     1      -0.453   9.148  22.376  0.00  0.00    +0.000 OA
ATOM     23  H   UNL     1      -1.420   9.303  22.481  0.00  0.00    +0.000 HD
ENDBRANCH   9  22
TORSDOF 4
ENDMDL
MODEL 6
REMARK VINA RESULT:      -6.5      3.492      5.556
REMARK  Name = 
REMARK  6 active torsions:
REMARK  status: ('A' for Active; 'I' for Inactive)
REMARK    1  A    between atoms: C_1  and  C_2
REMARK    2  A    between atoms: C_2  and  C_3
REMARK    3  A    between atoms: C_2  and  O_4
REMARK    4  A    between atoms: O_4  and  C_5
REMARK    5  A    between atoms: C_5  and  C_7
REMARK    6  A    between atoms: C_15  and  O_16
REMARK                            x       y       z     vdW  Elec       q    Type
REMARK                         _______ _______ _______ _____ _____    ______ ____
ROOT
ATOM      1  C   UNL     1       3.488   6.182  17.977  0.00  0.00    +0.000 A 
ATOM      2  C   UNL     1       3.213   7.454  17.499  0.00  0.00    +0.000 A 
ATOM      3  C   UNL     1       2.393   8.214  18.394  0.00  0.00    +0.000 A 
ATOM      4  C   UNL     1       2.100   7.489  19.525  0.00  0.00    +0.000 A 
ATOM      5  S   UNL     1       2.756   5.927  19.507  0.00  0.00    +0.000 S 
ATOM      6  C   UNL     1       1.311   7.966  20.630  0.00  0.00    +0.000 C 
ATOM      7  O   UNL     1       1.066   7.336  21.658  0.00  0.00    +0.000 OA
ATOM      8  C   UNL     1       0.761   9.340  20.486  0.00  0.00    +0.000 A 
ATOM      9  C   UNL     1      -0.042   9.878  21.498  0.00  0.00    +0.000 A 
ATOM     10  C   UNL     1      -0.577  11.156  21.371  0.00  0.00    +0.000 A 
ATOM     11  C   UNL     1      -0.314  11.912  20.229  0.00  0.00    +0.000 A 
ATOM     12  C   UNL     1       0.489  11.391  19.212  0.00  0.00    +0.000 A 
ATOM     13  C   UNL     1       1.033  10.103  19.334  0.00  0.00    +0.000 A 
ATOM     14  C   UNL     1       1.890   9.569  18.228  0.00  0.00    +0.000 C 
ATOM     15  O   UNL     1       2.139  10.248  17.239  0.00  0.00    +0.000 OA
ENDROOT
BRANCH   1  16
ATOM     16  C   UNL     1       4.263   5.106  17.389  0.00  0.00    +0.000 C 
ATOM     17  O   UNL     1       3.872   3.961  17.187  0.00  0.00    +0.000 OA
BRANCH  16  18
ATOM     18  O   UNL     1       5.516   5.555  17.085  0.00  0.00    +0.000 OA
BRANCH  18  20
ATOM     19  C   UNL     1       6.915   4.775  15.266  0.00  0.00    +0.000 C 
ATOM     20  C   UNL     1       6.462   4.538  16.703  0.00  0.00    +0.000 C 
ATOM     21  C   UNL     1       7.653   4.631  17.649  0.00  0.00    +0.000 C 
ENDBRANCH  18  20
ENDBRANCH  16  18
ENDBRANCH   1  16
BRANCH   9  22
ATOM     22  O   UNL     1      -0.353   9.210  22.653  0.00  0.00    +0.000 OA
ATOM     23  H   UNL     1       0.470   9.067  23.175  0.00  0.00    +0.000 HD
ENDBRANCH   9  22
TORSDOF 4
ENDMDL
MODEL 7
REMARK VINA RESULT:      -6.5      2.167      3.116
REMARK  Name = 
REMARK  6 active torsions:
REMARK  status: ('A' for Active; 'I' for Inactive)
REMARK    1  A    between atoms: C_1  and  C_2
REMARK    2  A    between atoms: C_2  and  C_3
REMARK    3  A    between atoms: C_2  and  O_4
REMARK    4  A    between atoms: O_4  and  C_5
REMARK    5  A    between atoms: C_5  and  C_7
REMARK    6  A    between atoms: C_15  and  O_16
REMARK                            x       y       z     vdW  Elec       q    Type
REMARK                         _______ _______ _______ _____ _____    ______ ____
ROOT
ATOM      1  C   UNL     1       5.072   5.395  16.894  0.00  0.00    +0.000 A 
ATOM      2  C   UNL     1       4.454   5.032  18.081  0.00  0.00    +0.000 A 
ATOM      3  C   UNL     1       3.561   6.041  18.568  0.00  0.00    +0.000 A 
ATOM      4  C   UNL     1       3.526   7.118  17.713  0.00  0.00    +0.000 A 
ATOM      5  S   UNL     1       4.557   6.949  16.381  0.00  0.00    +0.000 S 
ATOM      6  C   UNL     1       2.717   8.293  17.900  0.00  0.00    +0.000 C 
ATOM      7  O   UNL     1       2.657   9.250  17.128  0.00  0.00    +0.000 OA
ATOM      8  C   UNL     1       1.896   8.323  19.139  0.00  0.00    +0.000 A 
ATOM      9  C   UNL     1       1.100   9.438  19.420  0.00  0.00    +0.000 A 
ATOM     10  C   UNL     1       0.338   9.488  20.584  0.00  0.00    +0.000 A 
ATOM     11  C   UNL     1       0.364   8.421  21.481  0.00  0.00    +0.000 A 
ATOM     12  C   UNL     1       1.150   7.298  21.212  0.00  0.00    +0.000 A 
ATOM     13  C   UNL     1       1.920   7.241  20.041  0.00  0.00    +0.000 A 
ATOM     14  C   UNL     1       2.755   6.025  19.779  0.00  0.00    +0.000 C 
ATOM     15  O   UNL     1       2.754   5.079  20.557  0.00  0.00    +0.000 OA
ENDROOT
BRANCH   1  16
ATOM     16  C   UNL     1       6.038   4.678  16.083  0.00  0.00    +0.000 C 
ATOM     17  O   UNL     1       7.100   4.206  16.473  0.00  0.00    +0.000 OA
BRANCH  16  18
ATOM     18  O   UNL     1       5.590   4.604  14.794  0.00  0.00    +0.000 OA
BRANCH  18  20
ATOM     19  C   UNL     1       5.710   3.417  12.684  0.00  0.00    +0.000 C 
ATOM     20  C   UNL     1       6.496   3.989  13.859  0.00  0.00    +0.000 C 
ATOM     21  C   UNL     1       7.461   5.063  13.370  0.00  0.00    +0.000 C 
ENDBRANCH  18  20
ENDBRANCH  16  18
ENDBRANCH   1  16
BRANCH   9  22
ATOM     22  O   UNL     1       1.011  10.532  18.599  0.00  0.00    +0.000 OA
ATOM     23  H   UNL     1       0.451  11.216  19.033  0.00  0.00    +0.000 HD
ENDBRANCH   9  22
TORSDOF 4
ENDMDL
MODEL 8
REMARK VINA RESULT:      -6.4      3.696      7.868
REMARK  Name = 
REMARK  6 active torsions:
REMARK  status: ('A' for Active; 'I' for Inactive)
REMARK    1  A    between atoms: C_1  and  C_2
REMARK    2  A    between atoms: C_2  and  C_3
REMARK    3  A    between atoms: C_2  and  O_4
REMARK    4  A    between atoms: O_4  and  C_5
REMARK    5  A    between atoms: C_5  and  C_7
REMARK    6  A    between atoms: C_15  and  O_16
REMARK                            x       y       z     vdW  Elec       q    Type
REMARK                         _______ _______ _______ _____ _____    ______ ____
ROOT
ATOM      1  C   UNL     1       1.087   9.421  20.169  0.00  0.00    +0.000 A 
ATOM      2  C   UNL     1       1.766   9.203  18.981  0.00  0.00    +0.000 A 
ATOM      3  C   UNL     1       2.286   7.872  18.879  0.00  0.00    +0.000 A 
ATOM      4  C   UNL     1       1.957   7.131  19.990  0.00  0.00    +0.000 A 
ATOM      5  S   UNL     1       1.080   8.009  21.143  0.00  0.00    +0.000 S 
ATOM      6  C   UNL     1       2.310   5.752  20.197  0.00  0.00    +0.000 C 
ATOM      7  O   UNL     1       1.997   5.072  21.174  0.00  0.00    +0.000 OA
ATOM      8  C   UNL     1       3.121   5.124  19.120  0.00  0.00    +0.000 A 
ATOM      9  C   UNL     1       3.536   3.794  19.247  0.00  0.00    +0.000 A 
ATOM     10  C   UNL     1       4.309   3.196  18.256  0.00  0.00    +0.000 A 
ATOM     11  C   UNL     1       4.675   3.924  17.124  0.00  0.00    +0.000 A 
ATOM     12  C   UNL     1       4.265   5.252  16.981  0.00  0.00    +0.000 A 
ATOM     13  C   UNL     1       3.485   5.859  17.976  0.00  0.00    +0.000 A 
ATOM     14  C   UNL     1       3.060   7.284  17.796  0.00  0.00    +0.000 C 
ATOM     15  O   UNL     1       3.362   7.911  16.788  0.00  0.00    +0.000 OA
ENDROOT
BRANCH   1  16
ATOM     16  C   UNL     1       0.425  10.612  20.666  0.00  0.00    +0.000 C 
ATOM     17  O   UNL     1       0.954  11.525  21.293  0.00  0.00    +0.000 OA
BRANCH  16  18
ATOM     18  O   UNL     1      -0.899  10.575  20.334  0.00  0.00    +0.000 OA
BRANCH  18  20
ATOM     19  C   UNL     1      -1.772  10.373  18.082  0.00  0.00    +0.000 C 
ATOM     20  C   UNL     1      -1.263  11.324  19.159  0.00  0.00    +0.000 C 
ATOM     21  C   UNL     1      -2.363  12.304  19.554  0.00  0.00    +0.000 C 
ENDBRANCH  18  20
ENDBRANCH  16  18
ENDBRANCH   1  16
BRANCH   9  22
ATOM     22  O   UNL     1       3.224   3.002  20.322  0.00  0.00    +0.000 OA
ATOM     23  H   UNL     1       3.982   3.000  20.951  0.00  0.00    +0.000 HD
ENDBRANCH   9  22
TORSDOF 4
ENDMDL
MODEL 9
REMARK VINA RESULT:      -6.4      4.726      7.205
REMARK  Name = 
REMARK  6 active torsions:
REMARK  status: ('A' for Active; 'I' for Inactive)
REMARK    1  A    between atoms: C_1  and  C_2
REMARK    2  A    between atoms: C_2  and  C_3
REMARK    3  A    between atoms: C_2  and  O_4
REMARK    4  A    between atoms: O_4  and  C_5
REMARK    5  A    between atoms: C_5  and  C_7
REMARK    6  A    between atoms: C_15  and  O_16
REMARK                            x       y       z     vdW  Elec       q    Type
REMARK                         _______ _______ _______ _____ _____    ______ ____
ROOT
ATOM      1  C   UNL     1       2.411   6.402  19.584  0.00  0.00    +0.000 A 
ATOM      2  C   UNL     1       1.746   6.967  20.661  0.00  0.00    +0.000 A 
ATOM      3  C   UNL     1       1.390   8.336  20.434  0.00  0.00    +0.000 A 
ATOM      4  C   UNL     1       1.785   8.743  19.181  0.00  0.00    +0.000 A 
ATOM      5  S   UNL     1       2.590   7.535  18.308  0.00  0.00    +0.000 S 
ATOM      6  C   UNL     1       1.565  10.054  18.631  0.00  0.00    +0.000 C 
ATOM      7  O   UNL     1       1.889  10.420  17.501  0.00  0.00    +0.000 OA
ATOM      8  C   UNL     1       0.886  11.025  19.529  0.00  0.00    +0.000 A 
ATOM      9  C   UNL     1       0.655  12.334  19.091  0.00  0.00    +0.000 A 
ATOM     10  C   UNL     1       0.035  13.260  19.925  0.00  0.00    +0.000 A 
ATOM     11  C   UNL     1      -0.362  12.886  21.209  0.00  0.00    +0.000 A 
ATOM     12  C   UNL     1      -0.143  11.582  21.659  0.00  0.00    +0.000 A 
ATOM     13  C   UNL     1       0.481  10.644  20.823  0.00  0.00    +0.000 A 
ATOM     14  C   UNL     1       0.704   9.253  21.332  0.00  0.00    +0.000 C 
ATOM     15  O   UNL     1       0.330   8.922  22.450  0.00  0.00    +0.000 OA
ENDROOT
BRANCH   1  16
ATOM     16  C   UNL     1       2.944   5.065  19.408  0.00  0.00    +0.000 C 
ATOM     17  O   UNL     1       4.092   4.707  19.651  0.00  0.00    +0.000 OA
BRANCH  16  18
ATOM     18  O   UNL     1       1.969   4.242  18.920  0.00  0.00    +0.000 OA
BRANCH  18  20
ATOM     19  C   UNL     1       1.291   3.216  21.008  0.00  0.00    +0.000 C 
ATOM     20  C   UNL     1       1.827   2.981  19.600  0.00  0.00    +0.000 C 
ATOM     21  C   UNL     1       0.846   2.130  18.802  0.00  0.00    +0.000 C 
ENDBRANCH  18  20
ENDBRANCH  16  18
ENDBRANCH   1  16
BRANCH   9  22
ATOM     22  O   UNL     1       1.009  12.792  17.849  0.00  0.00    +0.000 OA
ATOM     23  H   UNL     1       0.959  13.775  17.841  0.00  0.00    +0.000 HD
ENDBRANCH   9  22
TORSDOF 4
ENDMDL
