MODEL 1
REMARK VINA RESULT:      -9.2      0.000      0.000
REMARK  Name = 
REMARK  5 active torsions:
REMARK  status: ('A' for Active; 'I' for Inactive)
REMARK    1  A    between atoms: S_2  and  C_4
REMARK    2  A    between atoms: S_2  and  N_25
REMARK    3  A    between atoms: N_11  and  C_12
REMARK    4  A    between atoms: N_21  and  C_22
REMARK    5  A    between atoms: C_28  and  O_29
REMARK                            x       y       z     vdW  Elec       q    Type
REMARK                         _______ _______ _______ _____ _____    ______ ____
ROOT
ATOM      1  C   UNL     1       5.531   5.063  17.240  0.00  0.00    +0.000 A 
ATOM      2  C   UNL     1       5.151   3.735  17.446  0.00  0.00    +0.000 A 
ATOM      3  C   UNL     1       3.989   3.431  18.172  0.00  0.00    +0.000 A 
ATOM      4  C   UNL     1       3.225   4.505  18.662  0.00  0.00    +0.000 A 
ATOM      5  C   UNL     1       3.616   5.836  18.487  0.00  0.00    +0.000 A 
ATOM      6  C   UNL     1       4.794   6.126  17.775  0.00  0.00    +0.000 A 
ATOM      7  C   UNL     1       2.587   6.609  19.090  0.00  0.00    +0.000 A 
ATOM      8  N   UNL     1       2.583   7.967  19.095  0.00  0.00    +0.000 N 
ATOM      9  N   UNL     1       1.638   5.835  19.609  0.00  0.00    +0.000 NA
ATOM     10  N   UNL     1       2.022   4.583  19.332  0.00  0.00    +0.000 N 
ATOM     11  H   UNL     1       3.439   8.471  18.900  0.00  0.00    +0.000 HD
ENDROOT
BRANCH   8  12
ATOM     12  C   UNL     1       1.445   8.798  19.150  0.00  0.00    +0.000 A 
ATOM     13  C   UNL     1       0.898   9.315  17.966  0.00  0.00    +0.000 A 
ATOM     14  C   UNL     1      -0.163  10.226  18.014  0.00  0.00    +0.000 A 
ATOM     15  C   UNL     1      -0.680  10.619  19.244  0.00  0.00    +0.000 A 
ATOM     16  F   UNL     1      -1.683  11.505  19.284  0.00  0.00    +0.000 F 
ATOM     17  C   UNL     1      -0.154  10.104  20.420  0.00  0.00    +0.000 A 
ATOM     18  F   UNL     1      -0.656  10.474  21.607  0.00  0.00    +0.000 F 
ATOM     19  C   UNL     1       0.898   9.205  20.376  0.00  0.00    +0.000 A 
ENDBRANCH   8  12
BRANCH   1  21
ATOM     20  O   UNL     1       7.197   6.879  16.440  0.00  0.00    +0.000 OA
ATOM     21  S   UNL     1       6.981   5.457  16.293  0.00  0.00    +0.000 S 
ATOM     22  O   UNL     1       8.018   4.497  16.609  0.00  0.00    +0.000 OA
BRANCH  21  23
ATOM     23  N   UNL     1       6.486   5.152  14.662  0.00  0.00    +0.000 NA
ATOM     24  C   UNL     1       5.568   3.980  14.524  0.00  0.00    +0.000 C 
ATOM     25  C   UNL     1       5.079   3.848  13.086  0.00  0.00    +0.000 C 
ATOM     26  C   UNL     1       6.236   3.766  12.095  0.00  0.00    +0.000 C 
ATOM     27  C   UNL     1       7.202   4.929  12.291  0.00  0.00    +0.000 C 
ATOM     28  C   UNL     1       7.658   5.062  13.739  0.00  0.00    +0.000 C 
BRANCH  26  29
ATOM     29  O   UNL     1       6.910   2.515  12.201  0.00  0.00    +0.000 OA
ATOM     30  H   UNL     1       6.281   1.817  12.454  0.00  0.00    +0.000 HD
ENDBRANCH  26  29
ENDBRANCH  21  23
ENDBRANCH   1  21
BRANCH  10  31
ATOM     31  C   UNL     1       1.159   3.454  19.643  0.00  0.00    +0.000 C 
ATOM     32  C   UNL     1       1.715   2.059  19.899  0.00  0.00    +0.000 C 
ATOM     33  C   UNL     1       1.174   2.844  21.041  0.00  0.00    +0.000 C 
ENDBRANCH  10  31
TORSDOF 5
ENDMDL
MODEL 2
REMARK VINA RESULT:      -9.1      0.545      1.228
REMARK  Name = 
REMARK  5 active torsions:
REMARK  status: ('A' for Active; 'I' for Inactive)
REMARK    1  A    between atoms: S_2  and  C_4
REMARK    2  A    between atoms: S_2  and  N_25
REMARK    3  A    between atoms: N_11  and  C_12
REMARK    4  A    between atoms: N_21  and  C_22
REMARK    5  A    between atoms: C_28  and  O_29
REMARK                            x       y       z     vdW  Elec       q    Type
REMARK                         _______ _______ _______ _____ _____    ______ ____
ROOT
ATOM      1  C   UNL     1       5.514   5.100  17.223  0.00  0.00    +0.000 A 
ATOM      2  C   UNL     1       5.112   3.782  17.455  0.00  0.00    +0.000 A 
ATOM      3  C   UNL     1       3.942   3.511  18.180  0.00  0.00    +0.000 A 
ATOM      4  C   UNL     1       3.191   4.607  18.644  0.00  0.00    +0.000 A 
ATOM      5  C   UNL     1       3.603   5.927  18.443  0.00  0.00    +0.000 A 
ATOM      6  C   UNL     1       4.790   6.184  17.732  0.00  0.00    +0.000 A 
ATOM      7  C   UNL     1       2.583   6.729  19.023  0.00  0.00    +0.000 A 
ATOM      8  N   UNL     1       2.600   8.086  19.000  0.00  0.00    +0.000 N 
ATOM      9  N   UNL     1       1.620   5.979  19.553  0.00  0.00    +0.000 NA
ATOM     10  N   UNL     1       1.986   4.716  19.305  0.00  0.00    +0.000 N 
ATOM     11  H   UNL     1       3.464   8.573  18.799  0.00  0.00    +0.000 HD
ENDROOT
BRANCH   8  12
ATOM     12  C   UNL     1       1.474   8.935  19.031  0.00  0.00    +0.000 A 
ATOM     13  C   UNL     1       1.058   9.503  20.244  0.00  0.00    +0.000 A 
ATOM     14  C   UNL     1      -0.118  10.258  20.308  0.00  0.00    +0.000 A 
ATOM     15  C   UNL     1      -0.877  10.450  19.159  0.00  0.00    +0.000 A 
ATOM     16  F   UNL     1      -2.011  11.158  19.229  0.00  0.00    +0.000 F 
ATOM     17  C   UNL     1      -0.469   9.903  17.951  0.00  0.00    +0.000 A 
ATOM     18  F   UNL     1      -1.194  10.092  16.839  0.00  0.00    +0.000 F 
ATOM     19  C   UNL     1       0.693   9.152  17.886  0.00  0.00    +0.000 A 
ENDBRANCH   8  12
BRANCH   1  21
ATOM     20  O   UNL     1       7.222   6.870  16.411  0.00  0.00    +0.000 OA
ATOM     21  S   UNL     1       6.975   5.452  16.277  0.00  0.00    +0.000 S 
ATOM     22  O   UNL     1       7.989   4.472  16.606  0.00  0.00    +0.000 OA
BRANCH  21  23
ATOM     23  N   UNL     1       6.477   5.142  14.647  0.00  0.00    +0.000 NA
ATOM     24  C   UNL     1       5.567   3.963  14.513  0.00  0.00    +0.000 C 
ATOM     25  C   UNL     1       5.075   3.827  13.076  0.00  0.00    +0.000 C 
ATOM     26  C   UNL     1       6.229   3.752  12.083  0.00  0.00    +0.000 C 
ATOM     27  C   UNL     1       7.188   4.921  12.275  0.00  0.00    +0.000 C 
ATOM     28  C   UNL     1       7.647   5.059  13.722  0.00  0.00    +0.000 C 
BRANCH  26  29
ATOM     29  O   UNL     1       6.911   2.506  12.188  0.00  0.00    +0.000 OA
ATOM     30  H   UNL     1       6.726   2.095  13.050  0.00  0.00    +0.000 HD
ENDBRANCH  26  29
ENDBRANCH  21  23
ENDBRANCH   1  21
BRANCH  10  31
ATOM     31  C   UNL     1       1.105   3.608  19.634  0.00  0.00    +0.000 C 
ATOM     32  C   UNL     1       1.628   2.190  19.832  0.00  0.00    +0.000 C 
ATOM     33  C   UNL     1       1.170   2.965  21.016  0.00  0.00    +0.000 C 
ENDBRANCH  10  31
TORSDOF 5
ENDMDL
MODEL 3
REMARK VINA RESULT:      -8.8      4.991      8.504
REMARK  Name = 
REMARK  5 active torsions:
REMARK  status: ('A' for Active; 'I' for Inactive)
REMARK    1  A    between atoms: S_2  and  C_4
REMARK    2  A    between atoms: S_2  and  N_25
REMARK    3  A    between atoms: N_11  and  C_12
REMARK    4  A    between atoms: N_21  and  C_22
REMARK    5  A    between atoms: C_28  and  O_29
REMARK                            x       y       z     vdW  Elec       q    Type
REMARK                         _______ _______ _______ _____ _____    ______ ____
ROOT
ATOM      1  C   UNL     1       1.038   9.209  20.033  0.00  0.00    +0.000 A 
ATOM      2  C   UNL     1       0.649   8.521  21.185  0.00  0.00    +0.000 A 
ATOM      3  C   UNL     1       1.030   7.184  21.378  0.00  0.00    +0.000 A 
ATOM      4  C   UNL     1       1.822   6.580  20.385  0.00  0.00    +0.000 A 
ATOM      5  C   UNL     1       2.189   7.253  19.216  0.00  0.00    +0.000 A 
ATOM      6  C   UNL     1       1.783   8.587  19.025  0.00  0.00    +0.000 A 
ATOM      7  C   UNL     1       2.995   6.332  18.493  0.00  0.00    +0.000 A 
ATOM      8  N   UNL     1       3.579   6.630  17.304  0.00  0.00    +0.000 N 
ATOM      9  N   UNL     1       3.116   5.178  19.143  0.00  0.00    +0.000 NA
ATOM     10  N   UNL     1       2.426   5.345  20.278  0.00  0.00    +0.000 N 
ATOM     11  H   UNL     1       3.251   7.423  16.768  0.00  0.00    +0.000 HD
ENDROOT
BRANCH   8  12
ATOM     12  C   UNL     1       4.766   6.064  16.793  0.00  0.00    +0.000 A 
ATOM     13  C   UNL     1       6.012   6.550  17.215  0.00  0.00    +0.000 A 
ATOM     14  C   UNL     1       7.194   6.073  16.636  0.00  0.00    +0.000 A 
ATOM     15  C   UNL     1       7.131   5.106  15.638  0.00  0.00    +0.000 A 
ATOM     16  F   UNL     1       8.263   4.666  15.075  0.00  0.00    +0.000 F 
ATOM     17  C   UNL     1       5.904   4.610  15.222  0.00  0.00    +0.000 A 
ATOM     18  F   UNL     1       5.840   3.672  14.266  0.00  0.00    +0.000 F 
ATOM     19  C   UNL     1       4.733   5.083  15.790  0.00  0.00    +0.000 A 
ENDBRANCH   8  12
BRANCH   1  21
ATOM     20  O   UNL     1       0.682  11.547  21.092  0.00  0.00    +0.000 OA
ATOM     21  S   UNL     1       0.589  10.912  19.797  0.00  0.00    +0.000 S 
ATOM     22  O   UNL     1       1.306  11.426  18.648  0.00  0.00    +0.000 OA
BRANCH  21  23
ATOM     23  N   UNL     1      -1.083  10.824  19.356  0.00  0.00    +0.000 NA
ATOM     24  C   UNL     1      -1.334  10.032  18.114  0.00  0.00    +0.000 C 
ATOM     25  C   UNL     1      -2.832   9.896  17.859  0.00  0.00    +0.000 C 
ATOM     26  C   UNL     1      -3.526  11.252  17.800  0.00  0.00    +0.000 C 
ATOM     27  C   UNL     1      -3.207  12.079  19.040  0.00  0.00    +0.000 C 
ATOM     28  C   UNL     1      -1.707  12.181  19.296  0.00  0.00    +0.000 C 
BRANCH  26  29
ATOM     29  O   UNL     1      -3.174  11.954  16.611  0.00  0.00    +0.000 OA
ATOM     30  H   UNL     1      -3.955  12.054  16.039  0.00  0.00    +0.000 HD
ENDBRANCH  26  29
ENDBRANCH  21  23
ENDBRANCH   1  21
BRANCH  10  31
ATOM     31  C   UNL     1       2.434   4.321  21.310  0.00  0.00    +0.000 C 
ATOM     32  C   UNL     1       1.376   3.227  21.371  0.00  0.00    +0.000 C 
ATOM     33  C   UNL     1       2.758   2.875  20.949  0.00  0.00    +0.000 C 
ENDBRANCH  10  31
TORSDOF 5
ENDMDL
MODEL 4
REMARK VINA RESULT:      -8.5      4.946      8.497
REMARK  Name = 
REMARK  5 active torsions:
REMARK  status: ('A' for Active; 'I' for Inactive)
REMARK    1  A    between atoms: S_2  and  C_4
REMARK    2  A    between atoms: S_2  and  N_25
REMARK    3  A    between atoms: N_11  and  C_12
REMARK    4  A    between atoms: N_21  and  C_22
REMARK    5  A    between atoms: C_28  and  O_29
REMARK                            x       y       z     vdW  Elec       q    Type
REMARK                         _______ _______ _______ _____ _____    ______ ____
ROOT
ATOM      1  C   UNL     1       0.941   9.324  20.066  0.00  0.00    +0.000 A 
ATOM      2  C   UNL     1       0.536   8.601  21.190  0.00  0.00    +0.000 A 
ATOM      3  C   UNL     1       0.939   7.268  21.364  0.00  0.00    +0.000 A 
ATOM      4  C   UNL     1       1.769   6.703  20.379  0.00  0.00    +0.000 A 
ATOM      5  C   UNL     1       2.153   7.409  19.236  0.00  0.00    +0.000 A 
ATOM      6  C   UNL     1       1.725   8.739  19.064  0.00  0.00    +0.000 A 
ATOM      7  C   UNL     1       2.996   6.522  18.513  0.00  0.00    +0.000 A 
ATOM      8  N   UNL     1       3.606   6.858  17.348  0.00  0.00    +0.000 N 
ATOM      9  N   UNL     1       3.124   5.356  19.141  0.00  0.00    +0.000 NA
ATOM     10  N   UNL     1       2.401   5.483  20.260  0.00  0.00    +0.000 N 
ATOM     11  H   UNL     1       3.275   7.656  16.822  0.00  0.00    +0.000 HD
ENDROOT
BRANCH   8  12
ATOM     12  C   UNL     1       4.817   6.328  16.856  0.00  0.00    +0.000 A 
ATOM     13  C   UNL     1       4.945   6.020  15.494  0.00  0.00    +0.000 A 
ATOM     14  C   UNL     1       6.100   5.394  15.013  0.00  0.00    +0.000 A 
ATOM     15  C   UNL     1       7.130   5.077  15.892  0.00  0.00    +0.000 A 
ATOM     16  F   UNL     1       8.225   4.461  15.430  0.00  0.00    +0.000 F 
ATOM     17  C   UNL     1       7.018   5.387  17.240  0.00  0.00    +0.000 A 
ATOM     18  F   UNL     1       8.012   5.091  18.090  0.00  0.00    +0.000 F 
ATOM     19  C   UNL     1       5.875   6.004  17.719  0.00  0.00    +0.000 A 
ENDBRANCH   8  12
BRANCH   1  21
ATOM     20  O   UNL     1       0.557  11.641  21.158  0.00  0.00    +0.000 OA
ATOM     21  S   UNL     1       0.464  11.022  19.855  0.00  0.00    +0.000 S 
ATOM     22  O   UNL     1       1.164  11.563  18.709  0.00  0.00    +0.000 OA
BRANCH  21  23
ATOM     23  N   UNL     1      -1.210  10.914  19.426  0.00  0.00    +0.000 NA
ATOM     24  C   UNL     1      -1.458  10.135  18.174  0.00  0.00    +0.000 C 
ATOM     25  C   UNL     1      -2.955   9.980  17.928  0.00  0.00    +0.000 C 
ATOM     26  C   UNL     1      -3.670  11.326  17.894  0.00  0.00    +0.000 C 
ATOM     27  C   UNL     1      -3.355  12.140  19.143  0.00  0.00    +0.000 C 
ATOM     28  C   UNL     1      -1.855  12.261  19.389  0.00  0.00    +0.000 C 
BRANCH  26  29
ATOM     29  O   UNL     1      -3.339  12.049  16.712  0.00  0.00    +0.000 OA
ATOM     30  H   UNL     1      -3.552  12.991  16.826  0.00  0.00    +0.000 HD
ENDBRANCH  26  29
ENDBRANCH  21  23
ENDBRANCH   1  21
BRANCH  10  31
ATOM     31  C   UNL     1       2.402   4.436  21.269  0.00  0.00    +0.000 C 
ATOM     32  C   UNL     1       1.370   3.315  21.272  0.00  0.00    +0.000 C 
ATOM     33  C   UNL     1       2.773   3.007  20.886  0.00  0.00    +0.000 C 
ENDBRANCH  10  31
TORSDOF 5
ENDMDL
MODEL 5
REMARK VINA RESULT:      -8.4      5.103      9.075
REMARK  Name = 
REMARK  5 active torsions:
REMARK  status: ('A' for Active; 'I' for Inactive)
REMARK    1  A    between atoms: S_2  and  C_4
REMARK    2  A    between atoms: S_2  and  N_25
REMARK    3  A    between atoms: N_11  and  C_12
REMARK    4  A    between atoms: N_21  and  C_22
REMARK    5  A    between atoms: C_28  and  O_29
REMARK                            x       y       z     vdW  Elec       q    Type
REMARK                         _______ _______ _______ _____ _____    ______ ____
ROOT
ATOM      1  C   UNL     1       1.076   9.619  20.198  0.00  0.00    +0.000 A 
ATOM      2  C   UNL     1       0.555   8.906  21.280  0.00  0.00    +0.000 A 
ATOM      3  C   UNL     1       0.799   7.531  21.411  0.00  0.00    +0.000 A 
ATOM      4  C   UNL     1       1.594   6.911  20.430  0.00  0.00    +0.000 A 
ATOM      5  C   UNL     1       2.093   7.611  19.328  0.00  0.00    +0.000 A 
ATOM      6  C   UNL     1       1.823   8.986  19.197  0.00  0.00    +0.000 A 
ATOM      7  C   UNL     1       2.855   6.661  18.596  0.00  0.00    +0.000 A 
ATOM      8  N   UNL     1       3.538   6.968  17.463  0.00  0.00    +0.000 N 
ATOM      9  N   UNL     1       2.829   5.465  19.179  0.00  0.00    +0.000 NA
ATOM     10  N   UNL     1       2.088   5.632  20.281  0.00  0.00    +0.000 N 
ATOM     11  H   UNL     1       3.317   7.818  16.960  0.00  0.00    +0.000 HD
ENDROOT
BRANCH   8  12
ATOM     12  C   UNL     1       4.698   6.322  16.987  0.00  0.00    +0.000 A 
ATOM     13  C   UNL     1       5.965   6.804  17.345  0.00  0.00    +0.000 A 
ATOM     14  C   UNL     1       7.121   6.240  16.793  0.00  0.00    +0.000 A 
ATOM     15  C   UNL     1       7.011   5.192  15.886  0.00  0.00    +0.000 A 
ATOM     16  F   UNL     1       8.119   4.669  15.346  0.00  0.00    +0.000 F 
ATOM     17  C   UNL     1       5.762   4.700  15.533  0.00  0.00    +0.000 A 
ATOM     18  F   UNL     1       5.653   3.684  14.665  0.00  0.00    +0.000 F 
ATOM     19  C   UNL     1       4.617   5.258  16.075  0.00  0.00    +0.000 A 
ENDBRANCH   8  12
BRANCH   1  21
ATOM     20  O   UNL     1       1.460  11.991  21.167  0.00  0.00    +0.000 OA
ATOM     21  S   UNL     1       0.801  11.367  20.043  0.00  0.00    +0.000 S 
ATOM     22  O   UNL     1       1.090  11.764  18.680  0.00  0.00    +0.000 OA
BRANCH  21  23
ATOM     23  N   UNL     1      -0.910  11.520  20.265  0.00  0.00    +0.000 NA
ATOM     24  C   UNL     1      -1.637  11.954  19.033  0.00  0.00    +0.000 C 
ATOM     25  C   UNL     1      -3.144  11.948  19.270  0.00  0.00    +0.000 C 
ATOM     26  C   UNL     1      -3.535  12.799  20.473  0.00  0.00    +0.000 C 
ATOM     27  C   UNL     1      -2.737  12.395  21.707  0.00  0.00    +0.000 C 
ATOM     28  C   UNL     1      -1.236  12.379  21.444  0.00  0.00    +0.000 C 
BRANCH  26  29
ATOM     29  O   UNL     1      -3.374  14.186  20.190  0.00  0.00    +0.000 OA
ATOM     30  H   UNL     1      -3.363  14.332  19.228  0.00  0.00    +0.000 HD
ENDBRANCH  26  29
ENDBRANCH  21  23
ENDBRANCH   1  21
BRANCH  10  31
ATOM     31  C   UNL     1       1.938   4.556  21.246  0.00  0.00    +0.000 C 
ATOM     32  C   UNL     1       1.173   3.279  20.920  0.00  0.00    +0.000 C 
ATOM     33  C   UNL     1       2.656   3.228  21.027  0.00  0.00    +0.000 C 
ENDBRANCH  10  31
TORSDOF 5
ENDMDL
MODEL 6
REMARK VINA RESULT:      -8.4      5.097      9.093
REMARK  Name = 
REMARK  5 active torsions:
REMARK  status: ('A' for Active; 'I' for Inactive)
REMARK    1  A    between atoms: S_2  and  C_4
REMARK    2  A    between atoms: S_2  and  N_25
REMARK    3  A    between atoms: N_11  and  C_12
REMARK    4  A    between atoms: N_21  and  C_22
REMARK    5  A    between atoms: C_28  and  O_29
REMARK                            x       y       z     vdW  Elec       q    Type
REMARK                         _______ _______ _______ _____ _____    ______ ____
ROOT
ATOM      1  C   UNL     1       1.023   9.828  20.218  0.00  0.00    +0.000 A 
ATOM      2  C   UNL     1       0.490   9.072  21.264  0.00  0.00    +0.000 A 
ATOM      3  C   UNL     1       0.743   7.695  21.350  0.00  0.00    +0.000 A 
ATOM      4  C   UNL     1       1.560   7.118  20.361  0.00  0.00    +0.000 A 
ATOM      5  C   UNL     1       2.071   7.861  19.293  0.00  0.00    +0.000 A 
ATOM      6  C   UNL     1       1.792   9.237  19.208  0.00  0.00    +0.000 A 
ATOM      7  C   UNL     1       2.854   6.944  18.541  0.00  0.00    +0.000 A 
ATOM      8  N   UNL     1       3.554   7.297  17.433  0.00  0.00    +0.000 N 
ATOM      9  N   UNL     1       2.829   5.728  19.080  0.00  0.00    +0.000 NA
ATOM     10  N   UNL     1       2.067   5.849  20.174  0.00  0.00    +0.000 N 
ATOM     11  H   UNL     1       3.334   8.162  16.956  0.00  0.00    +0.000 HD
ENDROOT
BRANCH   8  12
ATOM     12  C   UNL     1       4.727   6.678  16.953  0.00  0.00    +0.000 A 
ATOM     13  C   UNL     1       4.740   6.095  15.678  0.00  0.00    +0.000 A 
ATOM     14  C   UNL     1       5.860   5.384  15.233  0.00  0.00    +0.000 A 
ATOM     15  C   UNL     1       6.970   5.258  16.062  0.00  0.00    +0.000 A 
ATOM     16  F   UNL     1       8.032   4.561  15.640  0.00  0.00    +0.000 F 
ATOM     17  C   UNL     1       6.972   5.840  17.321  0.00  0.00    +0.000 A 
ATOM     18  F   UNL     1       8.043   5.728  18.120  0.00  0.00    +0.000 F 
ATOM     19  C   UNL     1       5.864   6.542  17.765  0.00  0.00    +0.000 A 
ENDBRANCH   8  12
BRANCH   1  21
ATOM     20  O   UNL     1       1.394  12.169  21.263  0.00  0.00    +0.000 OA
ATOM     21  S   UNL     1       0.736  11.578  20.120  0.00  0.00    +0.000 S 
ATOM     22  O   UNL     1       1.018  12.021  18.771  0.00  0.00    +0.000 OA
BRANCH  21  23
ATOM     23  N   UNL     1      -0.975  11.713  20.353  0.00  0.00    +0.000 NA
ATOM     24  C   UNL     1      -1.711  12.168  19.134  0.00  0.00    +0.000 C 
ATOM     25  C   UNL     1      -3.216  12.145  19.376  0.00  0.00    +0.000 C 
ATOM     26  C   UNL     1      -3.609  12.965  20.600  0.00  0.00    +0.000 C 
ATOM     27  C   UNL     1      -2.804  12.539  21.822  0.00  0.00    +0.000 C 
ATOM     28  C   UNL     1      -1.303  12.541  21.552  0.00  0.00    +0.000 C 
BRANCH  26  29
ATOM     29  O   UNL     1      -3.461  14.360  20.348  0.00  0.00    +0.000 OA
ATOM     30  H   UNL     1      -3.135  14.503  19.443  0.00  0.00    +0.000 HD
ENDBRANCH  26  29
ENDBRANCH  21  23
ENDBRANCH   1  21
BRANCH  10  31
ATOM     31  C   UNL     1       1.910   4.737  21.098  0.00  0.00    +0.000 C 
ATOM     32  C   UNL     1       1.104   3.495  20.737  0.00  0.00    +0.000 C 
ATOM     33  C   UNL     1       2.587   3.402  20.808  0.00  0.00    +0.000 C 
ENDBRANCH  10  31
TORSDOF 5
ENDMDL
MODEL 7
REMARK VINA RESULT:      -8.2      5.023      8.313
REMARK  Name = 
REMARK  5 active torsions:
REMARK  status: ('A' for Active; 'I' for Inactive)
REMARK    1  A    between atoms: S_2  and  C_4
REMARK    2  A    between atoms: S_2  and  N_25
REMARK    3  A    between atoms: N_11  and  C_12
REMARK    4  A    between atoms: N_21  and  C_22
REMARK    5  A    between atoms: C_28  and  O_29
REMARK                            x       y       z     vdW  Elec       q    Type
REMARK                         _______ _______ _______ _____ _____    ______ ____
ROOT
ATOM      1  C   UNL     1       1.005   9.580  19.923  0.00  0.00    +0.000 A 
ATOM      2  C   UNL     1       0.525   8.908  21.050  0.00  0.00    +0.000 A 
ATOM      3  C   UNL     1       0.831   7.554  21.256  0.00  0.00    +0.000 A 
ATOM      4  C   UNL     1       1.644   6.915  20.302  0.00  0.00    +0.000 A 
ATOM      5  C   UNL     1       2.100   7.571  19.156  0.00  0.00    +0.000 A 
ATOM      6  C   UNL     1       1.769   8.924  18.951  0.00  0.00    +0.000 A 
ATOM      7  C   UNL     1       2.897   6.615  18.470  0.00  0.00    +0.000 A 
ATOM      8  N   UNL     1       3.555   6.887  17.314  0.00  0.00    +0.000 N 
ATOM      9  N   UNL     1       2.930   5.455  19.120  0.00  0.00    +0.000 NA
ATOM     10  N   UNL     1       2.192   5.652  20.219  0.00  0.00    +0.000 N 
ATOM     11  H   UNL     1       3.292   7.696  16.766  0.00  0.00    +0.000 HD
ENDROOT
BRANCH   8  12
ATOM     12  C   UNL     1       4.738   6.266  16.861  0.00  0.00    +0.000 A 
ATOM     13  C   UNL     1       5.987   6.768  17.253  0.00  0.00    +0.000 A 
ATOM     14  C   UNL     1       7.166   6.230  16.725  0.00  0.00    +0.000 A 
ATOM     15  C   UNL     1       7.097   5.186  15.808  0.00  0.00    +0.000 A 
ATOM     16  F   UNL     1       8.228   4.687  15.292  0.00  0.00    +0.000 F 
ATOM     17  C   UNL     1       5.867   4.674  15.423  0.00  0.00    +0.000 A 
ATOM     18  F   UNL     1       5.797   3.662  14.545  0.00  0.00    +0.000 F 
ATOM     19  C   UNL     1       4.699   5.207  15.940  0.00  0.00    +0.000 A 
ENDBRANCH   8  12
BRANCH   1  21
ATOM     20  O   UNL     1       0.233  11.829  20.951  0.00  0.00    +0.000 OA
ATOM     21  S   UNL     1       0.651  11.302  19.672  0.00  0.00    +0.000 S 
ATOM     22  O   UNL     1       1.741  11.897  18.928  0.00  0.00    +0.000 OA
BRANCH  21  23
ATOM     23  N   UNL     1      -0.727  11.275  18.622  0.00  0.00    +0.000 NA
ATOM     24  C   UNL     1      -2.023  11.510  19.329  0.00  0.00    +0.000 C 
ATOM     25  C   UNL     1      -3.171  11.594  18.329  0.00  0.00    +0.000 C 
ATOM     26  C   UNL     1      -3.242  10.360  17.436  0.00  0.00    +0.000 C 
ATOM     27  C   UNL     1      -1.895  10.090  16.774  0.00  0.00    +0.000 C 
ATOM     28  C   UNL     1      -0.756  10.037  17.786  0.00  0.00    +0.000 C 
BRANCH  26  29
ATOM     29  O   UNL     1      -3.689   9.225  18.171  0.00  0.00    +0.000 OA
ATOM     30  H   UNL     1      -4.657   9.146  18.109  0.00  0.00    +0.000 HD
ENDBRANCH  26  29
ENDBRANCH  21  23
ENDBRANCH   1  21
BRANCH  10  31
ATOM     31  C   UNL     1       2.099   4.627  21.246  0.00  0.00    +0.000 C 
ATOM     32  C   UNL     1       1.236   3.384  21.070  0.00  0.00    +0.000 C 
ATOM     33  C   UNL     1       2.716   3.252  21.011  0.00  0.00    +0.000 C 
ENDBRANCH  10  31
TORSDOF 5
ENDMDL
MODEL 8
REMARK VINA RESULT:      -8.1      6.852     11.577
REMARK  Name = 
REMARK  5 active torsions:
REMARK  status: ('A' for Active; 'I' for Inactive)
REMARK    1  A    between atoms: S_2  and  C_4
REMARK    2  A    between atoms: S_2  and  N_25
REMARK    3  A    between atoms: N_11  and  C_12
REMARK    4  A    between atoms: N_21  and  C_22
REMARK    5  A    between atoms: C_28  and  O_29
REMARK                            x       y       z     vdW  Elec       q    Type
REMARK                         _______ _______ _______ _____ _____    ______ ____
ROOT
ATOM      1  C   UNL     1      -2.198  13.244  21.160  0.00  0.00    +0.000 A 
ATOM      2  C   UNL     1      -3.392  13.227  20.435  0.00  0.00    +0.000 A 
ATOM      3  C   UNL     1      -3.529  12.406  19.305  0.00  0.00    +0.000 A 
ATOM      4  C   UNL     1      -2.434  11.597  18.949  0.00  0.00    +0.000 A 
ATOM      5  C   UNL     1      -1.226  11.631  19.650  0.00  0.00    +0.000 A 
ATOM      6  C   UNL     1      -1.095  12.476  20.769  0.00  0.00    +0.000 A 
ATOM      7  C   UNL     1      -0.396  10.671  19.012  0.00  0.00    +0.000 A 
ATOM      8  N   UNL     1       0.862  10.380  19.430  0.00  0.00    +0.000 N 
ATOM      9  N   UNL     1      -1.022  10.091  17.991  0.00  0.00    +0.000 NA
ATOM     10  N   UNL     1      -2.242  10.640  17.975  0.00  0.00    +0.000 N 
ATOM     11  H   UNL     1       1.346  11.020  20.047  0.00  0.00    +0.000 HD
ENDROOT
BRANCH   8  12
ATOM     12  C   UNL     1       1.535   9.152  19.259  0.00  0.00    +0.000 A 
ATOM     13  C   UNL     1       2.211   8.884  18.060  0.00  0.00    +0.000 A 
ATOM     14  C   UNL     1       2.790   7.630  17.836  0.00  0.00    +0.000 A 
ATOM     15  C   UNL     1       2.697   6.643  18.812  0.00  0.00    +0.000 A 
ATOM     16  F   UNL     1       3.237   5.439  18.585  0.00  0.00    +0.000 F 
ATOM     17  C   UNL     1       2.041   6.902  20.007  0.00  0.00    +0.000 A 
ATOM     18  F   UNL     1       1.957   5.956  20.954  0.00  0.00    +0.000 F 
ATOM     19  C   UNL     1       1.465   8.141  20.230  0.00  0.00    +0.000 A 
ENDBRANCH   8  12
BRANCH   1  21
ATOM     20  O   UNL     1      -0.898  13.736  23.346  0.00  0.00    +0.000 OA
ATOM     21  S   UNL     1      -2.029  14.255  22.610  0.00  0.00    +0.000 S 
ATOM     22  O   UNL     1      -2.101  15.647  22.217  0.00  0.00    +0.000 OA
BRANCH  21  23
ATOM     23  N   UNL     1      -3.467  13.904  23.509  0.00  0.00    +0.000 NA
ATOM     24  C   UNL     1      -3.635  12.453  23.827  0.00  0.00    +0.000 C 
ATOM     25  C   UNL     1      -4.852  12.239  24.720  0.00  0.00    +0.000 C 
ATOM     26  C   UNL     1      -6.120  12.823  24.107  0.00  0.00    +0.000 C 
ATOM     27  C   UNL     1      -5.915  14.283  23.723  0.00  0.00    +0.000 C 
ATOM     28  C   UNL     1      -4.679  14.483  22.854  0.00  0.00    +0.000 C 
BRANCH  26  29
ATOM     29  O   UNL     1      -6.546  12.052  22.987  0.00  0.00    +0.000 OA
ATOM     30  H   UNL     1      -6.932  12.633  22.309  0.00  0.00    +0.000 HD
ENDBRANCH  26  29
ENDBRANCH  21  23
ENDBRANCH   1  21
BRANCH  10  31
ATOM     31  C   UNL     1      -3.263  10.158  17.058  0.00  0.00    +0.000 C 
ATOM     32  C   UNL     1      -4.257  11.099  16.389  0.00  0.00    +0.000 C 
ATOM     33  C   UNL     1      -3.173  10.491  15.572  0.00  0.00    +0.000 C 
ENDBRANCH  10  31
TORSDOF 5
ENDMDL
MODEL 9
REMARK VINA RESULT:      -8.1      4.981      8.304
REMARK  Name = 
REMARK  5 active torsions:
REMARK  status: ('A' for Active; 'I' for Inactive)
REMARK    1  A    between atoms: S_2  and  C_4
REMARK    2  A    between atoms: S_2  and  N_25
REMARK    3  A    between atoms: N_11  and  C_12
REMARK    4  A    between atoms: N_21  and  C_22
REMARK    5  A    between atoms: C_28  and  O_29
REMARK                            x       y       z     vdW  Elec       q    Type
REMARK                         _______ _______ _______ _____ _____    ______ ____
ROOT
ATOM      1  C   UNL     1       0.879   9.733  19.973  0.00  0.00    +0.000 A 
ATOM      2  C   UNL     1       0.362   9.021  21.058  0.00  0.00    +0.000 A 
ATOM      3  C   UNL     1       0.671   7.663  21.231  0.00  0.00    +0.000 A 
ATOM      4  C   UNL     1       1.525   7.062  20.289  0.00  0.00    +0.000 A 
ATOM      5  C   UNL     1       2.020   7.759  19.183  0.00  0.00    +0.000 A 
ATOM      6  C   UNL     1       1.686   9.115  19.010  0.00  0.00    +0.000 A 
ATOM      7  C   UNL     1       2.851   6.831  18.498  0.00  0.00    +0.000 A 
ATOM      8  N   UNL     1       3.551   7.146  17.378  0.00  0.00    +0.000 N 
ATOM      9  N   UNL     1       2.868   5.651  19.111  0.00  0.00    +0.000 NA
ATOM     10  N   UNL     1       2.087   5.806  20.186  0.00  0.00    +0.000 N 
ATOM     11  H   UNL     1       3.302   7.971  16.847  0.00  0.00    +0.000 HD
ENDROOT
BRANCH   8  12
ATOM     12  C   UNL     1       4.755   6.548  16.951  0.00  0.00    +0.000 A 
ATOM     13  C   UNL     1       4.769   5.745  15.802  0.00  0.00    +0.000 A 
ATOM     14  C   UNL     1       5.931   5.060  15.429  0.00  0.00    +0.000 A 
ATOM     15  C   UNL     1       7.081   5.180  16.203  0.00  0.00    +0.000 A 
ATOM     16  F   UNL     1       8.184   4.507  15.852  0.00  0.00    +0.000 F 
ATOM     17  C   UNL     1       7.081   5.981  17.336  0.00  0.00    +0.000 A 
ATOM     18  F   UNL     1       8.189   6.105  18.080  0.00  0.00    +0.000 F 
ATOM     19  C   UNL     1       5.932   6.657  17.709  0.00  0.00    +0.000 A 
ENDBRANCH   8  12
BRANCH   1  21
ATOM     20  O   UNL     1       0.103  11.954  21.057  0.00  0.00    +0.000 OA
ATOM     21  S   UNL     1       0.521  11.460  19.765  0.00  0.00    +0.000 S 
ATOM     22  O   UNL     1       1.609  12.076  19.034  0.00  0.00    +0.000 OA
BRANCH  21  23
ATOM     23  N   UNL     1      -0.858  11.456  18.716  0.00  0.00    +0.000 NA
ATOM     24  C   UNL     1      -2.159  11.606  19.438  0.00  0.00    +0.000 C 
ATOM     25  C   UNL     1      -3.312  11.717  18.446  0.00  0.00    +0.000 C 
ATOM     26  C   UNL     1      -3.347  10.539  17.478  0.00  0.00    +0.000 C 
ATOM     27  C   UNL     1      -1.995  10.352  16.800  0.00  0.00    +0.000 C 
ATOM     28  C   UNL     1      -0.852  10.272  17.805  0.00  0.00    +0.000 C 
BRANCH  26  29
ATOM     29  O   UNL     1      -3.758   9.347  18.142  0.00  0.00    +0.000 OA
ATOM     30  H   UNL     1      -4.722   9.239  18.070  0.00  0.00    +0.000 HD
ENDBRANCH  26  29
ENDBRANCH  21  23
ENDBRANCH   1  21
BRANCH  10  31
ATOM     31  C   UNL     1       1.962   4.747  21.175  0.00  0.00    +0.000 C 
ATOM     32  C   UNL     1       1.186   3.466  20.893  0.00  0.00    +0.000 C 
ATOM     33  C   UNL     1       2.672   3.414  20.959  0.00  0.00    +0.000 C 
ENDBRANCH  10  31
TORSDOF 5
ENDMDL
