MODEL 1
REMARK VINA RESULT:      -6.5      0.000      0.000
REMARK  Name = 
REMARK  5 active torsions:
REMARK  status: ('A' for Active; 'I' for Inactive)
REMARK    1  A    between atoms: C_1  and  O_2
REMARK    2  A    between atoms: O_2  and  C_3
REMARK    3  A    between atoms: C_3  and  C_5
REMARK    4  A    between atoms: N_11  and  C_12
REMARK    5  A    between atoms: C_12  and  C_13
REMARK                            x       y       z     vdW  Elec       q    Type
REMARK                         _______ _______ _______ _____ _____    ______ ____
ROOT
ATOM      1  C   UNL     1       6.118   4.780  17.429  0.00  0.00    +0.000 A 
ATOM      2  N   UNL     1       5.615   4.988  16.147  0.00  0.00    +0.000 NA
ATOM      3  C   UNL     1       4.430   4.425  16.142  0.00  0.00    +0.000 A 
ATOM      4  N   UNL     1       4.132   3.869  17.356  0.00  0.00    +0.000 N 
ATOM      5  C   UNL     1       2.976   3.225  17.738  0.00  0.00    +0.000 A 
ATOM      6  O   UNL     1       2.048   3.113  16.950  0.00  0.00    +0.000 OA
ATOM      7  N   UNL     1       3.059   2.784  19.043  0.00  0.00    +0.000 N 
ATOM      8  N   UNL     1       4.138   2.996  19.873  0.00  0.00    +0.000 NA
ATOM      9  N   UNL     1       5.149   3.608  19.453  0.00  0.00    +0.000 NA
ATOM     10  C   UNL     1       5.198   4.070  18.186  0.00  0.00    +0.000 A 
ENDROOT
BRANCH   1  11
ATOM     11  C   UNL     1       7.422   5.269  17.874  0.00  0.00    +0.000 C 
ATOM     12  O   UNL     1       8.039   4.802  18.824  0.00  0.00    +0.000 OA
BRANCH  11  14
ATOM     13  C   UNL     1       7.631   7.603  17.680  0.00  0.00    +0.000 C 
ATOM     14  O   UNL     1       7.863   6.315  17.114  0.00  0.00    +0.000 OA
ENDBRANCH  11  14
ENDBRANCH   1  11
BRANCH   7  15
ATOM     15  C   UNL     1       1.915   2.101  19.641  0.00  0.00    +0.000 C 
BRANCH  15  16
ATOM     16  C   UNL     1       1.328   2.809  20.863  0.00  0.00    +0.000 C 
ATOM     17 CL   UNL     1       1.100   4.550  20.567  0.00  0.00    +0.000 Cl
ENDBRANCH  15  16
ENDBRANCH   7  15
TORSDOF 4
ENDMDL
MODEL 2
REMARK VINA RESULT:      -6.5      2.190      2.539
REMARK  Name = 
REMARK  5 active torsions:
REMARK  status: ('A' for Active; 'I' for Inactive)
REMARK    1  A    between atoms: C_1  and  O_2
REMARK    2  A    between atoms: O_2  and  C_3
REMARK    3  A    between atoms: C_3  and  C_5
REMARK    4  A    between atoms: N_11  and  C_12
REMARK    5  A    between atoms: C_12  and  C_13
REMARK                            x       y       z     vdW  Elec       q    Type
REMARK                         _______ _______ _______ _____ _____    ______ ____
ROOT
ATOM      1  C   UNL     1       5.601   5.116  16.995  0.00  0.00    +0.000 A 
ATOM      2  N   UNL     1       5.207   6.403  16.637  0.00  0.00    +0.000 NA
ATOM      3  C   UNL     1       4.244   6.718  17.471  0.00  0.00    +0.000 A 
ATOM      4  N   UNL     1       3.997   5.707  18.357  0.00  0.00    +0.000 N 
ATOM      5  C   UNL     1       3.088   5.684  19.392  0.00  0.00    +0.000 A 
ATOM      6  O   UNL     1       2.390   6.663  19.617  0.00  0.00    +0.000 OA
ATOM      7  N   UNL     1       3.117   4.474  20.056  0.00  0.00    +0.000 N 
ATOM      8  N   UNL     1       3.974   3.438  19.754  0.00  0.00    +0.000 NA
ATOM      9  N   UNL     1       4.786   3.544  18.804  0.00  0.00    +0.000 NA
ATOM     10  C   UNL     1       4.838   4.672  18.064  0.00  0.00    +0.000 A 
ENDROOT
BRANCH   1  11
ATOM     11  C   UNL     1       6.675   4.385  16.326  0.00  0.00    +0.000 C 
ATOM     12  O   UNL     1       7.863   4.510  16.604  0.00  0.00    +0.000 OA
BRANCH  11  14
ATOM     13  C   UNL     1       6.301   4.081  14.025  0.00  0.00    +0.000 C 
ATOM     14  O   UNL     1       6.201   3.558  15.348  0.00  0.00    +0.000 OA
ENDBRANCH  11  14
ENDBRANCH   1  11
BRANCH   7  15
ATOM     15  C   UNL     1       2.243   4.268  21.207  0.00  0.00    +0.000 C 
BRANCH  15  16
ATOM     16  C   UNL     1       1.365   3.018  21.115  0.00  0.00    +0.000 C 
ATOM     17 CL   UNL     1       0.606   2.866  19.511  0.00  0.00    +0.000 Cl
ENDBRANCH  15  16
ENDBRANCH   7  15
TORSDOF 4
ENDMDL
MODEL 3
REMARK VINA RESULT:      -6.5      2.288      2.561
REMARK  Name = 
REMARK  5 active torsions:
REMARK  status: ('A' for Active; 'I' for Inactive)
REMARK    1  A    between atoms: C_1  and  O_2
REMARK    2  A    between atoms: O_2  and  C_3
REMARK    3  A    between atoms: C_3  and  C_5
REMARK    4  A    between atoms: N_11  and  C_12
REMARK    5  A    between atoms: C_12  and  C_13
REMARK                            x       y       z     vdW  Elec       q    Type
REMARK                         _______ _______ _______ _____ _____    ______ ____
ROOT
ATOM      1  C   UNL     1       6.005   5.651  16.873  0.00  0.00    +0.000 A 
ATOM      2  N   UNL     1       5.576   6.869  16.352  0.00  0.00    +0.000 NA
ATOM      3  C   UNL     1       4.502   7.182  17.037  0.00  0.00    +0.000 A 
ATOM      4  N   UNL     1       4.213   6.235  17.980  0.00  0.00    +0.000 N 
ATOM      5  C   UNL     1       3.189   6.233  18.901  0.00  0.00    +0.000 A 
ATOM      6  O   UNL     1       2.408   7.173  18.952  0.00  0.00    +0.000 OA
ATOM      7  N   UNL     1       3.215   5.090  19.675  0.00  0.00    +0.000 N 
ATOM      8  N   UNL     1       4.167   4.098  19.572  0.00  0.00    +0.000 NA
ATOM      9  N   UNL     1       5.080   4.183  18.716  0.00  0.00    +0.000 NA
ATOM     10  C   UNL     1       5.148   5.244  17.884  0.00  0.00    +0.000 A 
ENDROOT
BRANCH   1  11
ATOM     11  C   UNL     1       7.197   4.947  16.403  0.00  0.00    +0.000 C 
ATOM     12  O   UNL     1       7.969   4.344  17.140  0.00  0.00    +0.000 OA
BRANCH  11  14
ATOM     13  C   UNL     1       6.531   4.175  14.286  0.00  0.00    +0.000 C 
ATOM     14  O   UNL     1       7.355   5.052  15.050  0.00  0.00    +0.000 OA
ENDBRANCH  11  14
ENDBRANCH   1  11
BRANCH   7  15
ATOM     15  C   UNL     1       2.223   4.919  20.732  0.00  0.00    +0.000 C 
BRANCH  15  16
ATOM     16  C   UNL     1       1.242   3.769  20.494  0.00  0.00    +0.000 C 
ATOM     17 CL   UNL     1       1.430   2.484  21.712  0.00  0.00    +0.000 Cl
ENDBRANCH  15  16
ENDBRANCH   7  15
TORSDOF 4
ENDMDL
MODEL 4
REMARK VINA RESULT:      -6.5      2.086      2.446
REMARK  Name = 
REMARK  5 active torsions:
REMARK  status: ('A' for Active; 'I' for Inactive)
REMARK    1  A    between atoms: C_1  and  O_2
REMARK    2  A    between atoms: O_2  and  C_3
REMARK    3  A    between atoms: C_3  and  C_5
REMARK    4  A    between atoms: N_11  and  C_12
REMARK    5  A    between atoms: C_12  and  C_13
REMARK                            x       y       z     vdW  Elec       q    Type
REMARK                         _______ _______ _______ _____ _____    ______ ____
ROOT
ATOM      1  C   UNL     1       5.924   5.513  16.518  0.00  0.00    +0.000 A 
ATOM      2  N   UNL     1       5.665   6.881  16.506  0.00  0.00    +0.000 NA
ATOM      3  C   UNL     1       4.483   7.018  17.059  0.00  0.00    +0.000 A 
ATOM      4  N   UNL     1       3.963   5.811  17.437  0.00  0.00    +0.000 N 
ATOM      5  C   UNL     1       2.767   5.560  18.073  0.00  0.00    +0.000 A 
ATOM      6  O   UNL     1       2.032   6.486  18.385  0.00  0.00    +0.000 OA
ATOM      7  N   UNL     1       2.582   4.206  18.273  0.00  0.00    +0.000 N 
ATOM      8  N   UNL     1       3.493   3.233  17.922  0.00  0.00    +0.000 NA
ATOM      9  N   UNL     1       4.569   3.547  17.359  0.00  0.00    +0.000 NA
ATOM     10  C   UNL     1       4.856   4.838  17.090  0.00  0.00    +0.000 A 
ENDROOT
BRANCH   1  11
ATOM     11  C   UNL     1       7.159   4.920  16.009  0.00  0.00    +0.000 C 
ATOM     12  O   UNL     1       7.965   4.315  16.707  0.00  0.00    +0.000 OA
BRANCH  11  14
ATOM     13  C   UNL     1       6.582   4.231  13.837  0.00  0.00    +0.000 C 
ATOM     14  O   UNL     1       7.313   5.130  14.668  0.00  0.00    +0.000 OA
ENDBRANCH  11  14
ENDBRANCH   1  11
BRANCH   7  15
ATOM     15  C   UNL     1       1.382   3.742  18.962  0.00  0.00    +0.000 C 
BRANCH  15  16
ATOM     16  C   UNL     1       1.577   2.458  19.771  0.00  0.00    +0.000 C 
ATOM     17 CL   UNL     1       1.312   2.732  21.511  0.00  0.00    +0.000 Cl
ENDBRANCH  15  16
ENDBRANCH   7  15
TORSDOF 4
ENDMDL
MODEL 5
REMARK VINA RESULT:      -6.5      1.341      1.463
REMARK  Name = 
REMARK  5 active torsions:
REMARK  status: ('A' for Active; 'I' for Inactive)
REMARK    1  A    between atoms: C_1  and  O_2
REMARK    2  A    between atoms: O_2  and  C_3
REMARK    3  A    between atoms: C_3  and  C_5
REMARK    4  A    between atoms: N_11  and  C_12
REMARK    5  A    between atoms: C_12  and  C_13
REMARK                            x       y       z     vdW  Elec       q    Type
REMARK                         _______ _______ _______ _____ _____    ______ ____
ROOT
ATOM      1  C   UNL     1       6.474   6.142  17.409  0.00  0.00    +0.000 A 
ATOM      2  N   UNL     1       5.887   6.384  16.169  0.00  0.00    +0.000 NA
ATOM      3  C   UNL     1       4.910   5.514  16.070  0.00  0.00    +0.000 A 
ATOM      4  N   UNL     1       4.825   4.724  17.182  0.00  0.00    +0.000 N 
ATOM      5  C   UNL     1       3.913   3.728  17.453  0.00  0.00    +0.000 A 
ATOM      6  O   UNL     1       3.027   3.473  16.650  0.00  0.00    +0.000 OA
ATOM      7  N   UNL     1       4.163   3.140  18.677  0.00  0.00    +0.000 N 
ATOM      8  N   UNL     1       5.168   3.527  19.538  0.00  0.00    +0.000 NA
ATOM      9  N   UNL     1       5.949   4.457  19.223  0.00  0.00    +0.000 NA
ATOM     10  C   UNL     1       5.820   5.095  18.042  0.00  0.00    +0.000 A 
ENDROOT
BRANCH   1  11
ATOM     11  C   UNL     1       7.600   6.911  17.933  0.00  0.00    +0.000 C 
ATOM     12  O   UNL     1       8.238   6.595  18.931  0.00  0.00    +0.000 OA
BRANCH  11  14
ATOM     13  C   UNL     1       8.193   9.185  17.945  0.00  0.00    +0.000 C 
ATOM     14  O   UNL     1       7.850   8.028  17.187  0.00  0.00    +0.000 OA
ENDBRANCH  11  14
ENDBRANCH   1  11
BRANCH   7  15
ATOM     15  C   UNL     1       3.282   2.080  19.155  0.00  0.00    +0.000 C 
BRANCH  15  16
ATOM     16  C   UNL     1       2.060   2.578  19.929  0.00  0.00    +0.000 C 
ATOM     17 CL   UNL     1       2.412   2.761  21.665  0.00  0.00    +0.000 Cl
ENDBRANCH  15  16
ENDBRANCH   7  15
TORSDOF 4
ENDMDL
MODEL 6
REMARK VINA RESULT:      -6.5      2.392      3.498
REMARK  Name = 
REMARK  5 active torsions:
REMARK  status: ('A' for Active; 'I' for Inactive)
REMARK    1  A    between atoms: C_1  and  O_2
REMARK    2  A    between atoms: O_2  and  C_3
REMARK    3  A    between atoms: C_3  and  C_5
REMARK    4  A    between atoms: N_11  and  C_12
REMARK    5  A    between atoms: C_12  and  C_13
REMARK                            x       y       z     vdW  Elec       q    Type
REMARK                         _______ _______ _______ _____ _____    ______ ____
ROOT
ATOM      1  C   UNL     1       6.744   4.561  15.781  0.00  0.00    +0.000 A 
ATOM      2  N   UNL     1       7.881   4.614  16.583  0.00  0.00    +0.000 NA
ATOM      3  C   UNL     1       7.439   4.589  17.818  0.00  0.00    +0.000 A 
ATOM      4  N   UNL     1       6.074   4.516  17.862  0.00  0.00    +0.000 N 
ATOM      5  C   UNL     1       5.260   4.440  18.969  0.00  0.00    +0.000 A 
ATOM      6  O   UNL     1       5.749   4.413  20.090  0.00  0.00    +0.000 OA
ATOM      7  N   UNL     1       3.927   4.398  18.608  0.00  0.00    +0.000 N 
ATOM      8  N   UNL     1       3.471   4.390  17.308  0.00  0.00    +0.000 NA
ATOM      9  N   UNL     1       4.281   4.445  16.352  0.00  0.00    +0.000 NA
ATOM     10  C   UNL     1       5.610   4.512  16.577  0.00  0.00    +0.000 A 
ENDROOT
BRANCH   1  11
ATOM     11  C   UNL     1       6.786   4.546  14.320  0.00  0.00    +0.000 C 
ATOM     12  O   UNL     1       7.398   5.367  13.646  0.00  0.00    +0.000 OA
BRANCH  11  14
ATOM     13  C   UNL     1       6.110   3.412  12.376  0.00  0.00    +0.000 C 
ATOM     14  O   UNL     1       6.055   3.518  13.796  0.00  0.00    +0.000 OA
ENDBRANCH  11  14
ENDBRANCH   1  11
BRANCH   7  15
ATOM     15  C   UNL     1       2.908   4.286  19.647  0.00  0.00    +0.000 C 
BRANCH  15  16
ATOM     16  C   UNL     1       2.605   2.850  20.079  0.00  0.00    +0.000 C 
ATOM     17 CL   UNL     1       1.433   2.801  21.419  0.00  0.00    +0.000 Cl
ENDBRANCH  15  16
ENDBRANCH   7  15
TORSDOF 4
ENDMDL
MODEL 7
REMARK VINA RESULT:      -6.4      1.280      1.297
REMARK  Name = 
REMARK  5 active torsions:
REMARK  status: ('A' for Active; 'I' for Inactive)
REMARK    1  A    between atoms: C_1  and  O_2
REMARK    2  A    between atoms: O_2  and  C_3
REMARK    3  A    between atoms: C_3  and  C_5
REMARK    4  A    between atoms: N_11  and  C_12
REMARK    5  A    between atoms: C_12  and  C_13
REMARK                            x       y       z     vdW  Elec       q    Type
REMARK                         _______ _______ _______ _____ _____    ______ ____
ROOT
ATOM      1  C   UNL     1       6.188   5.328  17.497  0.00  0.00    +0.000 A 
ATOM      2  N   UNL     1       6.128   4.662  16.275  0.00  0.00    +0.000 NA
ATOM      3  C   UNL     1       4.955   4.075  16.254  0.00  0.00    +0.000 A 
ATOM      4  N   UNL     1       4.246   4.329  17.396  0.00  0.00    +0.000 N 
ATOM      5  C   UNL     1       2.973   3.912  17.719  0.00  0.00    +0.000 A 
ATOM      6  O   UNL     1       2.328   3.240  16.927  0.00  0.00    +0.000 OA
ATOM      7  N   UNL     1       2.605   4.357  18.973  0.00  0.00    +0.000 N 
ATOM      8  N   UNL     1       3.390   5.152  19.781  0.00  0.00    +0.000 NA
ATOM      9  N   UNL     1       4.534   5.502  19.405  0.00  0.00    +0.000 NA
ATOM     10  C   UNL     1       5.016   5.112  18.207  0.00  0.00    +0.000 A 
ENDROOT
BRANCH   1  11
ATOM     11  C   UNL     1       7.329   6.136  17.921  0.00  0.00    +0.000 C 
ATOM     12  O   UNL     1       7.973   5.926  18.942  0.00  0.00    +0.000 OA
BRANCH  11  14
ATOM     13  C   UNL     1       7.842   8.416  17.670  0.00  0.00    +0.000 C 
ATOM     14  O   UNL     1       7.585   7.158  17.051  0.00  0.00    +0.000 OA
ENDBRANCH  11  14
ENDBRANCH   1  11
BRANCH   7  15
ATOM     15  C   UNL     1       1.274   4.042  19.482  0.00  0.00    +0.000 C 
BRANCH  15  16
ATOM     16  C   UNL     1       1.171   2.681  20.173  0.00  0.00    +0.000 C 
ATOM     17 CL   UNL     1       1.855   2.726  21.817  0.00  0.00    +0.000 Cl
ENDBRANCH  15  16
ENDBRANCH   7  15
TORSDOF 4
ENDMDL
MODEL 8
REMARK VINA RESULT:      -6.3      3.085      5.397
REMARK  Name = 
REMARK  5 active torsions:
REMARK  status: ('A' for Active; 'I' for Inactive)
REMARK    1  A    between atoms: C_1  and  O_2
REMARK    2  A    between atoms: O_2  and  C_3
REMARK    3  A    between atoms: C_3  and  C_5
REMARK    4  A    between atoms: N_11  and  C_12
REMARK    5  A    between atoms: C_12  and  C_13
REMARK                            x       y       z     vdW  Elec       q    Type
REMARK                         _______ _______ _______ _____ _____    ______ ____
ROOT
ATOM      1  C   UNL     1       4.351   3.256  18.805  0.00  0.00    +0.000 A 
ATOM      2  N   UNL     1       3.683   3.059  17.599  0.00  0.00    +0.000 NA
ATOM      3  C   UNL     1       4.142   3.986  16.791  0.00  0.00    +0.000 A 
ATOM      4  N   UNL     1       5.078   4.770  17.407  0.00  0.00    +0.000 N 
ATOM      5  C   UNL     1       5.798   5.816  16.872  0.00  0.00    +0.000 A 
ATOM      6  O   UNL     1       5.647   6.130  15.700  0.00  0.00    +0.000 OA
ATOM      7  N   UNL     1       6.638   6.377  17.814  0.00  0.00    +0.000 N 
ATOM      8  N   UNL     1       6.772   5.924  19.109  0.00  0.00    +0.000 NA
ATOM      9  N   UNL     1       6.090   4.953  19.514  0.00  0.00    +0.000 NA
ATOM     10  C   UNL     1       5.216   4.333  18.693  0.00  0.00    +0.000 A 
ENDROOT
BRANCH   1  11
ATOM     11  C   UNL     1       4.150   2.417  19.985  0.00  0.00    +0.000 C 
ATOM     12  O   UNL     1       5.054   1.826  20.565  0.00  0.00    +0.000 OA
BRANCH  11  14
ATOM     13  C   UNL     1       2.441   3.356  21.297  0.00  0.00    +0.000 C 
ATOM     14  O   UNL     1       2.836   2.361  20.356  0.00  0.00    +0.000 OA
ENDBRANCH  11  14
ENDBRANCH   1  11
BRANCH   7  15
ATOM     15  C   UNL     1       7.508   7.483  17.428  0.00  0.00    +0.000 C 
BRANCH  15  16
ATOM     16  C   UNL     1       8.420   7.987  18.548  0.00  0.00    +0.000 C 
ATOM     17 CL   UNL     1       8.697   9.742  18.430  0.00  0.00    +0.000 Cl
ENDBRANCH  15  16
ENDBRANCH   7  15
TORSDOF 4
ENDMDL
MODEL 9
REMARK VINA RESULT:      -6.3      2.469      3.512
REMARK  Name = 
REMARK  5 active torsions:
REMARK  status: ('A' for Active; 'I' for Inactive)
REMARK    1  A    between atoms: C_1  and  O_2
REMARK    2  A    between atoms: O_2  and  C_3
REMARK    3  A    between atoms: C_3  and  C_5
REMARK    4  A    between atoms: N_11  and  C_12
REMARK    5  A    between atoms: C_12  and  C_13
REMARK                            x       y       z     vdW  Elec       q    Type
REMARK                         _______ _______ _______ _____ _____    ______ ____
ROOT
ATOM      1  C   UNL     1       6.735   5.156  15.559  0.00  0.00    +0.000 A 
ATOM      2  N   UNL     1       7.481   6.086  16.279  0.00  0.00    +0.000 NA
ATOM      3  C   UNL     1       6.966   6.088  17.486  0.00  0.00    +0.000 A 
ATOM      4  N   UNL     1       5.929   5.204  17.591  0.00  0.00    +0.000 N 
ATOM      5  C   UNL     1       5.170   4.908  18.702  0.00  0.00    +0.000 A 
ATOM      6  O   UNL     1       5.407   5.455  19.770  0.00  0.00    +0.000 OA
ATOM      7  N   UNL     1       4.198   3.972  18.409  0.00  0.00    +0.000 N 
ATOM      8  N   UNL     1       4.034   3.376  17.177  0.00  0.00    +0.000 NA
ATOM      9  N   UNL     1       4.780   3.689  16.218  0.00  0.00    +0.000 NA
ATOM     10  C   UNL     1       5.754   4.610  16.373  0.00  0.00    +0.000 A 
ENDROOT
BRANCH   1  11
ATOM     11  C   UNL     1       6.991   4.824  14.159  0.00  0.00    +0.000 C 
ATOM     12  O   UNL     1       7.732   5.472  13.428  0.00  0.00    +0.000 OA
BRANCH  11  14
ATOM     13  C   UNL     1       6.295   3.493  12.352  0.00  0.00    +0.000 C 
ATOM     14  O   UNL     1       6.301   3.715  13.760  0.00  0.00    +0.000 OA
ENDBRANCH  11  14
ENDBRANCH   1  11
BRANCH   7  15
ATOM     15  C   UNL     1       3.310   3.507  19.469  0.00  0.00    +0.000 C 
BRANCH  15  16
ATOM     16  C   UNL     1       1.844   3.898  19.279  0.00  0.00    +0.000 C 
ATOM     17 CL   UNL     1       0.840   2.493  18.842  0.00  0.00    +0.000 Cl
ENDBRANCH  15  16
ENDBRANCH   7  15
TORSDOF 4
ENDMDL
