MODEL 1
REMARK VINA RESULT:      -7.5      0.000      0.000
REMARK  Name = 
REMARK  4 active torsions:
REMARK  status: ('A' for Active; 'I' for Inactive)
REMARK    1  A    between atoms: C_1  and  O_2
REMARK    2  A    between atoms: O_2  and  C_3
REMARK    3  A    between atoms: C_12  and  C_14
REMARK    4  A    between atoms: N_16  and  C_17
REMARK                            x       y       z     vdW  Elec       q    Type
REMARK                         _______ _______ _______ _____ _____    ______ ____
ROOT
ATOM      1  C   UNL     1       5.272   4.363  18.147  0.00  0.00    +0.000 C 
ATOM      2  C   UNL     1       5.311   5.317  16.942  0.00  0.00    +0.000 C 
ATOM      3  C   UNL     1       4.218   6.369  17.175  0.00  0.00    +0.000 C 
ATOM      4  C   UNL     1       3.274   5.729  18.186  0.00  0.00    +0.000 C 
ATOM      5  C   UNL     1       4.264   5.003  19.101  0.00  0.00    +0.000 C 
ATOM      6  O   UNL     1       3.561   4.044  19.904  0.00  0.00    +0.000 OA
ATOM      7  C   UNL     1       2.665   4.739  20.785  0.00  0.00    +0.000 C 
ATOM      8  C   UNL     1       1.682   5.659  20.032  0.00  0.00    +0.000 C 
ATOM      9  N   UNL     1       2.362   6.513  19.034  0.00  0.00    +0.000 N 
ATOM     10  C   UNL     1       2.223   7.903  18.914  0.00  0.00    +0.000 C 
ATOM     11  O   UNL     1       2.833   8.535  18.055  0.00  0.00    +0.000 OA
ENDROOT
BRANCH  10  12
ATOM     12  C   UNL     1       1.383   8.649  19.882  0.00  0.00    +0.000 A 
ATOM     13  N   UNL     1       1.371   8.417  21.207  0.00  0.00    +0.000 NA
ATOM     14  N   UNL     1       0.507   9.321  21.701  0.00  0.00    +0.000 N 
ATOM     15  C   UNL     1       0.353   9.444  23.131  0.00  0.00    +0.000 C 
ATOM     16  C   UNL     1      -0.123  10.078  20.747  0.00  0.00    +0.000 A 
ATOM     17  C   UNL     1      -1.101  11.078  20.831  0.00  0.00    +0.000 A 
ATOM     18  C   UNL     1      -1.520  11.668  19.634  0.00  0.00    +0.000 A 
ATOM     19  C   UNL     1      -0.973  11.285  18.410  0.00  0.00    +0.000 A 
ATOM     20  C   UNL     1       0.008  10.290  18.349  0.00  0.00    +0.000 A 
ATOM     21  C   UNL     1       0.434   9.662  19.539  0.00  0.00    +0.000 A 
ENDBRANCH  10  12
BRANCH   1  23
ATOM     22  C   UNL     1       7.611   4.651  17.809  0.00  0.00    +0.000 C 
ATOM     23  O   UNL     1       6.581   4.289  18.720  0.00  0.00    +0.000 OA
ENDBRANCH   1  23
TORSDOF 2
ENDMDL
MODEL 2
REMARK VINA RESULT:      -7.4      3.041      4.923
REMARK  Name = 
REMARK  4 active torsions:
REMARK  status: ('A' for Active; 'I' for Inactive)
REMARK    1  A    between atoms: C_1  and  O_2
REMARK    2  A    between atoms: O_2  and  C_3
REMARK    3  A    between atoms: C_12  and  C_14
REMARK    4  A    between atoms: N_16  and  C_17
REMARK                            x       y       z     vdW  Elec       q    Type
REMARK                         _______ _______ _______ _____ _____    ______ ____
ROOT
ATOM      1  C   UNL     1       7.390   4.681  14.186  0.00  0.00    +0.000 C 
ATOM      2  C   UNL     1       6.295   3.853  13.493  0.00  0.00    +0.000 C 
ATOM      3  C   UNL     1       5.230   3.549  14.556  0.00  0.00    +0.000 C 
ATOM      4  C   UNL     1       5.948   3.741  15.888  0.00  0.00    +0.000 C 
ATOM      5  C   UNL     1       6.828   4.956  15.581  0.00  0.00    +0.000 C 
ATOM      6  O   UNL     1       7.846   5.076  16.584  0.00  0.00    +0.000 OA
ATOM      7  C   UNL     1       7.226   5.363  17.847  0.00  0.00    +0.000 C 
ATOM      8  C   UNL     1       6.174   4.309  18.248  0.00  0.00    +0.000 C 
ATOM      9  N   UNL     1       5.235   4.004  17.148  0.00  0.00    +0.000 N 
ATOM     10  C   UNL     1       3.836   4.007  17.240  0.00  0.00    +0.000 C 
ATOM     11  O   UNL     1       3.130   3.744  16.269  0.00  0.00    +0.000 OA
ENDROOT
BRANCH  10  12
ATOM     12  C   UNL     1       3.178   4.403  18.510  0.00  0.00    +0.000 A 
ATOM     13  N   UNL     1       2.871   3.544  19.500  0.00  0.00    +0.000 NA
ATOM     14  N   UNL     1       2.324   4.315  20.456  0.00  0.00    +0.000 N 
ATOM     15  C   UNL     1       1.998   3.729  21.735  0.00  0.00    +0.000 C 
ATOM     16  C   UNL     1       2.172   5.631  20.102  0.00  0.00    +0.000 A 
ATOM     17  C   UNL     1       1.620   6.731  20.773  0.00  0.00    +0.000 A 
ATOM     18  C   UNL     1       1.639   7.963  20.111  0.00  0.00    +0.000 A 
ATOM     19  C   UNL     1       2.200   8.090  18.841  0.00  0.00    +0.000 A 
ATOM     20  C   UNL     1       2.752   6.982  18.191  0.00  0.00    +0.000 A 
ATOM     21  C   UNL     1       2.727   5.722  18.827  0.00  0.00    +0.000 A 
ENDBRANCH  10  12
BRANCH   1  23
ATOM     22  C   UNL     1       7.939   5.653  12.083  0.00  0.00    +0.000 C 
ATOM     23  O   UNL     1       7.596   5.887  13.444  0.00  0.00    +0.000 OA
ENDBRANCH   1  23
TORSDOF 2
ENDMDL
MODEL 3
REMARK VINA RESULT:      -7.2      2.389      7.280
REMARK  Name = 
REMARK  4 active torsions:
REMARK  status: ('A' for Active; 'I' for Inactive)
REMARK    1  A    between atoms: C_1  and  O_2
REMARK    2  A    between atoms: O_2  and  C_3
REMARK    3  A    between atoms: C_12  and  C_14
REMARK    4  A    between atoms: N_16  and  C_17
REMARK                            x       y       z     vdW  Elec       q    Type
REMARK                         _______ _______ _______ _____ _____    ______ ____
ROOT
ATOM      1  C   UNL     1       0.277  11.828  21.044  0.00  0.00    +0.000 C 
ATOM      2  C   UNL     1      -0.235  10.762  22.028  0.00  0.00    +0.000 C 
ATOM      3  C   UNL     1       0.183   9.399  21.461  0.00  0.00    +0.000 C 
ATOM      4  C   UNL     1       0.447   9.659  19.982  0.00  0.00    +0.000 C 
ATOM      5  C   UNL     1       1.111  11.038  20.036  0.00  0.00    +0.000 C 
ATOM      6  O   UNL     1       1.109  11.623  18.725  0.00  0.00    +0.000 OA
ATOM      7  C   UNL     1       1.940  10.832  17.860  0.00  0.00    +0.000 C 
ATOM      8  C   UNL     1       1.508   9.352  17.808  0.00  0.00    +0.000 C 
ATOM      9  N   UNL     1       1.290   8.782  19.155  0.00  0.00    +0.000 N 
ATOM     10  C   UNL     1       1.842   7.587  19.638  0.00  0.00    +0.000 C 
ATOM     11  O   UNL     1       1.609   7.189  20.778  0.00  0.00    +0.000 OA
ENDROOT
BRANCH  10  12
ATOM     12  C   UNL     1       2.785   6.812  18.795  0.00  0.00    +0.000 A 
ATOM     13  N   UNL     1       3.895   7.327  18.237  0.00  0.00    +0.000 NA
ATOM     14  N   UNL     1       4.461   6.291  17.592  0.00  0.00    +0.000 N 
ATOM     15  C   UNL     1       5.760   6.460  16.986  0.00  0.00    +0.000 C 
ATOM     16  C   UNL     1       3.722   5.136  17.624  0.00  0.00    +0.000 A 
ATOM     17  C   UNL     1       3.924   3.871  17.056  0.00  0.00    +0.000 A 
ATOM     18  C   UNL     1       2.955   2.893  17.305  0.00  0.00    +0.000 A 
ATOM     19  C   UNL     1       1.843   3.166  18.100  0.00  0.00    +0.000 A 
ATOM     20  C   UNL     1       1.662   4.433  18.662  0.00  0.00    +0.000 A 
ATOM     21  C   UNL     1       2.613   5.446  18.410  0.00  0.00    +0.000 A 
ENDBRANCH  10  12
BRANCH   1  23
ATOM     22  C   UNL     1       0.825  14.123  21.365  0.00  0.00    +0.000 C 
ATOM     23  O   UNL     1       1.066  12.779  21.765  0.00  0.00    +0.000 OA
ENDBRANCH   1  23
TORSDOF 2
ENDMDL
MODEL 4
REMARK VINA RESULT:      -7.1      1.345      2.270
REMARK  Name = 
REMARK  4 active torsions:
REMARK  status: ('A' for Active; 'I' for Inactive)
REMARK    1  A    between atoms: C_1  and  O_2
REMARK    2  A    between atoms: O_2  and  C_3
REMARK    3  A    between atoms: C_12  and  C_14
REMARK    4  A    between atoms: N_16  and  C_17
REMARK                            x       y       z     vdW  Elec       q    Type
REMARK                         _______ _______ _______ _____ _____    ______ ____
ROOT
ATOM      1  C   UNL     1       5.636   4.912  18.772  0.00  0.00    +0.000 C 
ATOM      2  C   UNL     1       6.003   5.760  17.543  0.00  0.00    +0.000 C 
ATOM      3  C   UNL     1       4.841   6.736  17.316  0.00  0.00    +0.000 C 
ATOM      4  C   UNL     1       3.661   6.109  18.051  0.00  0.00    +0.000 C 
ATOM      5  C   UNL     1       4.350   5.547  19.297  0.00  0.00    +0.000 C 
ATOM      6  O   UNL     1       3.480   4.605  19.942  0.00  0.00    +0.000 OA
ATOM      7  C   UNL     1       2.319   5.298  20.427  0.00  0.00    +0.000 C 
ATOM      8  C   UNL     1       1.576   6.067  19.315  0.00  0.00    +0.000 C 
ATOM      9  N   UNL     1       2.490   6.885  18.490  0.00  0.00    +0.000 N 
ATOM     10  C   UNL     1       2.326   8.244  18.186  0.00  0.00    +0.000 C 
ATOM     11  O   UNL     1       3.142   8.849  17.493  0.00  0.00    +0.000 OA
ENDROOT
BRANCH  10  12
ATOM     12  C   UNL     1       1.188   9.000  18.764  0.00  0.00    +0.000 A 
ATOM     13  N   UNL     1       0.256   9.637  18.032  0.00  0.00    +0.000 NA
ATOM     14  N   UNL     1      -0.589  10.157  18.940  0.00  0.00    +0.000 N 
ATOM     15  C   UNL     1      -1.800  10.802  18.490  0.00  0.00    +0.000 C 
ATOM     16  C   UNL     1      -0.203   9.968  20.242  0.00  0.00    +0.000 A 
ATOM     17  C   UNL     1      -0.763  10.376  21.460  0.00  0.00    +0.000 A 
ATOM     18  C   UNL     1      -0.103   9.990  22.632  0.00  0.00    +0.000 A 
ATOM     19  C   UNL     1       1.056   9.217  22.585  0.00  0.00    +0.000 A 
ATOM     20  C   UNL     1       1.595   8.814  21.359  0.00  0.00    +0.000 A 
ATOM     21  C   UNL     1       0.962   9.207  20.161  0.00  0.00    +0.000 A 
ENDBRANCH  10  12
BRANCH   1  23
ATOM     22  C   UNL     1       7.791   5.792  19.277  0.00  0.00    +0.000 C 
ATOM     23  O   UNL     1       6.702   4.993  19.724  0.00  0.00    +0.000 OA
ENDBRANCH   1  23
TORSDOF 2
ENDMDL
MODEL 5
REMARK VINA RESULT:      -7.0      2.268      7.055
REMARK  Name = 
REMARK  4 active torsions:
REMARK  status: ('A' for Active; 'I' for Inactive)
REMARK    1  A    between atoms: C_1  and  O_2
REMARK    2  A    between atoms: O_2  and  C_3
REMARK    3  A    between atoms: C_12  and  C_14
REMARK    4  A    between atoms: N_16  and  C_17
REMARK                            x       y       z     vdW  Elec       q    Type
REMARK                         _______ _______ _______ _____ _____    ______ ____
ROOT
ATOM      1  C   UNL     1      -0.797  11.620  20.025  0.00  0.00    +0.000 C 
ATOM      2  C   UNL     1       0.030  12.205  18.868  0.00  0.00    +0.000 C 
ATOM      3  C   UNL     1       1.052  11.133  18.468  0.00  0.00    +0.000 C 
ATOM      4  C   UNL     1       1.142  10.213  19.680  0.00  0.00    +0.000 C 
ATOM      5  C   UNL     1      -0.320  10.172  20.133  0.00  0.00    +0.000 C 
ATOM      6  O   UNL     1      -0.395   9.654  21.469  0.00  0.00    +0.000 OA
ATOM      7  C   UNL     1       0.042   8.286  21.465  0.00  0.00    +0.000 C 
ATOM      8  C   UNL     1       1.460   8.115  20.881  0.00  0.00    +0.000 C 
ATOM      9  N   UNL     1       1.630   8.827  19.597  0.00  0.00    +0.000 N 
ATOM     10  C   UNL     1       2.138   8.274  18.413  0.00  0.00    +0.000 C 
ATOM     11  O   UNL     1       2.240   8.942  17.386  0.00  0.00    +0.000 OA
ENDROOT
BRANCH  10  12
ATOM     12  C   UNL     1       2.496   6.835  18.362  0.00  0.00    +0.000 A 
ATOM     13  N   UNL     1       1.828   5.868  19.018  0.00  0.00    +0.000 NA
ATOM     14  N   UNL     1       2.460   4.731  18.677  0.00  0.00    +0.000 N 
ATOM     15  C   UNL     1       1.914   3.465  19.102  0.00  0.00    +0.000 C 
ATOM     16  C   UNL     1       3.573   4.916  17.897  0.00  0.00    +0.000 A 
ATOM     17  C   UNL     1       4.516   4.023  17.371  0.00  0.00    +0.000 A 
ATOM     18  C   UNL     1       5.542   4.560  16.587  0.00  0.00    +0.000 A 
ATOM     19  C   UNL     1       5.611   5.929  16.328  0.00  0.00    +0.000 A 
ATOM     20  C   UNL     1       4.657   6.803  16.858  0.00  0.00    +0.000 A 
ATOM     21  C   UNL     1       3.622   6.291  17.670  0.00  0.00    +0.000 A 
ENDBRANCH  10  12
BRANCH   1  23
ATOM     22  C   UNL     1      -2.424  11.676  18.286  0.00  0.00    +0.000 C 
ATOM     23  O   UNL     1      -2.185  11.705  19.689  0.00  0.00    +0.000 OA
ENDBRANCH   1  23
TORSDOF 2
ENDMDL
MODEL 6
REMARK VINA RESULT:      -6.9      2.417      7.262
REMARK  Name = 
REMARK  4 active torsions:
REMARK  status: ('A' for Active; 'I' for Inactive)
REMARK    1  A    between atoms: C_1  and  O_2
REMARK    2  A    between atoms: O_2  and  C_3
REMARK    3  A    between atoms: C_12  and  C_14
REMARK    4  A    between atoms: N_16  and  C_17
REMARK                            x       y       z     vdW  Elec       q    Type
REMARK                         _______ _______ _______ _____ _____    ______ ____
ROOT
ATOM      1  C   UNL     1       0.323  12.332  20.949  0.00  0.00    +0.000 C 
ATOM      2  C   UNL     1      -0.358  11.534  22.074  0.00  0.00    +0.000 C 
ATOM      3  C   UNL     1      -0.087  10.050  21.791  0.00  0.00    +0.000 C 
ATOM      4  C   UNL     1       0.269   9.998  20.309  0.00  0.00    +0.000 C 
ATOM      5  C   UNL     1       1.095  11.278  20.155  0.00  0.00    +0.000 C 
ATOM      6  O   UNL     1       1.220  11.604  18.763  0.00  0.00    +0.000 OA
ATOM      7  C   UNL     1       1.982  10.576  18.110  0.00  0.00    +0.000 C 
ATOM      8  C   UNL     1       1.374   9.172  18.299  0.00  0.00    +0.000 C 
ATOM      9  N   UNL     1       1.031   8.891  19.710  0.00  0.00    +0.000 N 
ATOM     10  C   UNL     1       1.410   7.753  20.435  0.00  0.00    +0.000 C 
ATOM     11  O   UNL     1       1.083   7.604  21.611  0.00  0.00    +0.000 OA
ENDROOT
BRANCH  10  12
ATOM     12  C   UNL     1       2.285   6.732  19.808  0.00  0.00    +0.000 A 
ATOM     13  N   UNL     1       3.356   7.022  19.047  0.00  0.00    +0.000 NA
ATOM     14  N   UNL     1       3.866   5.823  18.712  0.00  0.00    +0.000 N 
ATOM     15  C   UNL     1       5.119   5.763  17.999  0.00  0.00    +0.000 C 
ATOM     16  C   UNL     1       3.124   4.754  19.143  0.00  0.00    +0.000 A 
ATOM     17  C   UNL     1       3.276   3.371  18.977  0.00  0.00    +0.000 A 
ATOM     18  C   UNL     1       2.321   2.543  19.576  0.00  0.00    +0.000 A 
ATOM     19  C   UNL     1       1.270   3.076  20.322  0.00  0.00    +0.000 A 
ATOM     20  C   UNL     1       1.139   4.459  20.482  0.00  0.00    +0.000 A 
ATOM     21  C   UNL     1       2.077   5.319  19.870  0.00  0.00    +0.000 A 
ENDBRANCH  10  12
BRANCH   1  23
ATOM     22  C   UNL     1       1.188  14.548  20.842  0.00  0.00    +0.000 C 
ATOM     23  O   UNL     1       1.193  13.305  21.535  0.00  0.00    +0.000 OA
ENDBRANCH   1  23
TORSDOF 2
ENDMDL
MODEL 7
REMARK VINA RESULT:      -6.9      3.912      7.366
REMARK  Name = 
REMARK  4 active torsions:
REMARK  status: ('A' for Active; 'I' for Inactive)
REMARK    1  A    between atoms: C_1  and  O_2
REMARK    2  A    between atoms: O_2  and  C_3
REMARK    3  A    between atoms: C_12  and  C_14
REMARK    4  A    between atoms: N_16  and  C_17
REMARK                            x       y       z     vdW  Elec       q    Type
REMARK                         _______ _______ _______ _____ _____    ______ ____
ROOT
ATOM      1  C   UNL     1       0.752   3.346  20.483  0.00  0.00    +0.000 C 
ATOM      2  C   UNL     1       0.724   2.127  19.546  0.00  0.00    +0.000 C 
ATOM      3  C   UNL     1       1.671   2.444  18.380  0.00  0.00    +0.000 C 
ATOM      4  C   UNL     1       1.807   3.963  18.394  0.00  0.00    +0.000 C 
ATOM      5  C   UNL     1       1.840   4.245  19.899  0.00  0.00    +0.000 C 
ATOM      6  O   UNL     1       1.600   5.641  20.130  0.00  0.00    +0.000 OA
ATOM      7  C   UNL     1       2.686   6.400  19.574  0.00  0.00    +0.000 C 
ATOM      8  C   UNL     1       2.906   6.115  18.075  0.00  0.00    +0.000 C 
ATOM      9  N   UNL     1       2.940   4.668  17.775  0.00  0.00    +0.000 N 
ATOM     10  C   UNL     1       3.936   4.005  17.043  0.00  0.00    +0.000 C 
ATOM     11  O   UNL     1       3.886   2.793  16.845  0.00  0.00    +0.000 OA
ENDROOT
BRANCH  10  12
ATOM     12  C   UNL     1       5.117   4.756  16.551  0.00  0.00    +0.000 A 
ATOM     13  N   UNL     1       5.723   5.741  17.238  0.00  0.00    +0.000 NA
ATOM     14  N   UNL     1       6.747   6.120  16.452  0.00  0.00    +0.000 N 
ATOM     15  C   UNL     1       7.702   7.081  16.950  0.00  0.00    +0.000 C 
ATOM     16  C   UNL     1       6.787   5.489  15.236  0.00  0.00    +0.000 A 
ATOM     17  C   UNL     1       7.642   5.619  14.133  0.00  0.00    +0.000 A 
ATOM     18  C   UNL     1       7.401   4.791  13.032  0.00  0.00    +0.000 A 
ATOM     19  C   UNL     1       6.360   3.863  13.041  0.00  0.00    +0.000 A 
ATOM     20  C   UNL     1       5.521   3.745  14.154  0.00  0.00    +0.000 A 
ATOM     21  C   UNL     1       5.728   4.583  15.270  0.00  0.00    +0.000 A 
ENDBRANCH  10  12
BRANCH   1  23
ATOM     22  C   UNL     1       2.408   2.423  21.925  0.00  0.00    +0.000 C 
ATOM     23  O   UNL     1       1.074   2.903  21.806  0.00  0.00    +0.000 OA
ENDBRANCH   1  23
TORSDOF 2
ENDMDL
MODEL 8
REMARK VINA RESULT:      -6.8      2.075      7.107
REMARK  Name = 
REMARK  4 active torsions:
REMARK  status: ('A' for Active; 'I' for Inactive)
REMARK    1  A    between atoms: C_1  and  O_2
REMARK    2  A    between atoms: O_2  and  C_3
REMARK    3  A    between atoms: C_12  and  C_14
REMARK    4  A    between atoms: N_16  and  C_17
REMARK                            x       y       z     vdW  Elec       q    Type
REMARK                         _______ _______ _______ _____ _____    ______ ____
ROOT
ATOM      1  C   UNL     1      -1.006  11.852  19.918  0.00  0.00    +0.000 C 
ATOM      2  C   UNL     1      -0.160  12.166  18.673  0.00  0.00    +0.000 C 
ATOM      3  C   UNL     1       0.870  11.036  18.542  0.00  0.00    +0.000 C 
ATOM      4  C   UNL     1       0.939  10.412  19.932  0.00  0.00    +0.000 C 
ATOM      5  C   UNL     1      -0.531  10.468  20.357  0.00  0.00    +0.000 C 
ATOM      6  O   UNL     1      -0.628  10.263  21.774  0.00  0.00    +0.000 OA
ATOM      7  C   UNL     1      -0.190   8.931  22.084  0.00  0.00    +0.000 C 
ATOM      8  C   UNL     1       1.237   8.639  21.578  0.00  0.00    +0.000 C 
ATOM      9  N   UNL     1       1.430   9.045  20.170  0.00  0.00    +0.000 N 
ATOM     10  C   UNL     1       1.958   8.242  19.149  0.00  0.00    +0.000 C 
ATOM     11  O   UNL     1       2.078   8.663  18.001  0.00  0.00    +0.000 OA
ENDROOT
BRANCH  10  12
ATOM     12  C   UNL     1       2.318   6.831  19.429  0.00  0.00    +0.000 A 
ATOM     13  N   UNL     1       1.876   6.136  20.494  0.00  0.00    +0.000 NA
ATOM     14  N   UNL     1       2.413   4.913  20.345  0.00  0.00    +0.000 N 
ATOM     15  C   UNL     1       2.030   3.858  21.254  0.00  0.00    +0.000 C 
ATOM     16  C   UNL     1       3.265   4.797  19.278  0.00  0.00    +0.000 A 
ATOM     17  C   UNL     1       4.046   3.733  18.805  0.00  0.00    +0.000 A 
ATOM     18  C   UNL     1       4.807   3.958  17.653  0.00  0.00    +0.000 A 
ATOM     19  C   UNL     1       4.776   5.187  16.996  0.00  0.00    +0.000 A 
ATOM     20  C   UNL     1       3.985   6.234  17.480  0.00  0.00    +0.000 A 
ATOM     21  C   UNL     1       3.223   6.042  18.653  0.00  0.00    +0.000 A 
ENDBRANCH  10  12
BRANCH   1  23
ATOM     22  C   UNL     1      -3.188  12.694  20.371  0.00  0.00    +0.000 C 
ATOM     23  O   UNL     1      -2.389  11.852  19.548  0.00  0.00    +0.000 OA
ENDBRANCH   1  23
TORSDOF 2
ENDMDL
MODEL 9
REMARK VINA RESULT:      -6.7      2.434      7.297
REMARK  Name = 
REMARK  4 active torsions:
REMARK  status: ('A' for Active; 'I' for Inactive)
REMARK    1  A    between atoms: C_1  and  O_2
REMARK    2  A    between atoms: O_2  and  C_3
REMARK    3  A    between atoms: C_12  and  C_14
REMARK    4  A    between atoms: N_16  and  C_17
REMARK                            x       y       z     vdW  Elec       q    Type
REMARK                         _______ _______ _______ _____ _____    ______ ____
ROOT
ATOM      1  C   UNL     1      -1.409  12.347  21.482  0.00  0.00    +0.000 C 
ATOM      2  C   UNL     1      -0.956  12.786  20.080  0.00  0.00    +0.000 C 
ATOM      3  C   UNL     1       0.051  11.736  19.592  0.00  0.00    +0.000 C 
ATOM      4  C   UNL     1       0.531  11.041  20.861  0.00  0.00    +0.000 C 
ATOM      5  C   UNL     1      -0.765  10.975  21.674  0.00  0.00    +0.000 C 
ATOM      6  O   UNL     1      -0.457  10.685  23.045  0.00  0.00    +0.000 OA
ATOM      7  C   UNL     1       0.113   9.370  23.128  0.00  0.00    +0.000 C 
ATOM      8  C   UNL     1       1.358   9.202  22.232  0.00  0.00    +0.000 C 
ATOM      9  N   UNL     1       1.134   9.699  20.858  0.00  0.00    +0.000 N 
ATOM     10  C   UNL     1       1.399   8.991  19.677  0.00  0.00    +0.000 C 
ATOM     11  O   UNL     1       1.176   9.482  18.572  0.00  0.00    +0.000 OA
ENDROOT
BRANCH  10  12
ATOM     12  C   UNL     1       1.890   7.593  19.746  0.00  0.00    +0.000 A 
ATOM     13  N   UNL     1       1.565   6.727  20.723  0.00  0.00    +0.000 NA
ATOM     14  N   UNL     1       2.194   5.587  20.386  0.00  0.00    +0.000 N 
ATOM     15  C   UNL     1       1.950   4.391  21.157  0.00  0.00    +0.000 C 
ATOM     16  C   UNL     1       2.995   5.691  19.278  0.00  0.00    +0.000 A 
ATOM     17  C   UNL     1       3.835   4.774  18.632  0.00  0.00    +0.000 A 
ATOM     18  C   UNL     1       4.513   5.217  17.491  0.00  0.00    +0.000 A 
ATOM     19  C   UNL     1       4.343   6.515  17.010  0.00  0.00    +0.000 A 
ATOM     20  C   UNL     1       3.494   7.412  17.666  0.00  0.00    +0.000 A 
ATOM     21  C   UNL     1       2.815   6.999  18.832  0.00  0.00    +0.000 A 
ENDBRANCH  10  12
BRANCH   1  23
ATOM     22  C   UNL     1      -3.464  13.445  20.987  0.00  0.00    +0.000 C 
ATOM     23  O   UNL     1      -2.839  12.276  21.504  0.00  0.00    +0.000 OA
ENDBRANCH   1  23
TORSDOF 2
ENDMDL
