MODEL 1
REMARK VINA RESULT:      -9.9      0.000      0.000
REMARK  Name = 
REMARK  9 active torsions:
REMARK  status: ('A' for Active; 'I' for Inactive)
REMARK    1  A    between atoms: C_2  and  C_4
REMARK    2  A    between atoms: C_7  and  C_8
REMARK    3  A    between atoms: C_8  and  C_9
REMARK    4  A    between atoms: C_18  and  C_19
REMARK    5  A    between atoms: N_21  and  C_22
REMARK    6  A    between atoms: N_21  and  C_27
REMARK    7  A    between atoms: C_22  and  C_23
REMARK    8  A    between atoms: C_23  and  C_24
REMARK    9  A    between atoms: C_24  and  O_26
REMARK                            x       y       z     vdW  Elec       q    Type
REMARK                         _______ _______ _______ _____ _____    ______ ____
ROOT
ATOM      1  C   UNL     1      -0.932  12.073  20.474  0.00  0.00    +0.000 C 
ATOM      2  N   UNL     1      -0.122  13.308  20.053  0.00  0.00    +0.000 NA
ATOM      3  C   UNL     1       0.614  13.199  18.801  0.00  0.00    +0.000 C 
ATOM      4  C   UNL     1       1.631  12.103  18.920  0.00  0.00    +0.000 C 
ATOM      5  N   UNL     1       0.918  10.874  19.188  0.00  0.00    +0.000 N 
ATOM      6  C   UNL     1       0.051  10.772  20.274  0.00  0.00    +0.000 A 
ATOM      7  N   UNL     1       0.294   9.534  20.764  0.00  0.00    +0.000 NA
ATOM      8  C   UNL     1       1.211   8.848  19.833  0.00  0.00    +0.000 A 
ATOM      9  C   UNL     1       2.030   7.629  19.793  0.00  0.00    +0.000 A 
ATOM     10  C   UNL     1       2.858   7.307  18.640  0.00  0.00    +0.000 A 
ATOM     11  C   UNL     1       2.689   8.121  17.505  0.00  0.00    +0.000 A 
ATOM     12  C   UNL     1       1.957   9.306  17.525  0.00  0.00    +0.000 A 
ATOM     13  C   UNL     1       1.333   9.660  18.722  0.00  0.00    +0.000 A 
ATOM     14  H   UNL     1       0.537  13.499  20.813  0.00  0.00    +0.000 HD
ENDROOT
BRANCH  10  15
ATOM     15  C   UNL     1       4.084   6.343  18.432  0.00  0.00    +0.000 C 
ATOM     16  O   UNL     1       5.104   6.863  17.951  0.00  0.00    +0.000 OA
ATOM     17  N   UNL     1       4.149   4.969  18.729  0.00  0.00    +0.000 N 
BRANCH  17  18
ATOM     18  C   UNL     1       3.003   4.236  19.074  0.00  0.00    +0.000 A 
ATOM     19  C   UNL     1       2.208   3.670  18.070  0.00  0.00    +0.000 A 
ATOM     20  C   UNL     1       1.069   2.948  18.447  0.00  0.00    +0.000 A 
ATOM     21  C   UNL     1       0.777   2.773  19.807  0.00  0.00    +0.000 A 
ATOM     22  C   UNL     1       1.619   3.292  20.790  0.00  0.00    +0.000 A 
ATOM     23  C   UNL     1       2.751   3.998  20.418  0.00  0.00    +0.000 A 
ENDBRANCH  17  18
BRANCH  17  24
ATOM     24  C   UNL     1       5.327   4.130  18.291  0.00  0.00    +0.000 C 
BRANCH  24  25
ATOM     25  C   UNL     1       5.548   4.086  16.779  0.00  0.00    +0.000 C 
BRANCH  25  26
ATOM     26  C   UNL     1       6.928   4.597  16.385  0.00  0.00    +0.000 C 
ATOM     27  O   UNL     1       7.979   4.323  16.945  0.00  0.00    +0.000 OA
BRANCH  26  28
ATOM     28  O   UNL     1       6.880   5.438  15.321  0.00  0.00    +0.000 OA
ATOM     29  H   UNL     1       6.392   5.093  14.548  0.00  0.00    +0.000 HD
ENDBRANCH  26  28
ENDBRANCH  25  26
ENDBRANCH  24  25
ENDBRANCH  17  24
ENDBRANCH  10  15
BRANCH   1  30
ATOM     30  C   UNL     1      -1.604  12.741  21.787  0.00  0.00    +0.000 C 
BRANCH  30  34
ATOM     31  C   UNL     1      -5.743  12.830  23.401  0.00  0.00    +0.000 A 
ATOM     32  C   UNL     1      -4.633  12.587  24.232  0.00  0.00    +0.000 A 
ATOM     33  C   UNL     1      -3.296  12.552  23.750  0.00  0.00    +0.000 A 
ATOM     34  C   UNL     1      -3.015  12.773  22.412  0.00  0.00    +0.000 A 
ATOM     35  C   UNL     1      -4.152  12.996  21.565  0.00  0.00    +0.000 A 
ATOM     36  C   UNL     1      -5.490  13.035  22.045  0.00  0.00    +0.000 A 
BRANCH  31  38
ATOM     37  N   UNL     1      -7.916  11.832  23.888  0.00  0.00    +0.000 NA
ATOM     38  C   UNL     1      -7.132  12.871  24.018  0.00  0.00    +0.000 C 
ATOM     39  N   UNL     1      -7.610  13.947  24.714  0.00  0.00    +0.000 N 
ATOM     40  H   UNL     1      -8.792  11.994  24.375  0.00  0.00    +0.000 HD
ATOM     41  H   UNL     1      -8.616  13.983  24.855  0.00  0.00    +0.000 HD
ATOM     42  H   UNL     1      -7.223  14.860  24.517  0.00  0.00    +0.000 HD
ENDBRANCH  31  38
ENDBRANCH  30  34
ENDBRANCH   1  30
TORSDOF 9
ENDMDL
MODEL 2
REMARK VINA RESULT:      -9.5      0.692      1.441
REMARK  Name = 
REMARK  9 active torsions:
REMARK  status: ('A' for Active; 'I' for Inactive)
REMARK    1  A    between atoms: C_2  and  C_4
REMARK    2  A    between atoms: C_7  and  C_8
REMARK    3  A    between atoms: C_8  and  C_9
REMARK    4  A    between atoms: C_18  and  C_19
REMARK    5  A    between atoms: N_21  and  C_22
REMARK    6  A    between atoms: N_21  and  C_27
REMARK    7  A    between atoms: C_22  and  C_23
REMARK    8  A    between atoms: C_23  and  C_24
REMARK    9  A    between atoms: C_24  and  O_26
REMARK                            x       y       z     vdW  Elec       q    Type
REMARK                         _______ _______ _______ _____ _____    ______ ____
ROOT
ATOM      1  C   UNL     1      -1.024  11.832  20.853  0.00  0.00    +0.000 C 
ATOM      2  N   UNL     1      -0.296  13.110  20.412  0.00  0.00    +0.000 NA
ATOM      3  C   UNL     1       0.366  13.059  19.115  0.00  0.00    +0.000 C 
ATOM      4  C   UNL     1       1.434  12.006  19.146  0.00  0.00    +0.000 C 
ATOM      5  N   UNL     1       0.792  10.742  19.430  0.00  0.00    +0.000 N 
ATOM      6  C   UNL     1      -0.001  10.581  20.564  0.00  0.00    +0.000 A 
ATOM      7  N   UNL     1       0.326   9.345  21.010  0.00  0.00    +0.000 NA
ATOM      8  C   UNL     1       1.211   8.719  20.009  0.00  0.00    +0.000 A 
ATOM      9  C   UNL     1       2.078   7.537  19.892  0.00  0.00    +0.000 A 
ATOM     10  C   UNL     1       2.845   7.276  18.684  0.00  0.00    +0.000 A 
ATOM     11  C   UNL     1       2.571   8.104  17.579  0.00  0.00    +0.000 A 
ATOM     12  C   UNL     1       1.792   9.255  17.671  0.00  0.00    +0.000 A 
ATOM     13  C   UNL     1       1.229   9.557  18.912  0.00  0.00    +0.000 A 
ATOM     14  H   UNL     1       0.400  13.315  21.134  0.00  0.00    +0.000 HD
ENDROOT
BRANCH  10  15
ATOM     15  C   UNL     1       4.097   6.371  18.379  0.00  0.00    +0.000 C 
ATOM     16  O   UNL     1       5.071   6.950  17.874  0.00  0.00    +0.000 OA
ATOM     17  N   UNL     1       4.229   4.991  18.616  0.00  0.00    +0.000 N 
BRANCH  17  18
ATOM     18  C   UNL     1       3.129   4.198  18.983  0.00  0.00    +0.000 A 
ATOM     19  C   UNL     1       2.883   3.926  20.334  0.00  0.00    +0.000 A 
ATOM     20  C   UNL     1       1.781   3.129  20.665  0.00  0.00    +0.000 A 
ATOM     21  C   UNL     1       0.932   2.663  19.652  0.00  0.00    +0.000 A 
ATOM     22  C   UNL     1       1.161   3.000  18.318  0.00  0.00    +0.000 A 
ATOM     23  C   UNL     1       2.246   3.796  17.991  0.00  0.00    +0.000 A 
ENDBRANCH  17  18
BRANCH  17  24
ATOM     24  C   UNL     1       5.416   4.217  18.089  0.00  0.00    +0.000 C 
BRANCH  24  25
ATOM     25  C   UNL     1       5.614   4.311  16.576  0.00  0.00    +0.000 C 
BRANCH  25  26
ATOM     26  C   UNL     1       7.040   4.697  16.207  0.00  0.00    +0.000 C 
ATOM     27  O   UNL     1       7.377   5.325  15.214  0.00  0.00    +0.000 OA
BRANCH  26  28
ATOM     28  O   UNL     1       7.945   4.241  17.109  0.00  0.00    +0.000 OA
ATOM     29  H   UNL     1       7.925   4.694  17.974  0.00  0.00    +0.000 HD
ENDBRANCH  26  28
ENDBRANCH  25  26
ENDBRANCH  24  25
ENDBRANCH  17  24
ENDBRANCH  10  15
BRANCH   1  30
ATOM     30  C   UNL     1      -1.641  12.443  22.220  0.00  0.00    +0.000 C 
BRANCH  30  34
ATOM     31  C   UNL     1      -5.572  13.971  23.619  0.00  0.00    +0.000 A 
ATOM     32  C   UNL     1      -4.785  14.693  22.702  0.00  0.00    +0.000 A 
ATOM     33  C   UNL     1      -3.524  14.234  22.233  0.00  0.00    +0.000 A 
ATOM     34  C   UNL     1      -3.005  13.022  22.656  0.00  0.00    +0.000 A 
ATOM     35  C   UNL     1      -3.800  12.302  23.609  0.00  0.00    +0.000 A 
ATOM     36  C   UNL     1      -5.062  12.756  24.077  0.00  0.00    +0.000 A 
BRANCH  31  38
ATOM     37  N   UNL     1      -7.261  15.732  23.634  0.00  0.00    +0.000 NA
ATOM     38  C   UNL     1      -6.919  14.536  24.040  0.00  0.00    +0.000 C 
ATOM     39  N   UNL     1      -7.805  13.853  24.827  0.00  0.00    +0.000 N 
ATOM     40  H   UNL     1      -8.193  15.960  23.968  0.00  0.00    +0.000 HD
ATOM     41  H   UNL     1      -8.541  14.404  25.261  0.00  0.00    +0.000 HD
ATOM     42  H   UNL     1      -7.449  13.141  25.449  0.00  0.00    +0.000 HD
ENDBRANCH  31  38
ENDBRANCH  30  34
ENDBRANCH   1  30
TORSDOF 9
ENDMDL
MODEL 3
REMARK VINA RESULT:      -9.2      0.884      1.215
REMARK  Name = 
REMARK  9 active torsions:
REMARK  status: ('A' for Active; 'I' for Inactive)
REMARK    1  A    between atoms: C_2  and  C_4
REMARK    2  A    between atoms: C_7  and  C_8
REMARK    3  A    between atoms: C_8  and  C_9
REMARK    4  A    between atoms: C_18  and  C_19
REMARK    5  A    between atoms: N_21  and  C_22
REMARK    6  A    between atoms: N_21  and  C_27
REMARK    7  A    between atoms: C_22  and  C_23
REMARK    8  A    between atoms: C_23  and  C_24
REMARK    9  A    between atoms: C_24  and  O_26
REMARK                            x       y       z     vdW  Elec       q    Type
REMARK                         _______ _______ _______ _____ _____    ______ ____
ROOT
ATOM      1  C   UNL     1      -1.239  12.106  20.801  0.00  0.00    +0.000 C 
ATOM      2  N   UNL     1      -0.449  13.369  20.430  0.00  0.00    +0.000 NA
ATOM      3  C   UNL     1       0.263  13.333  19.160  0.00  0.00    +0.000 C 
ATOM      4  C   UNL     1       1.291  12.242  19.200  0.00  0.00    +0.000 C 
ATOM      5  N   UNL     1       0.593  10.994  19.417  0.00  0.00    +0.000 N 
ATOM      6  C   UNL     1      -0.250  10.827  20.514  0.00  0.00    +0.000 A 
ATOM      7  N   UNL     1       0.014   9.568  20.933  0.00  0.00    +0.000 NA
ATOM      8  C   UNL     1       0.917   8.940  19.949  0.00  0.00    +0.000 A 
ATOM      9  C   UNL     1       1.745   7.732  19.828  0.00  0.00    +0.000 A 
ATOM     10  C   UNL     1       2.552   7.479  18.644  0.00  0.00    +0.000 A 
ATOM     11  C   UNL     1       2.353   8.350  17.556  0.00  0.00    +0.000 A 
ATOM     12  C   UNL     1       1.611   9.525  17.654  0.00  0.00    +0.000 A 
ATOM     13  C   UNL     1       1.010   9.810  18.880  0.00  0.00    +0.000 A 
ATOM     14  H   UNL     1       0.224  13.527  21.185  0.00  0.00    +0.000 HD
ENDROOT
BRANCH  10  15
ATOM     15  C   UNL     1       3.782   6.539  18.361  0.00  0.00    +0.000 C 
ATOM     16  O   UNL     1       4.734   7.062  17.761  0.00  0.00    +0.000 OA
ATOM     17  N   UNL     1       3.917   5.183  18.712  0.00  0.00    +0.000 N 
BRANCH  17  18
ATOM     18  C   UNL     1       2.832   4.437  19.198  0.00  0.00    +0.000 A 
ATOM     19  C   UNL     1       2.005   3.744  18.307  0.00  0.00    +0.000 A 
ATOM     20  C   UNL     1       0.929   3.013  18.824  0.00  0.00    +0.000 A 
ATOM     21  C   UNL     1       0.732   2.955  20.211  0.00  0.00    +0.000 A 
ATOM     22  C   UNL     1       1.607   3.602  21.083  0.00  0.00    +0.000 A 
ATOM     23  C   UNL     1       2.677   4.317  20.573  0.00  0.00    +0.000 A 
ENDBRANCH  17  18
BRANCH  17  24
ATOM     24  C   UNL     1       5.073   4.355  18.199  0.00  0.00    +0.000 C 
BRANCH  24  25
ATOM     25  C   UNL     1       6.411   4.642  18.880  0.00  0.00    +0.000 C 
BRANCH  25  26
ATOM     26  C   UNL     1       7.489   5.046  17.882  0.00  0.00    +0.000 C 
ATOM     27  O   UNL     1       8.070   4.294  17.114  0.00  0.00    +0.000 OA
BRANCH  26  28
ATOM     28  O   UNL     1       7.771   6.372  17.940  0.00  0.00    +0.000 OA
ATOM     29  H   UNL     1       7.181   6.891  18.520  0.00  0.00    +0.000 HD
ENDBRANCH  26  28
ENDBRANCH  25  26
ENDBRANCH  24  25
ENDBRANCH  17  24
ENDBRANCH  10  15
BRANCH   1  30
ATOM     30  C   UNL     1      -1.889  12.698  22.161  0.00  0.00    +0.000 C 
BRANCH  30  34
ATOM     31  C   UNL     1      -5.883  14.013  23.599  0.00  0.00    +0.000 A 
ATOM     32  C   UNL     1      -5.747  13.076  22.557  0.00  0.00    +0.000 A 
ATOM     33  C   UNL     1      -4.486  12.633  22.073  0.00  0.00    +0.000 A 
ATOM     34  C   UNL     1      -3.306  13.103  22.625  0.00  0.00    +0.000 A 
ATOM     35  C   UNL     1      -3.450  14.076  23.670  0.00  0.00    +0.000 A 
ATOM     36  C   UNL     1      -4.710  14.518  24.158  0.00  0.00    +0.000 A 
BRANCH  31  38
ATOM     37  N   UNL     1      -7.907  13.628  24.906  0.00  0.00    +0.000 NA
ATOM     38  C   UNL     1      -7.278  14.404  24.061  0.00  0.00    +0.000 C 
ATOM     39  N   UNL     1      -7.916  15.537  23.640  0.00  0.00    +0.000 N 
ATOM     40  H   UNL     1      -8.809  14.032  25.143  0.00  0.00    +0.000 HD
ATOM     41  H   UNL     1      -8.921  15.574  23.793  0.00  0.00    +0.000 HD
ATOM     42  H   UNL     1      -7.655  15.936  22.748  0.00  0.00    +0.000 HD
ENDBRANCH  31  38
ENDBRANCH  30  34
ENDBRANCH   1  30
TORSDOF 9
ENDMDL
MODEL 4
REMARK VINA RESULT:      -9.2      1.639      1.876
REMARK  Name = 
REMARK  9 active torsions:
REMARK  status: ('A' for Active; 'I' for Inactive)
REMARK    1  A    between atoms: C_2  and  C_4
REMARK    2  A    between atoms: C_7  and  C_8
REMARK    3  A    between atoms: C_8  and  C_9
REMARK    4  A    between atoms: C_18  and  C_19
REMARK    5  A    between atoms: N_21  and  C_22
REMARK    6  A    between atoms: N_21  and  C_27
REMARK    7  A    between atoms: C_22  and  C_23
REMARK    8  A    between atoms: C_23  and  C_24
REMARK    9  A    between atoms: C_24  and  O_26
REMARK                            x       y       z     vdW  Elec       q    Type
REMARK                         _______ _______ _______ _____ _____    ______ ____
ROOT
ATOM      1  C   UNL     1      -0.893  11.672  21.344  0.00  0.00    +0.000 C 
ATOM      2  N   UNL     1      -0.212  12.965  20.872  0.00  0.00    +0.000 NA
ATOM      3  C   UNL     1       0.315  12.956  19.514  0.00  0.00    +0.000 C 
ATOM      4  C   UNL     1       1.380  11.905  19.404  0.00  0.00    +0.000 C 
ATOM      5  N   UNL     1       0.769  10.632  19.711  0.00  0.00    +0.000 N 
ATOM      6  C   UNL     1       0.094  10.433  20.914  0.00  0.00    +0.000 A 
ATOM      7  N   UNL     1       0.463   9.185  21.286  0.00  0.00    +0.000 NA
ATOM      8  C   UNL     1       1.242   8.592  20.182  0.00  0.00    +0.000 A 
ATOM      9  C   UNL     1       2.092   7.417  19.940  0.00  0.00    +0.000 A 
ATOM     10  C   UNL     1       2.733   7.196  18.653  0.00  0.00    +0.000 A 
ATOM     11  C   UNL     1       2.350   8.057  17.609  0.00  0.00    +0.000 A 
ATOM     12  C   UNL     1       1.585   9.202  17.815  0.00  0.00    +0.000 A 
ATOM     13  C   UNL     1       1.151   9.465  19.115  0.00  0.00    +0.000 A 
ATOM     14  H   UNL     1       0.554  13.149  21.526  0.00  0.00    +0.000 HD
ENDROOT
BRANCH  10  15
ATOM     15  C   UNL     1       3.947   6.303  18.195  0.00  0.00    +0.000 C 
ATOM     16  O   UNL     1       4.849   6.894  17.581  0.00  0.00    +0.000 OA
ATOM     17  N   UNL     1       4.118   4.923  18.406  0.00  0.00    +0.000 N 
BRANCH  17  18
ATOM     18  C   UNL     1       3.076   4.119  18.897  0.00  0.00    +0.000 A 
ATOM     19  C   UNL     1       2.093   3.640  18.024  0.00  0.00    +0.000 A 
ATOM     20  C   UNL     1       1.066   2.844  18.545  0.00  0.00    +0.000 A 
ATOM     21  C   UNL     1       1.069   2.512  19.907  0.00  0.00    +0.000 A 
ATOM     22  C   UNL     1       2.094   2.948  20.745  0.00  0.00    +0.000 A 
ATOM     23  C   UNL     1       3.116   3.727  20.228  0.00  0.00    +0.000 A 
ENDBRANCH  17  18
BRANCH  17  24
ATOM     24  C   UNL     1       5.239   4.163  17.736  0.00  0.00    +0.000 C 
BRANCH  24  25
ATOM     25  C   UNL     1       5.074   3.986  16.227  0.00  0.00    +0.000 C 
BRANCH  25  26
ATOM     26  C   UNL     1       6.400   4.104  15.487  0.00  0.00    +0.000 C 
ATOM     27  O   UNL     1       7.403   4.666  15.900  0.00  0.00    +0.000 OA
BRANCH  26  28
ATOM     28  O   UNL     1       6.358   3.519  14.263  0.00  0.00    +0.000 OA
ATOM     29  H   UNL     1       6.971   2.768  14.146  0.00  0.00    +0.000 HD
ENDBRANCH  26  28
ENDBRANCH  25  26
ENDBRANCH  24  25
ENDBRANCH  17  24
ENDBRANCH  10  15
BRANCH   1  30
ATOM     30  C   UNL     1      -1.368  12.239  22.785  0.00  0.00    +0.000 C 
BRANCH  30  34
ATOM     31  C   UNL     1      -4.019  15.508  24.211  0.00  0.00    +0.000 A 
ATOM     32  C   UNL     1      -2.618  15.654  24.184  0.00  0.00    +0.000 A 
ATOM     33  C   UNL     1      -1.741  14.629  23.734  0.00  0.00    +0.000 A 
ATOM     34  C   UNL     1      -2.235  13.418  23.278  0.00  0.00    +0.000 A 
ATOM     35  C   UNL     1      -3.661  13.267  23.330  0.00  0.00    +0.000 A 
ATOM     36  C   UNL     1      -4.540  14.291  23.777  0.00  0.00    +0.000 A 
BRANCH  31  38
ATOM     37  N   UNL     1      -6.104  16.776  24.259  0.00  0.00    +0.000 NA
ATOM     38  C   UNL     1      -4.872  16.673  24.687  0.00  0.00    +0.000 C 
ATOM     39  N   UNL     1      -4.417  17.629  25.553  0.00  0.00    +0.000 N 
ATOM     40  H   UNL     1      -6.554  17.581  24.684  0.00  0.00    +0.000 HD
ATOM     41  H   UNL     1      -4.958  18.489  25.602  0.00  0.00    +0.000 HD
ATOM     42  H   UNL     1      -3.423  17.805  25.599  0.00  0.00    +0.000 HD
ENDBRANCH  31  38
ENDBRANCH  30  34
ENDBRANCH   1  30
TORSDOF 9
ENDMDL
MODEL 5
REMARK VINA RESULT:      -9.1      1.944      2.333
REMARK  Name = 
REMARK  9 active torsions:
REMARK  status: ('A' for Active; 'I' for Inactive)
REMARK    1  A    between atoms: C_2  and  C_4
REMARK    2  A    between atoms: C_7  and  C_8
REMARK    3  A    between atoms: C_8  and  C_9
REMARK    4  A    between atoms: C_18  and  C_19
REMARK    5  A    between atoms: N_21  and  C_22
REMARK    6  A    between atoms: N_21  and  C_27
REMARK    7  A    between atoms: C_22  and  C_23
REMARK    8  A    between atoms: C_23  and  C_24
REMARK    9  A    between atoms: C_24  and  O_26
REMARK                            x       y       z     vdW  Elec       q    Type
REMARK                         _______ _______ _______ _____ _____    ______ ____
ROOT
ATOM      1  C   UNL     1      -0.840  10.921  21.207  0.00  0.00    +0.000 C 
ATOM      2  N   UNL     1      -0.468  12.302  20.649  0.00  0.00    +0.000 NA
ATOM      3  C   UNL     1      -0.079  12.346  19.246  0.00  0.00    +0.000 C 
ATOM      4  C   UNL     1       1.153  11.513  19.049  0.00  0.00    +0.000 C 
ATOM      5  N   UNL     1       0.829  10.158  19.435  0.00  0.00    +0.000 N 
ATOM      6  C   UNL     1       0.322   9.877  20.702  0.00  0.00    +0.000 A 
ATOM      7  N   UNL     1       0.957   8.735  21.056  0.00  0.00    +0.000 NA
ATOM      8  C   UNL     1       1.728   8.263  19.889  0.00  0.00    +0.000 A 
ATOM      9  C   UNL     1       2.761   7.262  19.584  0.00  0.00    +0.000 A 
ATOM     10  C   UNL     1       3.309   7.122  18.244  0.00  0.00    +0.000 A 
ATOM     11  C   UNL     1       2.671   7.858  17.228  0.00  0.00    +0.000 A 
ATOM     12  C   UNL     1       1.723   8.844  17.491  0.00  0.00    +0.000 A 
ATOM     13  C   UNL     1       1.370   9.065  18.823  0.00  0.00    +0.000 A 
ATOM     14  H   UNL     1       0.306  12.650  21.222  0.00  0.00    +0.000 HD
ENDROOT
BRANCH  10  15
ATOM     15  C   UNL     1       4.623   6.460  17.683  0.00  0.00    +0.000 C 
ATOM     16  O   UNL     1       5.407   7.227  17.102  0.00  0.00    +0.000 OA
ATOM     17  N   UNL     1       5.000   5.108  17.769  0.00  0.00    +0.000 N 
BRANCH  17  18
ATOM     18  C   UNL     1       4.105   4.120  18.210  0.00  0.00    +0.000 A 
ATOM     19  C   UNL     1       3.212   3.533  17.308  0.00  0.00    +0.000 A 
ATOM     20  C   UNL     1       2.329   2.554  17.781  0.00  0.00    +0.000 A 
ATOM     21  C   UNL     1       2.389   2.157  19.124  0.00  0.00    +0.000 A 
ATOM     22  C   UNL     1       3.331   2.712  19.990  0.00  0.00    +0.000 A 
ATOM     23  C   UNL     1       4.211   3.673  19.520  0.00  0.00    +0.000 A 
ENDBRANCH  17  18
BRANCH  17  24
ATOM     24  C   UNL     1       6.197   4.581  17.010  0.00  0.00    +0.000 C 
BRANCH  24  25
ATOM     25  C   UNL     1       7.464   4.428  17.850  0.00  0.00    +0.000 C 
BRANCH  25  26
ATOM     26  C   UNL     1       7.606   5.537  18.884  0.00  0.00    +0.000 C 
ATOM     27  O   UNL     1       7.377   5.433  20.080  0.00  0.00    +0.000 OA
BRANCH  26  28
ATOM     28  O   UNL     1       8.007   6.708  18.329  0.00  0.00    +0.000 OA
ATOM     29  H   UNL     1       7.803   6.802  17.378  0.00  0.00    +0.000 HD
ENDBRANCH  26  28
ENDBRANCH  25  26
ENDBRANCH  24  25
ENDBRANCH  17  24
ENDBRANCH  10  15
BRANCH   1  30
ATOM     30  C   UNL     1      -1.278  11.437  22.679  0.00  0.00    +0.000 C 
BRANCH  30  34
ATOM     31  C   UNL     1      -3.263  15.030  24.382  0.00  0.00    +0.000 A 
ATOM     32  C   UNL     1      -1.881  15.010  24.112  0.00  0.00    +0.000 A 
ATOM     33  C   UNL     1      -1.213  13.878  23.567  0.00  0.00    +0.000 A 
ATOM     34  C   UNL     1      -1.910  12.722  23.257  0.00  0.00    +0.000 A 
ATOM     35  C   UNL     1      -3.313  12.740  23.556  0.00  0.00    +0.000 A 
ATOM     36  C   UNL     1      -3.983  13.871  24.098  0.00  0.00    +0.000 A 
BRANCH  31  38
ATOM     37  N   UNL     1      -5.188  16.425  24.931  0.00  0.00    +0.000 NA
ATOM     38  C   UNL     1      -3.885  16.298  24.942  0.00  0.00    +0.000 C 
ATOM     39  N   UNL     1      -3.150  17.325  25.466  0.00  0.00    +0.000 N 
ATOM     40  H   UNL     1      -5.455  17.305  25.362  0.00  0.00    +0.000 HD
ATOM     41  H   UNL     1      -3.628  18.217  25.568  0.00  0.00    +0.000 HD
ATOM     42  H   UNL     1      -2.194  17.441  25.159  0.00  0.00    +0.000 HD
ENDBRANCH  31  38
ENDBRANCH  30  34
ENDBRANCH   1  30
TORSDOF 9
ENDMDL
MODEL 6
REMARK VINA RESULT:      -8.7      1.724      2.244
REMARK  Name = 
REMARK  9 active torsions:
REMARK  status: ('A' for Active; 'I' for Inactive)
REMARK    1  A    between atoms: C_2  and  C_4
REMARK    2  A    between atoms: C_7  and  C_8
REMARK    3  A    between atoms: C_8  and  C_9
REMARK    4  A    between atoms: C_18  and  C_19
REMARK    5  A    between atoms: N_21  and  C_22
REMARK    6  A    between atoms: N_21  and  C_27
REMARK    7  A    between atoms: C_22  and  C_23
REMARK    8  A    between atoms: C_23  and  C_24
REMARK    9  A    between atoms: C_24  and  O_26
REMARK                            x       y       z     vdW  Elec       q    Type
REMARK                         _______ _______ _______ _____ _____    ______ ____
ROOT
ATOM      1  C   UNL     1      -1.199  12.071  21.299  0.00  0.00    +0.000 C 
ATOM      2  N   UNL     1      -0.598  13.347  20.693  0.00  0.00    +0.000 NA
ATOM      3  C   UNL     1      -0.141  13.252  19.313  0.00  0.00    +0.000 C 
ATOM      4  C   UNL     1       0.961  12.237  19.227  0.00  0.00    +0.000 C 
ATOM      5  N   UNL     1       0.420  10.969  19.663  0.00  0.00    +0.000 N 
ATOM      6  C   UNL     1      -0.183  10.840  20.913  0.00  0.00    +0.000 A 
ATOM      7  N   UNL     1       0.257   9.640  21.359  0.00  0.00    +0.000 NA
ATOM      8  C   UNL     1       1.003   8.992  20.262  0.00  0.00    +0.000 A 
ATOM      9  C   UNL     1       1.888   7.835  20.066  0.00  0.00    +0.000 A 
ATOM     10  C   UNL     1       2.472   7.538  18.767  0.00  0.00    +0.000 A 
ATOM     11  C   UNL     1       2.000   8.299  17.682  0.00  0.00    +0.000 A 
ATOM     12  C   UNL     1       1.198   9.427  17.841  0.00  0.00    +0.000 A 
ATOM     13  C   UNL     1       0.820   9.774  19.138  0.00  0.00    +0.000 A 
ATOM     14  H   UNL     1       0.191  13.611  21.288  0.00  0.00    +0.000 HD
ENDROOT
BRANCH  10  15
ATOM     15  C   UNL     1       3.697   6.660  18.314  0.00  0.00    +0.000 C 
ATOM     16  O   UNL     1       4.586   7.256  17.687  0.00  0.00    +0.000 OA
ATOM     17  N   UNL     1       3.892   5.285  18.543  0.00  0.00    +0.000 N 
BRANCH  17  18
ATOM     18  C   UNL     1       2.867   4.471  19.050  0.00  0.00    +0.000 A 
ATOM     19  C   UNL     1       2.762   4.256  20.429  0.00  0.00    +0.000 A 
ATOM     20  C   UNL     1       1.731   3.436  20.902  0.00  0.00    +0.000 A 
ATOM     21  C   UNL     1       0.810   2.889  19.999  0.00  0.00    +0.000 A 
ATOM     22  C   UNL     1       0.897   3.168  18.635  0.00  0.00    +0.000 A 
ATOM     23  C   UNL     1       1.910   3.987  18.168  0.00  0.00    +0.000 A 
ENDBRANCH  17  18
BRANCH  17  24
ATOM     24  C   UNL     1       5.022   4.535  17.877  0.00  0.00    +0.000 C 
BRANCH  24  25
ATOM     25  C   UNL     1       4.792   4.220  16.399  0.00  0.00    +0.000 C 
BRANCH  25  26
ATOM     26  C   UNL     1       5.831   4.878  15.502  0.00  0.00    +0.000 C 
ATOM     27  O   UNL     1       5.736   5.983  14.987  0.00  0.00    +0.000 OA
BRANCH  26  28
ATOM     28  O   UNL     1       6.913   4.084  15.300  0.00  0.00    +0.000 OA
ATOM     29  H   UNL     1       7.380   3.814  16.115  0.00  0.00    +0.000 HD
ENDBRANCH  26  28
ENDBRANCH  25  26
ENDBRANCH  24  25
ENDBRANCH  17  24
ENDBRANCH  10  15
BRANCH   1  30
ATOM     30  C   UNL     1      -1.624  12.731  22.715  0.00  0.00    +0.000 C 
BRANCH  30  34
ATOM     31  C   UNL     1      -4.294  15.978  24.155  0.00  0.00    +0.000 A 
ATOM     32  C   UNL     1      -4.594  15.237  22.997  0.00  0.00    +0.000 A 
ATOM     33  C   UNL     1      -3.763  14.191  22.508  0.00  0.00    +0.000 A 
ATOM     34  C   UNL     1      -2.600  13.837  23.171  0.00  0.00    +0.000 A 
ATOM     35  C   UNL     1      -2.287  14.612  24.337  0.00  0.00    +0.000 A 
ATOM     36  C   UNL     1      -3.117  15.655  24.830  0.00  0.00    +0.000 A 
BRANCH  31  38
ATOM     37  N   UNL     1      -6.395  17.205  23.974  0.00  0.00    +0.000 NA
ATOM     38  C   UNL     1      -5.260  17.060  24.609  0.00  0.00    +0.000 C 
ATOM     39  N   UNL     1      -5.007  17.898  25.659  0.00  0.00    +0.000 N 
ATOM     40  H   UNL     1      -6.944  17.942  24.407  0.00  0.00    +0.000 HD
ATOM     41  H   UNL     1      -5.578  18.738  25.715  0.00  0.00    +0.000 HD
ATOM     42  H   UNL     1      -4.045  18.078  25.912  0.00  0.00    +0.000 HD
ENDBRANCH  31  38
ENDBRANCH  30  34
ENDBRANCH   1  30
TORSDOF 9
ENDMDL
MODEL 7
REMARK VINA RESULT:      -8.6      2.260      2.706
REMARK  Name = 
REMARK  9 active torsions:
REMARK  status: ('A' for Active; 'I' for Inactive)
REMARK    1  A    between atoms: C_2  and  C_4
REMARK    2  A    between atoms: C_7  and  C_8
REMARK    3  A    between atoms: C_8  and  C_9
REMARK    4  A    between atoms: C_18  and  C_19
REMARK    5  A    between atoms: N_21  and  C_22
REMARK    6  A    between atoms: N_21  and  C_27
REMARK    7  A    between atoms: C_22  and  C_23
REMARK    8  A    between atoms: C_23  and  C_24
REMARK    9  A    between atoms: C_24  and  O_26
REMARK                            x       y       z     vdW  Elec       q    Type
REMARK                         _______ _______ _______ _____ _____    ______ ____
ROOT
ATOM      1  C   UNL     1      -1.195  11.819  21.187  0.00  0.00    +0.000 C 
ATOM      2  N   UNL     1      -0.475  13.127  20.832  0.00  0.00    +0.000 NA
ATOM      3  C   UNL     1       0.167  13.176  19.525  0.00  0.00    +0.000 C 
ATOM      4  C   UNL     1       1.236  12.127  19.460  0.00  0.00    +0.000 C 
ATOM      5  N   UNL     1       0.600  10.843  19.657  0.00  0.00    +0.000 N 
ATOM      6  C   UNL     1      -0.175  10.595  20.788  0.00  0.00    +0.000 A 
ATOM      7  N   UNL     1       0.160   9.330  21.135  0.00  0.00    +0.000 NA
ATOM      8  C   UNL     1       1.030   8.783  20.076  0.00  0.00    +0.000 A 
ATOM      9  C   UNL     1       1.896   7.616  19.856  0.00  0.00    +0.000 A 
ATOM     10  C   UNL     1       2.645   7.448  18.620  0.00  0.00    +0.000 A 
ATOM     11  C   UNL     1       2.354   8.356  17.586  0.00  0.00    +0.000 A 
ATOM     12  C   UNL     1       1.574   9.495  17.777  0.00  0.00    +0.000 A 
ATOM     13  C   UNL     1       1.031   9.702  19.045  0.00  0.00    +0.000 A 
ATOM     14  H   UNL     1       0.232  13.279  21.557  0.00  0.00    +0.000 HD
ENDROOT
BRANCH  10  15
ATOM     15  C   UNL     1       3.893   6.572  18.229  0.00  0.00    +0.000 C 
ATOM     16  O   UNL     1       4.806   7.167  17.635  0.00  0.00    +0.000 OA
ATOM     17  N   UNL     1       4.083   5.200  18.477  0.00  0.00    +0.000 N 
BRANCH  17  18
ATOM     18  C   UNL     1       3.040   4.385  18.946  0.00  0.00    +0.000 A 
ATOM     19  C   UNL     1       2.083   3.891  18.052  0.00  0.00    +0.000 A 
ATOM     20  C   UNL     1       1.054   3.085  18.552  0.00  0.00    +0.000 A 
ATOM     21  C   UNL     1       1.028   2.758  19.915  0.00  0.00    +0.000 A 
ATOM     22  C   UNL     1       2.029   3.210  20.776  0.00  0.00    +0.000 A 
ATOM     23  C   UNL     1       3.053   3.999  20.279  0.00  0.00    +0.000 A 
ENDBRANCH  17  18
BRANCH  17  24
ATOM     24  C   UNL     1       5.245   4.449  17.868  0.00  0.00    +0.000 C 
BRANCH  24  25
ATOM     25  C   UNL     1       5.065   4.090  16.392  0.00  0.00    +0.000 C 
BRANCH  25  26
ATOM     26  C   UNL     1       6.391   4.051  15.645  0.00  0.00    +0.000 C 
ATOM     27  O   UNL     1       7.473   4.408  16.088  0.00  0.00    +0.000 OA
BRANCH  26  28
ATOM     28  O   UNL     1       6.254   3.581  14.380  0.00  0.00    +0.000 OA
ATOM     29  H   UNL     1       5.993   2.641  14.318  0.00  0.00    +0.000 HD
ENDBRANCH  26  28
ENDBRANCH  25  26
ENDBRANCH  24  25
ENDBRANCH  17  24
ENDBRANCH  10  15
BRANCH   1  30
ATOM     30  C   UNL     1      -1.791  12.323  22.605  0.00  0.00    +0.000 C 
BRANCH  30  34
ATOM     31  C   UNL     1      -2.201  16.144  24.837  0.00  0.00    +0.000 A 
ATOM     32  C   UNL     1      -0.994  15.784  24.208  0.00  0.00    +0.000 A 
ATOM     33  C   UNL     1      -0.828  14.571  23.485  0.00  0.00    +0.000 A 
ATOM     34  C   UNL     1      -1.873  13.672  23.353  0.00  0.00    +0.000 A 
ATOM     35  C   UNL     1      -3.093  14.033  24.017  0.00  0.00    +0.000 A 
ATOM     36  C   UNL     1      -3.263  15.247  24.737  0.00  0.00    +0.000 A 
BRANCH  31  38
ATOM     37  N   UNL     1      -3.362  18.206  25.432  0.00  0.00    +0.000 NA
ATOM     38  C   UNL     1      -2.284  17.476  25.565  0.00  0.00    +0.000 C 
ATOM     39  N   UNL     1      -1.283  17.957  26.362  0.00  0.00    +0.000 N 
ATOM     40  H   UNL     1      -3.284  19.047  25.997  0.00  0.00    +0.000 HD
ATOM     41  H   UNL     1      -1.319  18.949  26.585  0.00  0.00    +0.000 HD
ATOM     42  H   UNL     1      -0.337  17.643  26.194  0.00  0.00    +0.000 HD
ENDBRANCH  31  38
ENDBRANCH  30  34
ENDBRANCH   1  30
TORSDOF 9
ENDMDL
MODEL 8
REMARK VINA RESULT:      -8.6      1.732      2.292
REMARK  Name = 
REMARK  9 active torsions:
REMARK  status: ('A' for Active; 'I' for Inactive)
REMARK    1  A    between atoms: C_2  and  C_4
REMARK    2  A    between atoms: C_7  and  C_8
REMARK    3  A    between atoms: C_8  and  C_9
REMARK    4  A    between atoms: C_18  and  C_19
REMARK    5  A    between atoms: N_21  and  C_22
REMARK    6  A    between atoms: N_21  and  C_27
REMARK    7  A    between atoms: C_22  and  C_23
REMARK    8  A    between atoms: C_23  and  C_24
REMARK    9  A    between atoms: C_24  and  O_26
REMARK                            x       y       z     vdW  Elec       q    Type
REMARK                         _______ _______ _______ _____ _____    ______ ____
ROOT
ATOM      1  C   UNL     1      -0.859  10.882  21.042  0.00  0.00    +0.000 C 
ATOM      2  N   UNL     1      -0.510  12.255  20.450  0.00  0.00    +0.000 NA
ATOM      3  C   UNL     1      -0.100  12.269  19.053  0.00  0.00    +0.000 C 
ATOM      4  C   UNL     1       1.154  11.460  18.898  0.00  0.00    +0.000 C 
ATOM      5  N   UNL     1       0.856  10.109  19.318  0.00  0.00    +0.000 N 
ATOM      6  C   UNL     1       0.335   9.852  20.584  0.00  0.00    +0.000 A 
ATOM      7  N   UNL     1       0.991   8.736  20.980  0.00  0.00    +0.000 NA
ATOM      8  C   UNL     1       1.791   8.249  19.839  0.00  0.00    +0.000 A 
ATOM      9  C   UNL     1       2.851   7.265  19.579  0.00  0.00    +0.000 A 
ATOM     10  C   UNL     1       3.424   7.100  18.251  0.00  0.00    +0.000 A 
ATOM     11  C   UNL     1       2.785   7.792  17.206  0.00  0.00    +0.000 A 
ATOM     12  C   UNL     1       1.810   8.763  17.426  0.00  0.00    +0.000 A 
ATOM     13  C   UNL     1       1.432   9.012  18.745  0.00  0.00    +0.000 A 
ATOM     14  H   UNL     1       0.246  12.638  21.024  0.00  0.00    +0.000 HD
ENDROOT
BRANCH  10  15
ATOM     15  C   UNL     1       4.761   6.455  17.729  0.00  0.00    +0.000 C 
ATOM     16  O   UNL     1       5.543   7.226  17.150  0.00  0.00    +0.000 OA
ATOM     17  N   UNL     1       5.163   5.112  17.848  0.00  0.00    +0.000 N 
BRANCH  17  18
ATOM     18  C   UNL     1       4.278   4.115  18.290  0.00  0.00    +0.000 A 
ATOM     19  C   UNL     1       4.255   3.750  19.641  0.00  0.00    +0.000 A 
ATOM     20  C   UNL     1       3.364   2.750  20.048  0.00  0.00    +0.000 A 
ATOM     21  C   UNL     1       2.494   2.173  19.113  0.00  0.00    +0.000 A 
ATOM     22  C   UNL     1       2.491   2.599  17.784  0.00  0.00    +0.000 A 
ATOM     23  C   UNL     1       3.365   3.595  17.383  0.00  0.00    +0.000 A 
ENDBRANCH  17  18
BRANCH  17  24
ATOM     24  C   UNL     1       6.385   4.595  17.124  0.00  0.00    +0.000 C 
BRANCH  24  25
ATOM     25  C   UNL     1       7.631   4.457  17.998  0.00  0.00    +0.000 C 
BRANCH  25  26
ATOM     26  C   UNL     1       7.837   5.668  18.900  0.00  0.00    +0.000 C 
ATOM     27  O   UNL     1       8.157   6.788  18.532  0.00  0.00    +0.000 OA
BRANCH  26  28
ATOM     28  O   UNL     1       7.644   5.371  20.210  0.00  0.00    +0.000 OA
ATOM     29  H   UNL     1       8.251   4.696  20.571  0.00  0.00    +0.000 HD
ENDBRANCH  26  28
ENDBRANCH  25  26
ENDBRANCH  24  25
ENDBRANCH  17  24
ENDBRANCH  10  15
BRANCH   1  30
ATOM     30  C   UNL     1      -1.332  11.429  22.491  0.00  0.00    +0.000 C 
BRANCH  30  34
ATOM     31  C   UNL     1      -3.968  14.642  24.065  0.00  0.00    +0.000 A 
ATOM     32  C   UNL     1      -2.771  14.938  23.385  0.00  0.00    +0.000 A 
ATOM     33  C   UNL     1      -1.904  13.935  22.868  0.00  0.00    +0.000 A 
ATOM     34  C   UNL     1      -2.211  12.591  23.001  0.00  0.00    +0.000 A 
ATOM     35  C   UNL     1      -3.420  12.296  23.716  0.00  0.00    +0.000 A 
ATOM     36  C   UNL     1      -4.289  13.295  24.231  0.00  0.00    +0.000 A 
BRANCH  31  38
ATOM     37  N   UNL     1      -6.104  15.809  24.232  0.00  0.00    +0.000 NA
ATOM     38  C   UNL     1      -4.837  15.787  24.559  0.00  0.00    +0.000 C 
ATOM     39  N   UNL     1      -4.363  16.806  25.337  0.00  0.00    +0.000 N 
ATOM     40  H   UNL     1      -6.559  16.612  24.656  0.00  0.00    +0.000 HD
ATOM     41  H   UNL     1      -4.942  17.640  25.392  0.00  0.00    +0.000 HD
ATOM     42  H   UNL     1      -3.379  17.032  25.290  0.00  0.00    +0.000 HD
ENDBRANCH  31  38
ENDBRANCH  30  34
ENDBRANCH   1  30
TORSDOF 9
ENDMDL
MODEL 9
REMARK VINA RESULT:      -8.5      3.407      5.470
REMARK  Name = 
REMARK  9 active torsions:
REMARK  status: ('A' for Active; 'I' for Inactive)
REMARK    1  A    between atoms: C_2  and  C_4
REMARK    2  A    between atoms: C_7  and  C_8
REMARK    3  A    between atoms: C_8  and  C_9
REMARK    4  A    between atoms: C_18  and  C_19
REMARK    5  A    between atoms: N_21  and  C_22
REMARK    6  A    between atoms: N_21  and  C_27
REMARK    7  A    between atoms: C_22  and  C_23
REMARK    8  A    between atoms: C_23  and  C_24
REMARK    9  A    between atoms: C_24  and  O_26
REMARK                            x       y       z     vdW  Elec       q    Type
REMARK                         _______ _______ _______ _____ _____    ______ ____
ROOT
ATOM      1  C   UNL     1       0.111  11.907  21.557  0.00  0.00    +0.000 C 
ATOM      2  N   UNL     1      -1.002  11.330  22.442  0.00  0.00    +0.000 NA
ATOM      3  C   UNL     1      -0.733  10.034  23.052  0.00  0.00    +0.000 C 
ATOM      4  C   UNL     1      -0.539   9.011  21.973  0.00  0.00    +0.000 C 
ATOM      5  N   UNL     1       0.590   9.431  21.173  0.00  0.00    +0.000 N 
ATOM      6  C   UNL     1       0.617  10.690  20.577  0.00  0.00    +0.000 A 
ATOM      7  N   UNL     1       1.146  10.455  19.354  0.00  0.00    +0.000 NA
ATOM      8  C   UNL     1       1.586   9.047  19.311  0.00  0.00    +0.000 A 
ATOM      9  C   UNL     1       2.045   8.067  18.316  0.00  0.00    +0.000 A 
ATOM     10  C   UNL     1       2.372   6.700  18.692  0.00  0.00    +0.000 A 
ATOM     11  C   UNL     1       2.404   6.423  20.071  0.00  0.00    +0.000 A 
ATOM     12  C   UNL     1       1.933   7.314  21.033  0.00  0.00    +0.000 A 
ATOM     13  C   UNL     1       1.454   8.548  20.592  0.00  0.00    +0.000 A 
ATOM     14  H   UNL     1      -1.836  11.255  21.853  0.00  0.00    +0.000 HD
ENDROOT
BRANCH  10  15
ATOM     15  C   UNL     1       2.513   5.364  17.872  0.00  0.00    +0.000 C 
ATOM     16  O   UNL     1       1.457   4.748  17.658  0.00  0.00    +0.000 OA
ATOM     17  N   UNL     1       3.695   4.798  17.361  0.00  0.00    +0.000 N 
BRANCH  17  18
ATOM     18  C   UNL     1       4.961   5.288  17.719  0.00  0.00    +0.000 A 
ATOM     19  C   UNL     1       5.652   6.140  16.850  0.00  0.00    +0.000 A 
ATOM     20  C   UNL     1       6.914   6.608  17.235  0.00  0.00    +0.000 A 
ATOM     21  C   UNL     1       7.433   6.253  18.488  0.00  0.00    +0.000 A 
ATOM     22  C   UNL     1       6.698   5.454  19.364  0.00  0.00    +0.000 A 
ATOM     23  C   UNL     1       5.446   4.999  18.987  0.00  0.00    +0.000 A 
ENDBRANCH  17  18
BRANCH  17  24
ATOM     24  C   UNL     1       3.702   3.408  16.765  0.00  0.00    +0.000 C 
BRANCH  24  25
ATOM     25  C   UNL     1       3.957   2.287  17.772  0.00  0.00    +0.000 C 
BRANCH  25  26
ATOM     26  C   UNL     1       2.851   2.188  18.814  0.00  0.00    +0.000 C 
ATOM     27  O   UNL     1       2.955   2.475  19.998  0.00  0.00    +0.000 OA
BRANCH  26  28
ATOM     28  O   UNL     1       1.693   1.712  18.291  0.00  0.00    +0.000 OA
ATOM     29  H   UNL     1       1.739   1.473  17.345  0.00  0.00    +0.000 HD
ENDBRANCH  26  28
ENDBRANCH  25  26
ENDBRANCH  24  25
ENDBRANCH  17  24
ENDBRANCH  10  15
BRANCH   1  30
ATOM     30  C   UNL     1      -0.620  13.320  21.253  0.00  0.00    +0.000 C 
BRANCH  30  34
ATOM     31  C   UNL     1      -0.148  16.774  18.497  0.00  0.00    +0.000 A 
ATOM     32  C   UNL     1       0.780  15.715  18.517  0.00  0.00    +0.000 A 
ATOM     33  C   UNL     1       0.660  14.595  19.385  0.00  0.00    +0.000 A 
ATOM     34  C   UNL     1      -0.407  14.484  20.261  0.00  0.00    +0.000 A 
ATOM     35  C   UNL     1      -1.336  15.577  20.253  0.00  0.00    +0.000 A 
ATOM     36  C   UNL     1      -1.220  16.697  19.384  0.00  0.00    +0.000 A 
BRANCH  31  38
ATOM     37  N   UNL     1      -0.983  18.594  17.102  0.00  0.00    +0.000 NA
ATOM     38  C   UNL     1       0.057  17.915  17.514  0.00  0.00    +0.000 C 
ATOM     39  N   UNL     1       1.285  18.277  17.033  0.00  0.00    +0.000 N 
ATOM     40  H   UNL     1      -0.687  19.338  16.477  0.00  0.00    +0.000 HD
ATOM     41  H   UNL     1       1.290  18.861  16.200  0.00  0.00    +0.000 HD
ATOM     42  H   UNL     1       2.020  17.583  17.012  0.00  0.00    +0.000 HD
ENDBRANCH  31  38
ENDBRANCH  30  34
ENDBRANCH   1  30
TORSDOF 9
ENDMDL
