MODEL 1
REMARK VINA RESULT:      -9.5      0.000      0.000
REMARK  Name = 
REMARK  6 active torsions:
REMARK  status: ('A' for Active; 'I' for Inactive)
REMARK    1  A    between atoms: C_1  and  C_2
REMARK    2  A    between atoms: C_5  and  C_6
REMARK    3  A    between atoms: N_7  and  C_8
REMARK    4  A    between atoms: C_13  and  C_14
REMARK    5  A    between atoms: N_16  and  N_17
REMARK    6  A    between atoms: N_17  and  C_18
REMARK                            x       y       z     vdW  Elec       q    Type
REMARK                         _______ _______ _______ _____ _____    ______ ____
ROOT
ATOM      1  C   UNL     1       7.614   7.460  17.754  0.00  0.00    +0.000 C 
ATOM      2  O   UNL     1       8.283   7.126  18.750  0.00  0.00    +0.000 OA
ATOM      3  N   UNL     1       7.730   8.833  17.314  0.00  0.00    +0.000 N 
ATOM      4  H   UNL     1       6.909   9.250  16.882  0.00  0.00    +0.000 HD
ENDROOT
BRANCH   1  10
ATOM      5  C   UNL     1       5.351   6.331  17.016  0.00  0.00    +0.000 A 
ATOM      6  C   UNL     1       4.734   5.211  16.366  0.00  0.00    +0.000 A 
ATOM      7  C   UNL     1       5.458   4.175  15.795  0.00  0.00    +0.000 A 
ATOM      8  C   UNL     1       6.828   4.187  15.913  0.00  0.00    +0.000 A 
ATOM      9  C   UNL     1       7.455   5.256  16.597  0.00  0.00    +0.000 A 
ATOM     10  C   UNL     1       6.746   6.359  17.154  0.00  0.00    +0.000 A 
BRANCH   5  12
ATOM     11  C   UNL     1       3.289   7.012  17.758  0.00  0.00    +0.000 C 
ATOM     12  N   UNL     1       4.508   7.327  17.551  0.00  0.00    +0.000 NA
BRANCH  11  17
ATOM     13  C   UNL     1       0.002  10.574  20.824  0.00  0.00    +0.000 C 
ATOM     14  C   UNL     1       0.853   9.636  20.027  0.00  0.00    +0.000 A 
ATOM     15  C   UNL     1       1.197   9.958  18.710  0.00  0.00    +0.000 A 
ATOM     16  C   UNL     1       1.973   9.092  17.973  0.00  0.00    +0.000 A 
ATOM     17  C   UNL     1       2.407   7.885  18.534  0.00  0.00    +0.000 A 
ATOM     18  C   UNL     1       2.079   7.560  19.859  0.00  0.00    +0.000 A 
ATOM     19  C   UNL     1       1.299   8.430  20.602  0.00  0.00    +0.000 A 
ENDBRANCH  11  17
ENDBRANCH   5  12
ENDBRANCH   1  10
BRANCH   3  20
ATOM     20  N   UNL     1       8.376   9.587  18.365  0.00  0.00    +0.000 N 
ATOM     21  H   UNL     1       8.255   9.024  19.223  0.00  0.00    +0.000 HD
BRANCH  20  22
ATOM     22  C   UNL     1       9.618  10.370  18.529  0.00  0.00    +0.000 A 
ATOM     23  C   UNL     1       9.704  10.553  19.902  0.00  0.00    +0.000 A 
ATOM     24  C   UNL     1       9.028  11.695  20.317  0.00  0.00    +0.000 A 
ATOM     25  N   UNL     1       8.730  12.728  19.491  0.00  0.00    +0.000 NA
ATOM     26  C   UNL     1       9.381  12.734  18.329  0.00  0.00    +0.000 A 
ATOM     27  C   UNL     1       9.737  13.989  17.853  0.00  0.00    +0.000 A 
ATOM     28  C   UNL     1      10.994  14.188  17.310  0.00  0.00    +0.000 A 
ATOM     29 CL   UNL     1      11.545  15.790  16.968  0.00  0.00    +0.000 Cl
ATOM     30  C   UNL     1      11.870  13.118  17.212  0.00  0.00    +0.000 A 
ATOM     31  C   UNL     1      11.376  11.811  17.471  0.00  0.00    +0.000 A 
ATOM     32  C   UNL     1      10.033  11.566  17.900  0.00  0.00    +0.000 A 
ENDBRANCH  20  22
ENDBRANCH   3  20
TORSDOF 5
ENDMDL
MODEL 2
REMARK VINA RESULT:      -8.9      5.920      8.785
REMARK  Name = 
REMARK  6 active torsions:
REMARK  status: ('A' for Active; 'I' for Inactive)
REMARK    1  A    between atoms: C_1  and  C_2
REMARK    2  A    between atoms: C_5  and  C_6
REMARK    3  A    between atoms: N_7  and  C_8
REMARK    4  A    between atoms: C_13  and  C_14
REMARK    5  A    between atoms: N_16  and  N_17
REMARK    6  A    between atoms: N_17  and  C_18
REMARK                            x       y       z     vdW  Elec       q    Type
REMARK                         _______ _______ _______ _____ _____    ______ ____
ROOT
ATOM      1  C   UNL     1       2.059   6.513  19.725  0.00  0.00    +0.000 C 
ATOM      2  O   UNL     1       1.534   7.059  20.715  0.00  0.00    +0.000 OA
ATOM      3  N   UNL     1       2.550   7.383  18.679  0.00  0.00    +0.000 N 
ATOM      4  H   UNL     1       2.517   7.025  17.728  0.00  0.00    +0.000 HD
ENDROOT
BRANCH   1  10
ATOM      5  C   UNL     1       2.820   4.114  18.947  0.00  0.00    +0.000 A 
ATOM      6  C   UNL     1       2.740   2.703  19.187  0.00  0.00    +0.000 A 
ATOM      7  C   UNL     1       2.025   2.153  20.240  0.00  0.00    +0.000 A 
ATOM      8  C   UNL     1       1.303   2.995  21.055  0.00  0.00    +0.000 A 
ATOM      9  C   UNL     1       1.324   4.388  20.804  0.00  0.00    +0.000 A 
ATOM     10  C   UNL     1       2.086   4.989  19.760  0.00  0.00    +0.000 A 
BRANCH   5  12
ATOM     11  C   UNL     1       4.762   4.070  17.726  0.00  0.00    +0.000 C 
ATOM     12  N   UNL     1       3.587   4.552  17.847  0.00  0.00    +0.000 NA
BRANCH  11  17
ATOM     13  C   UNL     1       7.756   5.062  12.935  0.00  0.00    +0.000 C 
ATOM     14  C   UNL     1       6.972   4.794  14.181  0.00  0.00    +0.000 A 
ATOM     15  C   UNL     1       7.537   5.067  15.431  0.00  0.00    +0.000 A 
ATOM     16  C   UNL     1       6.821   4.812  16.578  0.00  0.00    +0.000 A 
ATOM     17  C   UNL     1       5.533   4.268  16.498  0.00  0.00    +0.000 A 
ATOM     18  C   UNL     1       4.952   4.004  15.248  0.00  0.00    +0.000 A 
ATOM     19  C   UNL     1       5.672   4.259  14.093  0.00  0.00    +0.000 A 
ENDBRANCH  11  17
ENDBRANCH   5  12
ENDBRANCH   1  10
BRANCH   3  20
ATOM     20  N   UNL     1       2.010   8.705  18.904  0.00  0.00    +0.000 N 
ATOM     21  H   UNL     1       2.811   9.280  19.213  0.00  0.00    +0.000 HD
BRANCH  20  22
ATOM     22  C   UNL     1       1.053   9.611  18.238  0.00  0.00    +0.000 A 
ATOM     23  C   UNL     1       1.834  10.705  17.892  0.00  0.00    +0.000 A 
ATOM     24  C   UNL     1       1.888  11.648  18.912  0.00  0.00    +0.000 A 
ATOM     25  N   UNL     1       0.964  11.733  19.900  0.00  0.00    +0.000 NA
ATOM     26  C   UNL     1      -0.168  11.065  19.681  0.00  0.00    +0.000 A 
ATOM     27  C   UNL     1      -1.321  11.678  20.152  0.00  0.00    +0.000 A 
ATOM     28  C   UNL     1      -2.461  11.692  19.367  0.00  0.00    +0.000 A 
ATOM     29 CL   UNL     1      -3.808  12.678  19.817  0.00  0.00    +0.000 Cl
ATOM     30  C   UNL     1      -2.447  11.059  18.134  0.00  0.00    +0.000 A 
ATOM     31  C   UNL     1      -1.338  10.232  17.809  0.00  0.00    +0.000 A 
ATOM     32  C   UNL     1      -0.205  10.089  18.671  0.00  0.00    +0.000 A 
ENDBRANCH  20  22
ENDBRANCH   3  20
TORSDOF 5
ENDMDL
MODEL 3
REMARK VINA RESULT:      -8.2      5.621      8.436
REMARK  Name = 
REMARK  6 active torsions:
REMARK  status: ('A' for Active; 'I' for Inactive)
REMARK    1  A    between atoms: C_1  and  C_2
REMARK    2  A    between atoms: C_5  and  C_6
REMARK    3  A    between atoms: N_7  and  C_8
REMARK    4  A    between atoms: C_13  and  C_14
REMARK    5  A    between atoms: N_16  and  N_17
REMARK    6  A    between atoms: N_17  and  C_18
REMARK                            x       y       z     vdW  Elec       q    Type
REMARK                         _______ _______ _______ _____ _____    ______ ____
ROOT
ATOM      1  C   UNL     1       2.030   6.396  19.939  0.00  0.00    +0.000 C 
ATOM      2  O   UNL     1       1.422   6.827  20.937  0.00  0.00    +0.000 OA
ATOM      3  N   UNL     1       2.576   7.377  19.028  0.00  0.00    +0.000 N 
ATOM      4  H   UNL     1       2.621   7.120  18.045  0.00  0.00    +0.000 HD
ENDROOT
BRANCH   1  10
ATOM      5  C   UNL     1       2.933   4.101  19.010  0.00  0.00    +0.000 A 
ATOM      6  C   UNL     1       2.861   2.672  19.092  0.00  0.00    +0.000 A 
ATOM      7  C   UNL     1       2.043   2.006  19.993  0.00  0.00    +0.000 A 
ATOM      8  C   UNL     1       1.213   2.748  20.800  0.00  0.00    +0.000 A 
ATOM      9  C   UNL     1       1.228   4.160  20.699  0.00  0.00    +0.000 A 
ATOM     10  C   UNL     1       2.090   4.877  19.819  0.00  0.00    +0.000 A 
BRANCH   5  12
ATOM     11  C   UNL     1       4.753   3.921  17.624  0.00  0.00    +0.000 C 
ATOM     12  N   UNL     1       3.810   4.663  18.059  0.00  0.00    +0.000 NA
BRANCH  11  17
ATOM     13  C   UNL     1       7.956   5.280  13.064  0.00  0.00    +0.000 C 
ATOM     14  C   UNL     1       7.121   4.936  14.258  0.00  0.00    +0.000 A 
ATOM     15  C   UNL     1       5.927   4.226  14.090  0.00  0.00    +0.000 A 
ATOM     16  C   UNL     1       5.154   3.917  15.186  0.00  0.00    +0.000 A 
ATOM     17  C   UNL     1       5.552   4.321  16.466  0.00  0.00    +0.000 A 
ATOM     18  C   UNL     1       6.756   5.020  16.645  0.00  0.00    +0.000 A 
ATOM     19  C   UNL     1       7.535   5.333  15.544  0.00  0.00    +0.000 A 
ENDBRANCH  11  17
ENDBRANCH   5  12
ENDBRANCH   1  10
BRANCH   3  20
ATOM     20  N   UNL     1       1.990   8.661  19.346  0.00  0.00    +0.000 N 
ATOM     21  H   UNL     1       2.784   9.266  19.612  0.00  0.00    +0.000 HD
BRANCH  20  22
ATOM     22  C   UNL     1       0.937   9.536  18.795  0.00  0.00    +0.000 A 
ATOM     23  C   UNL     1       1.534  10.087  17.669  0.00  0.00    +0.000 A 
ATOM     24  C   UNL     1       2.229  11.253  17.968  0.00  0.00    +0.000 A 
ATOM     25  N   UNL     1       1.988  12.004  19.071  0.00  0.00    +0.000 NA
ATOM     26  C   UNL     1       0.845  11.739  19.702  0.00  0.00    +0.000 A 
ATOM     27  C   UNL     1       0.197  12.840  20.247  0.00  0.00    +0.000 A 
ATOM     28  C   UNL     1      -1.175  12.964  20.115  0.00  0.00    +0.000 A 
ATOM     29 CL   UNL     1      -1.954  14.447  20.543  0.00  0.00    +0.000 Cl
ATOM     30  C   UNL     1      -1.890  11.966  19.473  0.00  0.00    +0.000 A 
ATOM     31  C   UNL     1      -1.227  10.748  19.163  0.00  0.00    +0.000 A 
ATOM     32  C   UNL     1       0.165  10.543  19.419  0.00  0.00    +0.000 A 
ENDBRANCH  20  22
ENDBRANCH   3  20
TORSDOF 5
ENDMDL
MODEL 4
REMARK VINA RESULT:      -8.0      5.398      7.018
REMARK  Name = 
REMARK  6 active torsions:
REMARK  status: ('A' for Active; 'I' for Inactive)
REMARK    1  A    between atoms: C_1  and  C_2
REMARK    2  A    between atoms: C_5  and  C_6
REMARK    3  A    between atoms: N_7  and  C_8
REMARK    4  A    between atoms: C_13  and  C_14
REMARK    5  A    between atoms: N_16  and  N_17
REMARK    6  A    between atoms: N_17  and  C_18
REMARK                            x       y       z     vdW  Elec       q    Type
REMARK                         _______ _______ _______ _____ _____    ______ ____
ROOT
ATOM      1  C   UNL     1       4.979   4.485  19.505  0.00  0.00    +0.000 C 
ATOM      2  O   UNL     1       5.261   5.696  19.581  0.00  0.00    +0.000 OA
ATOM      3  N   UNL     1       5.930   3.629  18.830  0.00  0.00    +0.000 N 
ATOM      4  H   UNL     1       5.556   2.824  18.334  0.00  0.00    +0.000 HD
ENDROOT
BRANCH   1  10
ATOM      5  C   UNL     1       2.417   4.764  20.055  0.00  0.00    +0.000 A 
ATOM      6  C   UNL     1       1.261   4.182  20.670  0.00  0.00    +0.000 A 
ATOM      7  C   UNL     1       1.272   2.935  21.276  0.00  0.00    +0.000 A 
ATOM      8  C   UNL     1       2.464   2.251  21.350  0.00  0.00    +0.000 A 
ATOM      9  C   UNL     1       3.631   2.831  20.796  0.00  0.00    +0.000 A 
ATOM     10  C   UNL     1       3.644   4.088  20.125  0.00  0.00    +0.000 A 
BRANCH   5  12
ATOM     11  C   UNL     1       1.560   6.893  20.078  0.00  0.00    +0.000 C 
ATOM     12  N   UNL     1       2.278   6.037  19.462  0.00  0.00    +0.000 NA
BRANCH  11  17
ATOM     13  C   UNL     1       1.332  12.399  18.488  0.00  0.00    +0.000 C 
ATOM     14  C   UNL     1       1.402  10.962  18.899  0.00  0.00    +0.000 A 
ATOM     15  C   UNL     1       0.961  10.580  20.171  0.00  0.00    +0.000 A 
ATOM     16  C   UNL     1       1.033   9.260  20.553  0.00  0.00    +0.000 A 
ATOM     17  C   UNL     1       1.558   8.301  19.679  0.00  0.00    +0.000 A 
ATOM     18  C   UNL     1       1.989   8.672  18.396  0.00  0.00    +0.000 A 
ATOM     19  C   UNL     1       1.918  10.000  18.010  0.00  0.00    +0.000 A 
ENDBRANCH  11  17
ENDBRANCH   5  12
ENDBRANCH   1  10
BRANCH   3  20
ATOM     20  N   UNL     1       6.859   4.472  18.110  0.00  0.00    +0.000 N 
ATOM     21  H   UNL     1       7.788   4.259  18.509  0.00  0.00    +0.000 HD
BRANCH  20  22
ATOM     22  C   UNL     1       7.071   4.903  16.714  0.00  0.00    +0.000 A 
ATOM     23  C   UNL     1       6.680   6.234  16.726  0.00  0.00    +0.000 A 
ATOM     24  C   UNL     1       5.320   6.378  16.475  0.00  0.00    +0.000 A 
ATOM     25  N   UNL     1       4.572   5.434  15.853  0.00  0.00    +0.000 NA
ATOM     26  C   UNL     1       5.262   4.487  15.219  0.00  0.00    +0.000 A 
ATOM     27  C   UNL     1       4.701   4.037  14.031  0.00  0.00    +0.000 A 
ATOM     28  C   UNL     1       5.507   3.832  12.925  0.00  0.00    +0.000 A 
ATOM     29 CL   UNL     1       4.794   3.538  11.378  0.00  0.00    +0.000 Cl
ATOM     30  C   UNL     1       6.873   4.042  13.030  0.00  0.00    +0.000 A 
ATOM     31  C   UNL     1       7.430   4.250  14.320  0.00  0.00    +0.000 A 
ATOM     32  C   UNL     1       6.628   4.326  15.502  0.00  0.00    +0.000 A 
ENDBRANCH  20  22
ENDBRANCH   3  20
TORSDOF 5
ENDMDL
MODEL 5
REMARK VINA RESULT:      -7.9      6.026      8.958
REMARK  Name = 
REMARK  6 active torsions:
REMARK  status: ('A' for Active; 'I' for Inactive)
REMARK    1  A    between atoms: C_1  and  C_2
REMARK    2  A    between atoms: C_5  and  C_6
REMARK    3  A    between atoms: N_7  and  C_8
REMARK    4  A    between atoms: C_13  and  C_14
REMARK    5  A    between atoms: N_16  and  N_17
REMARK    6  A    between atoms: N_17  and  C_18
REMARK                            x       y       z     vdW  Elec       q    Type
REMARK                         _______ _______ _______ _____ _____    ______ ____
ROOT
ATOM      1  C   UNL     1       2.062   6.741  19.566  0.00  0.00    +0.000 C 
ATOM      2  O   UNL     1       2.071   7.039  18.357  0.00  0.00    +0.000 OA
ATOM      3  N   UNL     1       1.690   7.783  20.498  0.00  0.00    +0.000 N 
ATOM      4  H   UNL     1       2.120   7.753  21.419  0.00  0.00    +0.000 HD
ENDROOT
BRANCH   1  10
ATOM      5  C   UNL     1       3.373   4.486  19.195  0.00  0.00    +0.000 A 
ATOM      6  C   UNL     1       3.657   3.175  19.702  0.00  0.00    +0.000 A 
ATOM      7  C   UNL     1       3.136   2.696  20.894  0.00  0.00    +0.000 A 
ATOM      8  C   UNL     1       2.252   3.487  21.591  0.00  0.00    +0.000 A 
ATOM      9  C   UNL     1       1.916   4.765  21.081  0.00  0.00    +0.000 A 
ATOM     10  C   UNL     1       2.470   5.306  19.885  0.00  0.00    +0.000 A 
BRANCH   5  12
ATOM     11  C   UNL     1       5.136   4.403  17.727  0.00  0.00    +0.000 C 
ATOM     12  N   UNL     1       3.971   4.863  17.974  0.00  0.00    +0.000 NA
BRANCH  11  17
ATOM     13  C   UNL     1       7.478   4.681  12.499  0.00  0.00    +0.000 C 
ATOM     14  C   UNL     1       6.871   4.619  13.865  0.00  0.00    +0.000 A 
ATOM     15  C   UNL     1       5.547   4.194  14.020  0.00  0.00    +0.000 A 
ATOM     16  C   UNL     1       4.984   4.144  15.275  0.00  0.00    +0.000 A 
ATOM     17  C   UNL     1       5.729   4.530  16.396  0.00  0.00    +0.000 A 
ATOM     18  C   UNL     1       7.062   4.944  16.253  0.00  0.00    +0.000 A 
ATOM     19  C   UNL     1       7.629   4.995  14.991  0.00  0.00    +0.000 A 
ENDBRANCH  11  17
ENDBRANCH   5  12
ENDBRANCH   1  10
BRANCH   3  20
ATOM     20  N   UNL     1       1.726   9.046  19.795  0.00  0.00    +0.000 N 
ATOM     21  H   UNL     1       2.725   9.226  19.602  0.00  0.00    +0.000 HD
BRANCH  20  22
ATOM     22  C   UNL     1       0.948   9.716  18.732  0.00  0.00    +0.000 A 
ATOM     23  C   UNL     1       1.668  10.879  18.492  0.00  0.00    +0.000 A 
ATOM     24  C   UNL     1       1.267  11.918  19.325  0.00  0.00    +0.000 A 
ATOM     25  N   UNL     1       0.062  11.956  19.944  0.00  0.00    +0.000 NA
ATOM     26  C   UNL     1      -0.845  11.097  19.480  0.00  0.00    +0.000 A 
ATOM     27  C   UNL     1      -2.152  11.564  19.463  0.00  0.00    +0.000 A 
ATOM     28  C   UNL     1      -2.957  11.317  18.365  0.00  0.00    +0.000 A 
ATOM     29 CL   UNL     1      -4.481  12.117  18.212  0.00  0.00    +0.000 Cl
ATOM     30  C   UNL     1      -2.457  10.572  17.309  0.00  0.00    +0.000 A 
ATOM     31  C   UNL     1      -1.215   9.902  17.479  0.00  0.00    +0.000 A 
ATOM     32  C   UNL     1      -0.428  10.030  18.667  0.00  0.00    +0.000 A 
ENDBRANCH  20  22
ENDBRANCH   3  20
TORSDOF 5
ENDMDL
MODEL 6
REMARK VINA RESULT:      -7.9      5.825      8.527
REMARK  Name = 
REMARK  6 active torsions:
REMARK  status: ('A' for Active; 'I' for Inactive)
REMARK    1  A    between atoms: C_1  and  C_2
REMARK    2  A    between atoms: C_5  and  C_6
REMARK    3  A    between atoms: N_7  and  C_8
REMARK    4  A    between atoms: C_13  and  C_14
REMARK    5  A    between atoms: N_16  and  N_17
REMARK    6  A    between atoms: N_17  and  C_18
REMARK                            x       y       z     vdW  Elec       q    Type
REMARK                         _______ _______ _______ _____ _____    ______ ____
ROOT
ATOM      1  C   UNL     1       2.119   6.599  19.789  0.00  0.00    +0.000 C 
ATOM      2  O   UNL     1       2.008   7.066  20.939  0.00  0.00    +0.000 OA
ATOM      3  N   UNL     1       2.233   7.548  18.703  0.00  0.00    +0.000 N 
ATOM      4  H   UNL     1       1.845   7.271  17.805  0.00  0.00    +0.000 HD
ENDROOT
BRANCH   1  10
ATOM      5  C   UNL     1       2.932   4.239  18.947  0.00  0.00    +0.000 A 
ATOM      6  C   UNL     1       2.774   2.818  19.052  0.00  0.00    +0.000 A 
ATOM      7  C   UNL     1       1.878   2.218  19.923  0.00  0.00    +0.000 A 
ATOM      8  C   UNL     1       1.054   3.022  20.675  0.00  0.00    +0.000 A 
ATOM      9  C   UNL     1       1.155   4.428  20.549  0.00  0.00    +0.000 A 
ATOM     10  C   UNL     1       2.097   5.077  19.700  0.00  0.00    +0.000 A 
BRANCH   5  12
ATOM     11  C   UNL     1       4.586   3.870  17.399  0.00  0.00    +0.000 C 
ATOM     12  N   UNL     1       3.884   4.730  18.030  0.00  0.00    +0.000 NA
BRANCH  11  17
ATOM     13  C   UNL     1       7.905   5.207  12.917  0.00  0.00    +0.000 C 
ATOM     14  C   UNL     1       7.039   4.868  14.090  0.00  0.00    +0.000 A 
ATOM     15  C   UNL     1       5.869   4.125  13.900  0.00  0.00    +0.000 A 
ATOM     16  C   UNL     1       5.068   3.821  14.977  0.00  0.00    +0.000 A 
ATOM     17  C   UNL     1       5.413   4.264  16.259  0.00  0.00    +0.000 A 
ATOM     18  C   UNL     1       6.592   4.998  16.461  0.00  0.00    +0.000 A 
ATOM     19  C   UNL     1       7.399   5.306  15.379  0.00  0.00    +0.000 A 
ENDBRANCH  11  17
ENDBRANCH   5  12
ENDBRANCH   1  10
BRANCH   3  20
ATOM     20  N   UNL     1       1.863   8.852  19.207  0.00  0.00    +0.000 N 
ATOM     21  H   UNL     1       2.356   9.530  18.602  0.00  0.00    +0.000 HD
BRANCH  20  22
ATOM     22  C   UNL     1       0.638   9.515  19.697  0.00  0.00    +0.000 A 
ATOM     23  C   UNL     1       0.012   9.937  18.532  0.00  0.00    +0.000 A 
ATOM     24  C   UNL     1       0.439  11.201  18.142  0.00  0.00    +0.000 A 
ATOM     25  N   UNL     1       1.012  12.090  18.990  0.00  0.00    +0.000 NA
ATOM     26  C   UNL     1       0.872  11.813  20.286  0.00  0.00    +0.000 A 
ATOM     27  C   UNL     1       0.701  12.915  21.114  0.00  0.00    +0.000 A 
ATOM     28  C   UNL     1      -0.244  12.875  22.124  0.00  0.00    +0.000 A 
ATOM     29 CL   UNL     1      -0.657  14.318  22.980  0.00  0.00    +0.000 Cl
ATOM     30  C   UNL     1      -0.982  11.718  22.320  0.00  0.00    +0.000 A 
ATOM     31  C   UNL     1      -0.597  10.541  21.623  0.00  0.00    +0.000 A 
ATOM     32  C   UNL     1       0.473  10.524  20.674  0.00  0.00    +0.000 A 
ENDBRANCH  20  22
ENDBRANCH   3  20
TORSDOF 5
ENDMDL
MODEL 7
REMARK VINA RESULT:      -7.9      1.551      2.316
REMARK  Name = 
REMARK  6 active torsions:
REMARK  status: ('A' for Active; 'I' for Inactive)
REMARK    1  A    between atoms: C_1  and  C_2
REMARK    2  A    between atoms: C_5  and  C_6
REMARK    3  A    between atoms: N_7  and  C_8
REMARK    4  A    between atoms: C_13  and  C_14
REMARK    5  A    between atoms: N_16  and  N_17
REMARK    6  A    between atoms: N_17  and  C_18
REMARK                            x       y       z     vdW  Elec       q    Type
REMARK                         _______ _______ _______ _____ _____    ______ ____
ROOT
ATOM      1  C   UNL     1       7.712   7.686  17.732  0.00  0.00    +0.000 C 
ATOM      2  O   UNL     1       8.381   7.439  18.753  0.00  0.00    +0.000 OA
ATOM      3  N   UNL     1       7.849   9.007  17.159  0.00  0.00    +0.000 N 
ATOM      4  H   UNL     1       7.033   9.395  16.692  0.00  0.00    +0.000 HD
ENDROOT
BRANCH   1  10
ATOM      5  C   UNL     1       5.421   6.490  17.219  0.00  0.00    +0.000 A 
ATOM      6  C   UNL     1       4.778   5.335  16.665  0.00  0.00    +0.000 A 
ATOM      7  C   UNL     1       5.475   4.288  16.081  0.00  0.00    +0.000 A 
ATOM      8  C   UNL     1       6.850   4.327  16.091  0.00  0.00    +0.000 A 
ATOM      9  C   UNL     1       7.508   5.433  16.681  0.00  0.00    +0.000 A 
ATOM     10  C   UNL     1       6.822   6.547  17.247  0.00  0.00    +0.000 A 
BRANCH   5  12
ATOM     11  C   UNL     1       3.340   7.331  17.699  0.00  0.00    +0.000 C 
ATOM     12  N   UNL     1       4.603   7.495  17.778  0.00  0.00    +0.000 NA
BRANCH  11  17
ATOM     13  C   UNL     1      -0.416  10.501  20.655  0.00  0.00    +0.000 C 
ATOM     14  C   UNL     1       0.569   9.683  19.880  0.00  0.00    +0.000 A 
ATOM     15  C   UNL     1       1.158   8.559  20.471  0.00  0.00    +0.000 A 
ATOM     16  C   UNL     1       2.071   7.811  19.763  0.00  0.00    +0.000 A 
ATOM     17  C   UNL     1       2.422   8.179  18.458  0.00  0.00    +0.000 A 
ATOM     18  C   UNL     1       1.826   9.296  17.852  0.00  0.00    +0.000 A 
ATOM     19  C   UNL     1       0.907  10.049  18.563  0.00  0.00    +0.000 A 
ENDBRANCH  11  17
ENDBRANCH   5  12
ENDBRANCH   1  10
BRANCH   3  20
ATOM     20  N   UNL     1       8.515   9.849  18.128  0.00  0.00    +0.000 N 
ATOM     21  H   UNL     1       9.305   9.286  18.485  0.00  0.00    +0.000 HD
BRANCH  20  22
ATOM     22  C   UNL     1       8.904  11.269  18.242  0.00  0.00    +0.000 A 
ATOM     23  C   UNL     1      10.207  11.285  17.766  0.00  0.00    +0.000 A 
ATOM     24  C   UNL     1      11.132  11.037  18.774  0.00  0.00    +0.000 A 
ATOM     25  N   UNL     1      10.866  11.218  20.091  0.00  0.00    +0.000 NA
ATOM     26  C   UNL     1       9.775  11.935  20.359  0.00  0.00    +0.000 A 
ATOM     27  C   UNL     1       9.868  12.768  21.466  0.00  0.00    +0.000 A 
ATOM     28  C   UNL     1       9.367  14.057  21.400  0.00  0.00    +0.000 A 
ATOM     29 CL   UNL     1       9.715  15.186  22.661  0.00  0.00    +0.000 Cl
ATOM     30  C   UNL     1       8.742  14.485  20.239  0.00  0.00    +0.000 A 
ATOM     31  C   UNL     1       8.443  13.525  19.235  0.00  0.00    +0.000 A 
ATOM     32  C   UNL     1       8.829  12.152  19.344  0.00  0.00    +0.000 A 
ENDBRANCH  20  22
ENDBRANCH   3  20
TORSDOF 5
ENDMDL
MODEL 8
REMARK VINA RESULT:      -7.9      4.056      8.408
REMARK  Name = 
REMARK  6 active torsions:
REMARK  status: ('A' for Active; 'I' for Inactive)
REMARK    1  A    between atoms: C_1  and  C_2
REMARK    2  A    between atoms: C_5  and  C_6
REMARK    3  A    between atoms: N_7  and  C_8
REMARK    4  A    between atoms: C_13  and  C_14
REMARK    5  A    between atoms: N_16  and  N_17
REMARK    6  A    between atoms: N_17  and  C_18
REMARK                            x       y       z     vdW  Elec       q    Type
REMARK                         _______ _______ _______ _____ _____    ______ ____
ROOT
ATOM      1  C   UNL     1       8.756   9.621  18.467  0.00  0.00    +0.000 C 
ATOM      2  O   UNL     1       7.792   9.955  17.752  0.00  0.00    +0.000 OA
ATOM      3  N   UNL     1       8.822   8.236  18.878  0.00  0.00    +0.000 N 
ATOM      4  H   UNL     1       9.244   8.042  19.782  0.00  0.00    +0.000 HD
ENDROOT
BRANCH   1  10
ATOM      5  C   UNL     1       9.872  11.407  20.050  0.00  0.00    +0.000 A 
ATOM      6  C   UNL     1      10.889  12.408  20.187  0.00  0.00    +0.000 A 
ATOM      7  C   UNL     1      11.794  12.710  19.180  0.00  0.00    +0.000 A 
ATOM      8  C   UNL     1      11.669  12.068  17.970  0.00  0.00    +0.000 A 
ATOM      9  C   UNL     1      10.638  11.114  17.795  0.00  0.00    +0.000 A 
ATOM     10  C   UNL     1       9.723  10.746  18.823  0.00  0.00    +0.000 A 
BRANCH   5  12
ATOM     11  C   UNL     1       9.145  11.956  22.157  0.00  0.00    +0.000 C 
ATOM     12  N   UNL     1       9.016  11.184  21.150  0.00  0.00    +0.000 NA
BRANCH  11  17
ATOM     13  C   UNL     1       5.303  11.787  26.412  0.00  0.00    +0.000 C 
ATOM     14  C   UNL     1       6.299  11.839  25.296  0.00  0.00    +0.000 A 
ATOM     15  C   UNL     1       7.664  11.939  25.587  0.00  0.00    +0.000 A 
ATOM     16  C   UNL     1       8.581  11.995  24.562  0.00  0.00    +0.000 A 
ATOM     17  C   UNL     1       8.151  11.966  23.230  0.00  0.00    +0.000 A 
ATOM     18  C   UNL     1       6.785  11.851  22.929  0.00  0.00    +0.000 A 
ATOM     19  C   UNL     1       5.861  11.795  23.959  0.00  0.00    +0.000 A 
ENDBRANCH  11  17
ENDBRANCH   5  12
ENDBRANCH   1  10
BRANCH   3  20
ATOM     20  N   UNL     1       7.539   7.626  18.605  0.00  0.00    +0.000 N 
ATOM     21  H   UNL     1       7.079   8.248  17.921  0.00  0.00    +0.000 HD
BRANCH  20  22
ATOM     22  C   UNL     1       7.014   6.264  18.381  0.00  0.00    +0.000 A 
ATOM     23  C   UNL     1       7.330   6.013  17.052  0.00  0.00    +0.000 A 
ATOM     24  C   UNL     1       6.331   6.450  16.190  0.00  0.00    +0.000 A 
ATOM     25  N   UNL     1       5.048   6.658  16.577  0.00  0.00    +0.000 NA
ATOM     26  C   UNL     1       4.717   6.133  17.756  0.00  0.00    +0.000 A 
ATOM     27  C   UNL     1       3.426   5.628  17.841  0.00  0.00    +0.000 A 
ATOM     28  C   UNL     1       3.202   4.416  18.470  0.00  0.00    +0.000 A 
ATOM     29 CL   UNL     1       1.658   3.649  18.345  0.00  0.00    +0.000 Cl
ATOM     30  C   UNL     1       4.267   3.740  19.042  0.00  0.00    +0.000 A 
ATOM     31  C   UNL     1       5.515   4.410  19.157  0.00  0.00    +0.000 A 
ATOM     32  C   UNL     1       5.732   5.725  18.636  0.00  0.00    +0.000 A 
ENDBRANCH  20  22
ENDBRANCH   3  20
TORSDOF 5
ENDMDL
MODEL 9
REMARK VINA RESULT:      -7.7      5.291      7.917
REMARK  Name = 
REMARK  6 active torsions:
REMARK  status: ('A' for Active; 'I' for Inactive)
REMARK    1  A    between atoms: C_1  and  C_2
REMARK    2  A    between atoms: C_5  and  C_6
REMARK    3  A    between atoms: N_7  and  C_8
REMARK    4  A    between atoms: C_13  and  C_14
REMARK    5  A    between atoms: N_16  and  N_17
REMARK    6  A    between atoms: N_17  and  C_18
REMARK                            x       y       z     vdW  Elec       q    Type
REMARK                         _______ _______ _______ _____ _____    ______ ____
ROOT
ATOM      1  C   UNL     1       2.159   6.532  20.100  0.00  0.00    +0.000 C 
ATOM      2  O   UNL     1       2.634   7.077  19.086  0.00  0.00    +0.000 OA
ATOM      3  N   UNL     1       1.371   7.361  20.985  0.00  0.00    +0.000 N 
ATOM      4  H   UNL     1       1.394   7.132  21.975  0.00  0.00    +0.000 HD
ENDROOT
BRANCH   1  10
ATOM      5  C   UNL     1       3.373   4.274  19.492  0.00  0.00    +0.000 A 
ATOM      6  C   UNL     1       3.599   2.906  19.859  0.00  0.00    +0.000 A 
ATOM      7  C   UNL     1       3.054   2.328  20.995  0.00  0.00    +0.000 A 
ATOM      8  C   UNL     1       2.203   3.079  21.773  0.00  0.00    +0.000 A 
ATOM      9  C   UNL     1       1.924   4.416  21.400  0.00  0.00    +0.000 A 
ATOM     10  C   UNL     1       2.504   5.055  20.266  0.00  0.00    +0.000 A 
BRANCH   5  12
ATOM     11  C   UNL     1       5.132   4.265  18.018  0.00  0.00    +0.000 C 
ATOM     12  N   UNL     1       3.990   4.751  18.317  0.00  0.00    +0.000 NA
BRANCH  11  17
ATOM     13  C   UNL     1       7.510   4.989  12.849  0.00  0.00    +0.000 C 
ATOM     14  C   UNL     1       6.893   4.810  14.201  0.00  0.00    +0.000 A 
ATOM     15  C   UNL     1       5.580   4.339  14.310  0.00  0.00    +0.000 A 
ATOM     16  C   UNL     1       5.008   4.183  15.552  0.00  0.00    +0.000 A 
ATOM     17  C   UNL     1       5.733   4.506  16.706  0.00  0.00    +0.000 A 
ATOM     18  C   UNL     1       7.055   4.964  16.607  0.00  0.00    +0.000 A 
ATOM     19  C   UNL     1       7.631   5.123  15.358  0.00  0.00    +0.000 A 
ENDBRANCH  11  17
ENDBRANCH   5  12
ENDBRANCH   1  10
BRANCH   3  20
ATOM     20  N   UNL     1       1.597   8.743  20.623  0.00  0.00    +0.000 N 
ATOM     21  H   UNL     1       2.333   8.721  19.898  0.00  0.00    +0.000 HD
BRANCH  20  22
ATOM     22  C   UNL     1       0.776   9.946  20.376  0.00  0.00    +0.000 A 
ATOM     23  C   UNL     1       0.031   9.601  19.256  0.00  0.00    +0.000 A 
ATOM     24  C   UNL     1       0.695   9.914  18.075  0.00  0.00    +0.000 A 
ATOM     25  N   UNL     1       1.691  10.831  17.999  0.00  0.00    +0.000 NA
ATOM     26  C   UNL     1       1.801  11.641  19.050  0.00  0.00    +0.000 A 
ATOM     27  C   UNL     1       2.165  12.949  18.758  0.00  0.00    +0.000 A 
ATOM     28  C   UNL     1       1.528  13.999  19.396  0.00  0.00    +0.000 A 
ATOM     29 CL   UNL     1       1.773  15.620  18.850  0.00  0.00    +0.000 Cl
ATOM     30  C   UNL     1       0.560  13.728  20.350  0.00  0.00    +0.000 A 
ATOM     31  C   UNL     1       0.405  12.389  20.799  0.00  0.00    +0.000 A 
ATOM     32  C   UNL     1       1.156  11.302  20.251  0.00  0.00    +0.000 A 
ENDBRANCH  20  22
ENDBRANCH   3  20
TORSDOF 5
ENDMDL
