MODEL 1
REMARK VINA RESULT:      -7.5      0.000      0.000
REMARK  Name = 
REMARK  12 active torsions:
REMARK  status: ('A' for Active; 'I' for Inactive)
REMARK    1  A    between atoms: C_1  and  C_2
REMARK    2  A    between atoms: C_2  and  N_3
REMARK    3  A    between atoms: C_4  and  S_5
REMARK    4  A    between atoms: S_5  and  C_6
REMARK    5  A    between atoms: C_6  and  C_7
REMARK    6  A    between atoms: N_9  and  C_10
REMARK    7  A    between atoms: C_13  and  O_14
REMARK    8  A    between atoms: O_14  and  C_15
REMARK    9  A    between atoms: C_17  and  O_18
REMARK   10  A    between atoms: O_18  and  C_19
REMARK   11  A    between atoms: C_31  and  C_32
REMARK   12  A    between atoms: C_31  and  C_33
REMARK                            x       y       z     vdW  Elec       q    Type
REMARK                         _______ _______ _______ _____ _____    ______ ____
ROOT
ATOM      1  N   UNL     1       0.364  11.028  20.922  0.00  0.00    +0.000 N 
ATOM      2  C   UNL     1       0.816  11.343  19.643  0.00  0.00    +0.000 A 
ATOM      3  N   UNL     1       1.318  10.489  18.813  0.00  0.00    +0.000 NA
ATOM      4  C   UNL     1       1.485   9.172  19.260  0.00  0.00    +0.000 A 
ATOM      5  N   UNL     1       2.064   8.337  18.368  0.00  0.00    +0.000 NA
ATOM      6  C   UNL     1       2.357   7.069  18.784  0.00  0.00    +0.000 A 
ATOM      7  C   UNL     1       2.056   6.595  20.061  0.00  0.00    +0.000 A 
ATOM      8  C   UNL     1       1.447   7.474  20.955  0.00  0.00    +0.000 A 
ATOM      9  C   UNL     1       1.165   8.773  20.542  0.00  0.00    +0.000 A 
ATOM     10  C   UNL     1       0.555   9.756  21.435  0.00  0.00    +0.000 A 
ATOM     11  O   UNL     1       0.267   9.411  22.581  0.00  0.00    +0.000 OA
ATOM     12  C   UNL     1       2.445   5.209  20.501  0.00  0.00    +0.000 C 
ATOM     13  O   UNL     1       2.862   4.362  19.433  0.00  0.00    +0.000 OA
ATOM     14  C   UNL     1       3.754   4.980  18.490  0.00  0.00    +0.000 C 
ATOM     15  C   UNL     1       5.069   5.419  19.157  0.00  0.00    +0.000 C 
ATOM     16  C   UNL     1       4.087   3.889  17.461  0.00  0.00    +0.000 C 
ATOM     17  C   UNL     1       3.016   6.141  17.793  0.00  0.00    +0.000 C 
ENDROOT
BRANCH   1  19
ATOM     18  C   UNL     1      -1.822  12.008  21.599  0.00  0.00    +0.000 C 
ATOM     19  C   UNL     1      -0.314  11.979  21.814  0.00  0.00    +0.000 C 
ENDBRANCH   1  19
BRANCH   2  20
ATOM     20  S   UNL     1       0.793  13.037  19.184  0.00  0.00    +0.000 S 
BRANCH  20  21
ATOM     21  C   UNL     1       2.174  13.167  18.040  0.00  0.00    +0.000 C 
BRANCH  21  22
ATOM     22  C   UNL     1       3.345  13.918  18.651  0.00  0.00    +0.000 C 
ATOM     23  O   UNL     1       3.536  13.944  19.866  0.00  0.00    +0.000 OA
ATOM     24  N   UNL     1       4.143  14.537  17.701  0.00  0.00    +0.000 N 
ATOM     25  H   UNL     1       3.610  14.923  16.922  0.00  0.00    +0.000 HD
BRANCH  24  26
ATOM     26  C   UNL     1       5.308  15.253  18.060  0.00  0.00    +0.000 A 
ATOM     27  C   UNL     1       6.524  14.609  17.790  0.00  0.00    +0.000 A 
ATOM     28  C   UNL     1       7.742  15.256  18.015  0.00  0.00    +0.000 A 
ATOM     29  C   UNL     1       7.773  16.539  18.555  0.00  0.00    +0.000 A 
ATOM     30  C   UNL     1       6.566  17.171  18.860  0.00  0.00    +0.000 A 
ATOM     31  C   UNL     1       5.330  16.542  18.625  0.00  0.00    +0.000 A 
BRANCH  29  32
ATOM     32  O   UNL     1       9.023  17.062  18.741  0.00  0.00    +0.000 OA
ATOM     33  C   UNL     1       9.343  17.505  20.056  0.00  0.00    +0.000 C 
ENDBRANCH  29  32
BRANCH  31  34
ATOM     34  O   UNL     1       4.268  17.330  18.982  0.00  0.00    +0.000 OA
ATOM     35  C   UNL     1       3.933  17.391  20.360  0.00  0.00    +0.000 C 
ENDBRANCH  31  34
ENDBRANCH  24  26
ENDBRANCH  21  22
ENDBRANCH  20  21
ENDBRANCH   2  20
TORSDOF 7
ENDMDL
MODEL 2
REMARK VINA RESULT:      -7.5      2.283      9.791
REMARK  Name = 
REMARK  12 active torsions:
REMARK  status: ('A' for Active; 'I' for Inactive)
REMARK    1  A    between atoms: C_1  and  C_2
REMARK    2  A    between atoms: C_2  and  N_3
REMARK    3  A    between atoms: C_4  and  S_5
REMARK    4  A    between atoms: S_5  and  C_6
REMARK    5  A    between atoms: C_6  and  C_7
REMARK    6  A    between atoms: N_9  and  C_10
REMARK    7  A    between atoms: C_13  and  O_14
REMARK    8  A    between atoms: O_14  and  C_15
REMARK    9  A    between atoms: C_17  and  O_18
REMARK   10  A    between atoms: O_18  and  C_19
REMARK   11  A    between atoms: C_31  and  C_32
REMARK   12  A    between atoms: C_31  and  C_33
REMARK                            x       y       z     vdW  Elec       q    Type
REMARK                         _______ _______ _______ _____ _____    ______ ____
ROOT
ATOM      1  N   UNL     1      -0.476  11.793  19.514  0.00  0.00    +0.000 N 
ATOM      2  C   UNL     1       0.276  11.300  20.577  0.00  0.00    +0.000 A 
ATOM      3  N   UNL     1       1.287  11.910  21.104  0.00  0.00    +0.000 NA
ATOM      4  C   UNL     1       1.696  13.113  20.515  0.00  0.00    +0.000 A 
ATOM      5  N   UNL     1       2.791  13.678  21.074  0.00  0.00    +0.000 NA
ATOM      6  C   UNL     1       3.306  14.792  20.473  0.00  0.00    +0.000 A 
ATOM      7  C   UNL     1       2.738  15.384  19.345  0.00  0.00    +0.000 A 
ATOM      8  C   UNL     1       1.603  14.789  18.799  0.00  0.00    +0.000 A 
ATOM      9  C   UNL     1       1.086  13.641  19.395  0.00  0.00    +0.000 A 
ATOM     10  C   UNL     1      -0.083  12.948  18.859  0.00  0.00    +0.000 A 
ATOM     11  O   UNL     1      -0.634  13.410  17.860  0.00  0.00    +0.000 OA
ATOM     12  C   UNL     1       3.367  16.578  18.680  0.00  0.00    +0.000 C 
ATOM     13  O   UNL     1       4.386  17.201  19.458  0.00  0.00    +0.000 OA
ATOM     14  C   UNL     1       5.307  16.289  20.081  0.00  0.00    +0.000 C 
ATOM     15  C   UNL     1       6.081  15.465  19.038  0.00  0.00    +0.000 C 
ATOM     16  C   UNL     1       6.316  17.172  20.831  0.00  0.00    +0.000 C 
ATOM     17  C   UNL     1       4.536  15.413  21.089  0.00  0.00    +0.000 C 
ENDROOT
BRANCH   1  19
ATOM     18  C   UNL     1      -1.408  10.197  17.847  0.00  0.00    +0.000 C 
ATOM     19  C   UNL     1      -1.694  11.152  18.999  0.00  0.00    +0.000 C 
ENDBRANCH   1  19
BRANCH   2  20
ATOM     20  S   UNL     1      -0.124   9.694  21.160  0.00  0.00    +0.000 S 
BRANCH  20  21
ATOM     21  C   UNL     1       1.489   8.949  21.439  0.00  0.00    +0.000 C 
BRANCH  21  22
ATOM     22  C   UNL     1       1.741   7.780  20.501  0.00  0.00    +0.000 C 
ATOM     23  O   UNL     1       1.840   7.934  19.285  0.00  0.00    +0.000 OA
ATOM     24  N   UNL     1       1.851   6.569  21.167  0.00  0.00    +0.000 N 
ATOM     25  H   UNL     1       1.213   6.489  21.959  0.00  0.00    +0.000 HD
BRANCH  24  26
ATOM     26  C   UNL     1       2.127   5.365  20.480  0.00  0.00    +0.000 A 
ATOM     27  C   UNL     1       1.096   4.413  20.485  0.00  0.00    +0.000 A 
ATOM     28  C   UNL     1       1.217   3.224  19.761  0.00  0.00    +0.000 A 
ATOM     29  C   UNL     1       2.384   2.939  19.057  0.00  0.00    +0.000 A 
ATOM     30  C   UNL     1       3.427   3.866  19.079  0.00  0.00    +0.000 A 
ATOM     31  C   UNL     1       3.317   5.076  19.788  0.00  0.00    +0.000 A 
BRANCH  29  32
ATOM     32  O   UNL     1       2.388   1.741  18.398  0.00  0.00    +0.000 OA
ATOM     33  C   UNL     1       3.662   1.181  18.094  0.00  0.00    +0.000 C 
ENDBRANCH  29  32
BRANCH  31  34
ATOM     34  O   UNL     1       4.442   5.850  19.677  0.00  0.00    +0.000 OA
ATOM     35  C   UNL     1       5.595   5.250  19.104  0.00  0.00    +0.000 C 
ENDBRANCH  31  34
ENDBRANCH  24  26
ENDBRANCH  21  22
ENDBRANCH  20  21
ENDBRANCH   2  20
TORSDOF 7
ENDMDL
MODEL 3
REMARK VINA RESULT:      -7.4      2.368      9.267
REMARK  Name = 
REMARK  12 active torsions:
REMARK  status: ('A' for Active; 'I' for Inactive)
REMARK    1  A    between atoms: C_1  and  C_2
REMARK    2  A    between atoms: C_2  and  N_3
REMARK    3  A    between atoms: C_4  and  S_5
REMARK    4  A    between atoms: S_5  and  C_6
REMARK    5  A    between atoms: C_6  and  C_7
REMARK    6  A    between atoms: N_9  and  C_10
REMARK    7  A    between atoms: C_13  and  O_14
REMARK    8  A    between atoms: O_14  and  C_15
REMARK    9  A    between atoms: C_17  and  O_18
REMARK   10  A    between atoms: O_18  and  C_19
REMARK   11  A    between atoms: C_31  and  C_32
REMARK   12  A    between atoms: C_31  and  C_33
REMARK                            x       y       z     vdW  Elec       q    Type
REMARK                         _______ _______ _______ _____ _____    ______ ____
ROOT
ATOM      1  N   UNL     1      -0.569  11.381  19.514  0.00  0.00    +0.000 N 
ATOM      2  C   UNL     1       0.147  10.904  20.609  0.00  0.00    +0.000 A 
ATOM      3  N   UNL     1       1.115  11.540  21.184  0.00  0.00    +0.000 NA
ATOM      4  C   UNL     1       1.517  12.757  20.617  0.00  0.00    +0.000 A 
ATOM      5  N   UNL     1       2.569  13.349  21.228  0.00  0.00    +0.000 NA
ATOM      6  C   UNL     1       3.080  14.479  20.655  0.00  0.00    +0.000 A 
ATOM      7  C   UNL     1       2.548  15.060  19.503  0.00  0.00    +0.000 A 
ATOM      8  C   UNL     1       1.456  14.436  18.904  0.00  0.00    +0.000 A 
ATOM      9  C   UNL     1       0.945  13.272  19.473  0.00  0.00    +0.000 A 
ATOM     10  C   UNL     1      -0.178  12.548  18.881  0.00  0.00    +0.000 A 
ATOM     11  O   UNL     1      -0.696  12.999  17.859  0.00  0.00    +0.000 OA
ATOM     12  C   UNL     1       3.173  16.274  18.871  0.00  0.00    +0.000 C 
ATOM     13  O   UNL     1       4.138  16.922  19.697  0.00  0.00    +0.000 OA
ATOM     14  C   UNL     1       5.054  16.034  20.359  0.00  0.00    +0.000 C 
ATOM     15  C   UNL     1       5.898  15.235  19.351  0.00  0.00    +0.000 C 
ATOM     16  C   UNL     1       6.003  16.941  21.158  0.00  0.00    +0.000 C 
ATOM     17  C   UNL     1       4.262  15.132  21.328  0.00  0.00    +0.000 C 
ENDROOT
BRANCH   1  19
ATOM     18  C   UNL     1      -1.439  10.037  17.608  0.00  0.00    +0.000 C 
ATOM     19  C   UNL     1      -1.744  10.707  18.941  0.00  0.00    +0.000 C 
ENDBRANCH   1  19
BRANCH   2  20
ATOM     20  S   UNL     1      -0.234   9.285  21.168  0.00  0.00    +0.000 S 
BRANCH  20  21
ATOM     21  C   UNL     1       1.384   8.515  21.319  0.00  0.00    +0.000 C 
BRANCH  21  22
ATOM     22  C   UNL     1       1.826   7.869  20.016  0.00  0.00    +0.000 C 
ATOM     23  O   UNL     1       1.679   8.429  18.932  0.00  0.00    +0.000 OA
ATOM     24  N   UNL     1       2.400   6.620  20.203  0.00  0.00    +0.000 N 
ATOM     25  H   UNL     1       1.951   6.080  20.941  0.00  0.00    +0.000 HD
BRANCH  24  26
ATOM     26  C   UNL     1       2.914   5.869  19.121  0.00  0.00    +0.000 A 
ATOM     27  C   UNL     1       4.082   6.376  18.531  0.00  0.00    +0.000 A 
ATOM     28  C   UNL     1       4.735   5.672  17.515  0.00  0.00    +0.000 A 
ATOM     29  C   UNL     1       4.212   4.473  17.037  0.00  0.00    +0.000 A 
ATOM     30  C   UNL     1       3.030   3.983  17.595  0.00  0.00    +0.000 A 
ATOM     31  C   UNL     1       2.368   4.670  18.629  0.00  0.00    +0.000 A 
BRANCH  29  32
ATOM     32  O   UNL     1       4.932   3.884  16.035  0.00  0.00    +0.000 OA
ATOM     33  C   UNL     1       5.681   4.751  15.189  0.00  0.00    +0.000 C 
ENDBRANCH  29  32
BRANCH  31  34
ATOM     34  O   UNL     1       1.236   4.021  19.044  0.00  0.00    +0.000 OA
ATOM     35  C   UNL     1       1.064   2.674  18.629  0.00  0.00    +0.000 C 
ENDBRANCH  31  34
ENDBRANCH  24  26
ENDBRANCH  21  22
ENDBRANCH  20  21
ENDBRANCH   2  20
TORSDOF 7
ENDMDL
MODEL 4
REMARK VINA RESULT:      -7.4      1.751      2.333
REMARK  Name = 
REMARK  12 active torsions:
REMARK  status: ('A' for Active; 'I' for Inactive)
REMARK    1  A    between atoms: C_1  and  C_2
REMARK    2  A    between atoms: C_2  and  N_3
REMARK    3  A    between atoms: C_4  and  S_5
REMARK    4  A    between atoms: S_5  and  C_6
REMARK    5  A    between atoms: C_6  and  C_7
REMARK    6  A    between atoms: N_9  and  C_10
REMARK    7  A    between atoms: C_13  and  O_14
REMARK    8  A    between atoms: O_14  and  C_15
REMARK    9  A    between atoms: C_17  and  O_18
REMARK   10  A    between atoms: O_18  and  C_19
REMARK   11  A    between atoms: C_31  and  C_32
REMARK   12  A    between atoms: C_31  and  C_33
REMARK                            x       y       z     vdW  Elec       q    Type
REMARK                         _______ _______ _______ _____ _____    ______ ____
ROOT
ATOM      1  N   UNL     1       0.956   8.745  20.181  0.00  0.00    +0.000 N 
ATOM      2  C   UNL     1       1.318   9.610  19.151  0.00  0.00    +0.000 A 
ATOM      3  N   UNL     1       2.101   9.295  18.172  0.00  0.00    +0.000 NA
ATOM      4  C   UNL     1       2.682   8.021  18.192  0.00  0.00    +0.000 A 
ATOM      5  N   UNL     1       3.534   7.768  17.172  0.00  0.00    +0.000 NA
ATOM      6  C   UNL     1       4.219   6.585  17.197  0.00  0.00    +0.000 A 
ATOM      7  C   UNL     1       4.052   5.627  18.197  0.00  0.00    +0.000 A 
ATOM      8  C   UNL     1       3.158   5.909  19.227  0.00  0.00    +0.000 A 
ATOM      9  C   UNL     1       2.473   7.121  19.217  0.00  0.00    +0.000 A 
ATOM     10  C   UNL     1       1.543   7.495  20.280  0.00  0.00    +0.000 A 
ATOM     11  O   UNL     1       1.350   6.700  21.200  0.00  0.00    +0.000 OA
ATOM     12  C   UNL     1       4.866   4.361  18.219  0.00  0.00    +0.000 C 
ATOM     13  O   UNL     1       5.575   4.110  17.008  0.00  0.00    +0.000 OA
ATOM     14  C   UNL     1       6.239   5.257  16.453  0.00  0.00    +0.000 C 
ATOM     15  C   UNL     1       7.312   5.809  17.409  0.00  0.00    +0.000 C 
ATOM     16  C   UNL     1       6.948   4.751  15.187  0.00  0.00    +0.000 C 
ATOM     17  C   UNL     1       5.179   6.309  16.067  0.00  0.00    +0.000 C 
ENDROOT
BRANCH   1  19
ATOM     18  C   UNL     1       0.629   9.510  22.527  0.00  0.00    +0.000 C 
ATOM     19  C   UNL     1      -0.027   9.072  21.224  0.00  0.00    +0.000 C 
ENDBRANCH   1  19
BRANCH   2  20
ATOM     20  S   UNL     1       0.747  11.266  19.263  0.00  0.00    +0.000 S 
BRANCH  20  21
ATOM     21  C   UNL     1       1.770  12.130  18.062  0.00  0.00    +0.000 C 
BRANCH  21  22
ATOM     22  C   UNL     1       2.634  13.194  18.719  0.00  0.00    +0.000 C 
ATOM     23  O   UNL     1       2.659  13.348  19.938  0.00  0.00    +0.000 OA
ATOM     24  N   UNL     1       3.367  13.933  17.802  0.00  0.00    +0.000 N 
ATOM     25  H   UNL     1       2.858  14.117  16.938  0.00  0.00    +0.000 HD
BRANCH  24  26
ATOM     26  C   UNL     1       4.265  14.946  18.211  0.00  0.00    +0.000 A 
ATOM     27  C   UNL     1       5.625  14.674  17.997  0.00  0.00    +0.000 A 
ATOM     28  C   UNL     1       6.599  15.637  18.275  0.00  0.00    +0.000 A 
ATOM     29  C   UNL     1       6.241  16.871  18.813  0.00  0.00    +0.000 A 
ATOM     30  C   UNL     1       4.893  17.132  19.063  0.00  0.00    +0.000 A 
ATOM     31  C   UNL     1       3.897  16.181  18.775  0.00  0.00    +0.000 A 
BRANCH  29  32
ATOM     32  O   UNL     1       7.283  17.724  19.053  0.00  0.00    +0.000 OA
ATOM     33  C   UNL     1       8.531  17.395  18.451  0.00  0.00    +0.000 C 
ENDBRANCH  29  32
BRANCH  31  34
ATOM     34  O   UNL     1       2.641  16.633  19.082  0.00  0.00    +0.000 OA
ATOM     35  C   UNL     1       2.512  17.493  20.204  0.00  0.00    +0.000 C 
ENDBRANCH  31  34
ENDBRANCH  24  26
ENDBRANCH  21  22
ENDBRANCH  20  21
ENDBRANCH   2  20
TORSDOF 7
ENDMDL
MODEL 5
REMARK VINA RESULT:      -7.4      2.158      9.296
REMARK  Name = 
REMARK  12 active torsions:
REMARK  status: ('A' for Active; 'I' for Inactive)
REMARK    1  A    between atoms: C_1  and  C_2
REMARK    2  A    between atoms: C_2  and  N_3
REMARK    3  A    between atoms: C_4  and  S_5
REMARK    4  A    between atoms: S_5  and  C_6
REMARK    5  A    between atoms: C_6  and  C_7
REMARK    6  A    between atoms: N_9  and  C_10
REMARK    7  A    between atoms: C_13  and  O_14
REMARK    8  A    between atoms: O_14  and  C_15
REMARK    9  A    between atoms: C_17  and  O_18
REMARK   10  A    between atoms: O_18  and  C_19
REMARK   11  A    between atoms: C_31  and  C_32
REMARK   12  A    between atoms: C_31  and  C_33
REMARK                            x       y       z     vdW  Elec       q    Type
REMARK                         _______ _______ _______ _____ _____    ______ ____
ROOT
ATOM      1  N   UNL     1      -0.589  12.333  20.014  0.00  0.00    +0.000 N 
ATOM      2  C   UNL     1       0.056  12.166  21.237  0.00  0.00    +0.000 A 
ATOM      3  N   UNL     1       1.077  12.857  21.626  0.00  0.00    +0.000 NA
ATOM      4  C   UNL     1       1.615  13.784  20.723  0.00  0.00    +0.000 A 
ATOM      5  N   UNL     1       2.714  14.437  21.164  0.00  0.00    +0.000 NA
ATOM      6  C   UNL     1       3.350  15.270  20.287  0.00  0.00    +0.000 A 
ATOM      7  C   UNL     1       2.900  15.500  18.987  0.00  0.00    +0.000 A 
ATOM      8  C   UNL     1       1.756  14.824  18.566  0.00  0.00    +0.000 A 
ATOM      9  C   UNL     1       1.116  13.958  19.448  0.00  0.00    +0.000 A 
ATOM     10  C   UNL     1      -0.068  13.194  19.063  0.00  0.00    +0.000 A 
ATOM     11  O   UNL     1      -0.520  13.342  17.928  0.00  0.00    +0.000 OA
ATOM     12  C   UNL     1       3.659  16.382  18.034  0.00  0.00    +0.000 C 
ATOM     13  O   UNL     1       4.674  17.165  18.657  0.00  0.00    +0.000 OA
ATOM     14  C   UNL     1       5.481  16.452  19.609  0.00  0.00    +0.000 C 
ATOM     15  C   UNL     1       6.251  15.296  18.947  0.00  0.00    +0.000 C 
ATOM     16  C   UNL     1       6.509  17.471  20.124  0.00  0.00    +0.000 C 
ATOM     17  C   UNL     1       4.585  15.988  20.775  0.00  0.00    +0.000 C 
ENDROOT
BRANCH   1  19
ATOM     18  C   UNL     1      -3.075  12.434  19.941  0.00  0.00    +0.000 C 
ATOM     19  C   UNL     1      -1.820  11.628  19.629  0.00  0.00    +0.000 C 
ENDBRANCH   1  19
BRANCH   2  20
ATOM     20  S   UNL     1      -0.503  10.855  22.261  0.00  0.00    +0.000 S 
BRANCH  20  21
ATOM     21  C   UNL     1       0.930   9.773  22.354  0.00  0.00    +0.000 C 
BRANCH  21  22
ATOM     22  C   UNL     1       0.761   8.535  21.488  0.00  0.00    +0.000 C 
ATOM     23  O   UNL     1      -0.349   8.081  21.217  0.00  0.00    +0.000 OA
ATOM     24  N   UNL     1       1.970   8.012  21.054  0.00  0.00    +0.000 N 
ATOM     25  H   UNL     1       2.708   8.076  21.755  0.00  0.00    +0.000 HD
BRANCH  24  26
ATOM     26  C   UNL     1       2.029   6.885  20.204  0.00  0.00    +0.000 A 
ATOM     27  C   UNL     1       1.648   5.666  20.784  0.00  0.00    +0.000 A 
ATOM     28  C   UNL     1       1.577   4.500  20.017  0.00  0.00    +0.000 A 
ATOM     29  C   UNL     1       1.927   4.516  18.669  0.00  0.00    +0.000 A 
ATOM     30  C   UNL     1       2.343   5.719  18.096  0.00  0.00    +0.000 A 
ATOM     31  C   UNL     1       2.405   6.906  18.848  0.00  0.00    +0.000 A 
BRANCH  29  32
ATOM     32  O   UNL     1       1.828   3.313  18.028  0.00  0.00    +0.000 OA
ATOM     33  C   UNL     1       1.099   2.288  18.698  0.00  0.00    +0.000 C 
ENDBRANCH  29  32
BRANCH  31  34
ATOM     34  O   UNL     1       2.826   7.975  18.101  0.00  0.00    +0.000 OA
ATOM     35  C   UNL     1       1.883   9.004  17.843  0.00  0.00    +0.000 C 
ENDBRANCH  31  34
ENDBRANCH  24  26
ENDBRANCH  21  22
ENDBRANCH  20  21
ENDBRANCH   2  20
TORSDOF 7
ENDMDL
MODEL 6
REMARK VINA RESULT:      -7.3      3.856      5.723
REMARK  Name = 
REMARK  12 active torsions:
REMARK  status: ('A' for Active; 'I' for Inactive)
REMARK    1  A    between atoms: C_1  and  C_2
REMARK    2  A    between atoms: C_2  and  N_3
REMARK    3  A    between atoms: C_4  and  S_5
REMARK    4  A    between atoms: S_5  and  C_6
REMARK    5  A    between atoms: C_6  and  C_7
REMARK    6  A    between atoms: N_9  and  C_10
REMARK    7  A    between atoms: C_13  and  O_14
REMARK    8  A    between atoms: O_14  and  C_15
REMARK    9  A    between atoms: C_17  and  O_18
REMARK   10  A    between atoms: O_18  and  C_19
REMARK   11  A    between atoms: C_31  and  C_32
REMARK   12  A    between atoms: C_31  and  C_33
REMARK                            x       y       z     vdW  Elec       q    Type
REMARK                         _______ _______ _______ _____ _____    ______ ____
ROOT
ATOM      1  N   UNL     1       0.809   8.974  20.066  0.00  0.00    +0.000 N 
ATOM      2  C   UNL     1       1.106   9.778  18.968  0.00  0.00    +0.000 A 
ATOM      3  N   UNL     1       1.893   9.435  18.002  0.00  0.00    +0.000 NA
ATOM      4  C   UNL     1       2.549   8.201  18.107  0.00  0.00    +0.000 A 
ATOM      5  N   UNL     1       3.401   7.921  17.094  0.00  0.00    +0.000 NA
ATOM      6  C   UNL     1       4.154   6.786  17.196  0.00  0.00    +0.000 A 
ATOM      7  C   UNL     1       4.057   5.897  18.267  0.00  0.00    +0.000 A 
ATOM      8  C   UNL     1       3.161   6.205  19.289  0.00  0.00    +0.000 A 
ATOM      9  C   UNL     1       2.406   7.372  19.200  0.00  0.00    +0.000 A 
ATOM     10  C   UNL     1       1.470   7.771  20.248  0.00  0.00    +0.000 A 
ATOM     11  O   UNL     1       1.335   7.038  21.228  0.00  0.00    +0.000 OA
ATOM     12  C   UNL     1       4.944   4.686  18.370  0.00  0.00    +0.000 C 
ATOM     13  O   UNL     1       5.650   4.385  17.169  0.00  0.00    +0.000 OA
ATOM     14  C   UNL     1       6.239   5.524  16.519  0.00  0.00    +0.000 C 
ATOM     15  C   UNL     1       7.289   6.207  17.412  0.00  0.00    +0.000 C 
ATOM     16  C   UNL     1       6.960   4.965  15.282  0.00  0.00    +0.000 C 
ATOM     17  C   UNL     1       5.114   6.481  16.073  0.00  0.00    +0.000 C 
ENDROOT
BRANCH   1  19
ATOM     18  C   UNL     1       0.473   9.800  22.390  0.00  0.00    +0.000 C 
ATOM     19  C   UNL     1      -0.178   9.322  21.098  0.00  0.00    +0.000 C 
ENDBRANCH   1  19
BRANCH   2  20
ATOM     20  S   UNL     1       0.440  11.402  18.965  0.00  0.00    +0.000 S 
BRANCH  20  21
ATOM     21  C   UNL     1       1.844  12.417  19.447  0.00  0.00    +0.000 C 
BRANCH  21  22
ATOM     22  C   UNL     1       1.559  13.210  20.713  0.00  0.00    +0.000 C 
ATOM     23  O   UNL     1       2.457  13.543  21.484  0.00  0.00    +0.000 OA
ATOM     24  N   UNL     1       0.214  13.504  20.873  0.00  0.00    +0.000 N 
ATOM     25  H   UNL     1      -0.400  12.749  20.567  0.00  0.00    +0.000 HD
BRANCH  24  26
ATOM     26  C   UNL     1      -0.255  14.270  21.964  0.00  0.00    +0.000 A 
ATOM     27  C   UNL     1      -0.053  15.655  21.866  0.00  0.00    +0.000 A 
ATOM     28  C   UNL     1      -0.556  16.522  22.839  0.00  0.00    +0.000 A 
ATOM     29  C   UNL     1      -1.230  16.024  23.952  0.00  0.00    +0.000 A 
ATOM     30  C   UNL     1      -1.401  14.644  24.073  0.00  0.00    +0.000 A 
ATOM     31  C   UNL     1      -0.916  13.757  23.095  0.00  0.00    +0.000 A 
BRANCH  29  32
ATOM     32  O   UNL     1      -1.664  16.969  24.840  0.00  0.00    +0.000 OA
ATOM     33  C   UNL     1      -1.223  16.832  26.187  0.00  0.00    +0.000 C 
ENDBRANCH  29  32
BRANCH  31  34
ATOM     34  O   UNL     1      -1.195  12.449  23.394  0.00  0.00    +0.000 OA
ATOM     35  C   UNL     1      -2.509  11.983  23.128  0.00  0.00    +0.000 C 
ENDBRANCH  31  34
ENDBRANCH  24  26
ENDBRANCH  21  22
ENDBRANCH  20  21
ENDBRANCH   2  20
TORSDOF 7
ENDMDL
MODEL 7
REMARK VINA RESULT:      -7.3      5.408      7.448
REMARK  Name = 
REMARK  12 active torsions:
REMARK  status: ('A' for Active; 'I' for Inactive)
REMARK    1  A    between atoms: C_1  and  C_2
REMARK    2  A    between atoms: C_2  and  N_3
REMARK    3  A    between atoms: C_4  and  S_5
REMARK    4  A    between atoms: S_5  and  C_6
REMARK    5  A    between atoms: C_6  and  C_7
REMARK    6  A    between atoms: N_9  and  C_10
REMARK    7  A    between atoms: C_13  and  O_14
REMARK    8  A    between atoms: O_14  and  C_15
REMARK    9  A    between atoms: C_17  and  O_18
REMARK   10  A    between atoms: O_18  and  C_19
REMARK   11  A    between atoms: C_31  and  C_32
REMARK   12  A    between atoms: C_31  and  C_33
REMARK                            x       y       z     vdW  Elec       q    Type
REMARK                         _______ _______ _______ _____ _____    ______ ____
ROOT
ATOM      1  N   UNL     1       0.776   9.119  20.075  0.00  0.00    +0.000 N 
ATOM      2  C   UNL     1       1.098   9.908  18.974  0.00  0.00    +0.000 A 
ATOM      3  N   UNL     1       1.892   9.545  18.021  0.00  0.00    +0.000 NA
ATOM      4  C   UNL     1       2.530   8.303  18.146  0.00  0.00    +0.000 A 
ATOM      5  N   UNL     1       3.391   8.002  17.147  0.00  0.00    +0.000 NA
ATOM      6  C   UNL     1       4.127   6.857  17.269  0.00  0.00    +0.000 A 
ATOM      7  C   UNL     1       4.005   5.981  18.348  0.00  0.00    +0.000 A 
ATOM      8  C   UNL     1       3.100   6.311  19.355  0.00  0.00    +0.000 A 
ATOM      9  C   UNL     1       2.362   7.487  19.245  0.00  0.00    +0.000 A 
ATOM     10  C   UNL     1       1.419   7.909  20.278  0.00  0.00    +0.000 A 
ATOM     11  O   UNL     1       1.262   7.188  21.263  0.00  0.00    +0.000 OA
ATOM     12  C   UNL     1       4.874   4.759  18.474  0.00  0.00    +0.000 C 
ATOM     13  O   UNL     1       5.591   4.437  17.285  0.00  0.00    +0.000 OA
ATOM     14  C   UNL     1       6.203   5.561  16.631  0.00  0.00    +0.000 C 
ATOM     15  C   UNL     1       7.252   6.239  17.530  0.00  0.00    +0.000 C 
ATOM     16  C   UNL     1       6.932   4.980  15.409  0.00  0.00    +0.000 C 
ATOM     17  C   UNL     1       5.097   6.528  16.162  0.00  0.00    +0.000 C 
ENDROOT
BRANCH   1  19
ATOM     18  C   UNL     1       0.419  10.079  22.344  0.00  0.00    +0.000 C 
ATOM     19  C   UNL     1      -0.219   9.490  21.092  0.00  0.00    +0.000 C 
ENDBRANCH   1  19
BRANCH   2  20
ATOM     20  S   UNL     1       0.454  11.540  18.946  0.00  0.00    +0.000 S 
BRANCH  20  21
ATOM     21  C   UNL     1      -0.975  11.394  17.865  0.00  0.00    +0.000 C 
BRANCH  21  22
ATOM     22  C   UNL     1      -2.281  11.484  18.638  0.00  0.00    +0.000 C 
ATOM     23  O   UNL     1      -3.243  10.767  18.372  0.00  0.00    +0.000 OA
ATOM     24  N   UNL     1      -2.244  12.436  19.647  0.00  0.00    +0.000 N 
ATOM     25  H   UNL     1      -1.717  13.270  19.390  0.00  0.00    +0.000 HD
BRANCH  24  26
ATOM     26  C   UNL     1      -3.344  12.647  20.509  0.00  0.00    +0.000 A 
ATOM     27  C   UNL     1      -4.579  12.856  19.878  0.00  0.00    +0.000 A 
ATOM     28  C   UNL     1      -5.753  12.983  20.626  0.00  0.00    +0.000 A 
ATOM     29  C   UNL     1      -5.712  12.950  22.018  0.00  0.00    +0.000 A 
ATOM     30  C   UNL     1      -4.481  12.780  22.652  0.00  0.00    +0.000 A 
ATOM     31  C   UNL     1      -3.292  12.634  21.915  0.00  0.00    +0.000 A 
BRANCH  29  32
ATOM     32  O   UNL     1      -6.922  13.097  22.638  0.00  0.00    +0.000 OA
ATOM     33  C   UNL     1      -6.907  13.174  24.060  0.00  0.00    +0.000 C 
ENDBRANCH  29  32
BRANCH  31  34
ATOM     34  O   UNL     1      -2.196  12.468  22.721  0.00  0.00    +0.000 OA
ATOM     35  C   UNL     1      -1.801  13.571  23.523  0.00  0.00    +0.000 C 
ENDBRANCH  31  34
ENDBRANCH  24  26
ENDBRANCH  21  22
ENDBRANCH  20  21
ENDBRANCH   2  20
TORSDOF 7
ENDMDL
MODEL 8
REMARK VINA RESULT:      -7.2      5.219      6.644
REMARK  Name = 
REMARK  12 active torsions:
REMARK  status: ('A' for Active; 'I' for Inactive)
REMARK    1  A    between atoms: C_1  and  C_2
REMARK    2  A    between atoms: C_2  and  N_3
REMARK    3  A    between atoms: C_4  and  S_5
REMARK    4  A    between atoms: S_5  and  C_6
REMARK    5  A    between atoms: C_6  and  C_7
REMARK    6  A    between atoms: N_9  and  C_10
REMARK    7  A    between atoms: C_13  and  O_14
REMARK    8  A    between atoms: O_14  and  C_15
REMARK    9  A    between atoms: C_17  and  O_18
REMARK   10  A    between atoms: O_18  and  C_19
REMARK   11  A    between atoms: C_31  and  C_32
REMARK   12  A    between atoms: C_31  and  C_33
REMARK                            x       y       z     vdW  Elec       q    Type
REMARK                         _______ _______ _______ _____ _____    ______ ____
ROOT
ATOM      1  N   UNL     1       0.968   8.673  20.160  0.00  0.00    +0.000 N 
ATOM      2  C   UNL     1       1.290   9.517  19.099  0.00  0.00    +0.000 A 
ATOM      3  N   UNL     1       2.065   9.195  18.117  0.00  0.00    +0.000 NA
ATOM      4  C   UNL     1       2.681   7.937  18.163  0.00  0.00    +0.000 A 
ATOM      5  N   UNL     1       3.524   7.677  17.138  0.00  0.00    +0.000 NA
ATOM      6  C   UNL     1       4.241   6.515  17.185  0.00  0.00    +0.000 A 
ATOM      7  C   UNL     1       4.117   5.582  18.215  0.00  0.00    +0.000 A 
ATOM      8  C   UNL     1       3.231   5.870  19.251  0.00  0.00    +0.000 A 
ATOM      9  C   UNL     1       2.513   7.063  19.218  0.00  0.00    +0.000 A 
ATOM     10  C   UNL     1       1.591   7.443  20.285  0.00  0.00    +0.000 A 
ATOM     11  O   UNL     1       1.434   6.671  21.231  0.00  0.00    +0.000 OA
ATOM     12  C   UNL     1       4.965   4.340  18.260  0.00  0.00    +0.000 C 
ATOM     13  O   UNL     1       5.661   4.073  17.045  0.00  0.00    +0.000 OA
ATOM     14  C   UNL     1       6.285   5.221  16.446  0.00  0.00    +0.000 C 
ATOM     15  C   UNL     1       7.357   5.829  17.367  0.00  0.00    +0.000 C 
ATOM     16  C   UNL     1       6.987   4.697  15.184  0.00  0.00    +0.000 C 
ATOM     17  C   UNL     1       5.190   6.232  16.048  0.00  0.00    +0.000 C 
ENDROOT
BRANCH   1  19
ATOM     18  C   UNL     1       0.654   9.556  22.466  0.00  0.00    +0.000 C 
ATOM     19  C   UNL     1      -0.007   9.004  21.209  0.00  0.00    +0.000 C 
ENDBRANCH   1  19
BRANCH   2  20
ATOM     20  S   UNL     1       0.675  11.159  19.172  0.00  0.00    +0.000 S 
BRANCH  20  21
ATOM     21  C   UNL     1      -1.026  10.981  18.617  0.00  0.00    +0.000 C 
BRANCH  21  22
ATOM     22  C   UNL     1      -1.982  11.827  19.443  0.00  0.00    +0.000 C 
ATOM     23  O   UNL     1      -3.138  12.037  19.083  0.00  0.00    +0.000 OA
ATOM     24  N   UNL     1      -1.407  12.303  20.611  0.00  0.00    +0.000 N 
ATOM     25  H   UNL     1      -0.427  12.562  20.498  0.00  0.00    +0.000 HD
BRANCH  24  26
ATOM     26  C   UNL     1      -2.141  13.075  21.540  0.00  0.00    +0.000 A 
ATOM     27  C   UNL     1      -2.656  12.374  22.640  0.00  0.00    +0.000 A 
ATOM     28  C   UNL     1      -3.319  13.046  23.671  0.00  0.00    +0.000 A 
ATOM     29  C   UNL     1      -3.521  14.423  23.603  0.00  0.00    +0.000 A 
ATOM     30  C   UNL     1      -3.042  15.120  22.493  0.00  0.00    +0.000 A 
ATOM     31  C   UNL     1      -2.359  14.463  21.454  0.00  0.00    +0.000 A 
BRANCH  29  32
ATOM     32  O   UNL     1      -4.191  14.964  24.664  0.00  0.00    +0.000 OA
ATOM     33  C   UNL     1      -4.436  16.367  24.619  0.00  0.00    +0.000 C 
ENDBRANCH  29  32
BRANCH  31  34
ATOM     34  O   UNL     1      -1.963  15.323  20.464  0.00  0.00    +0.000 OA
ATOM     35  C   UNL     1      -2.498  16.638  20.488  0.00  0.00    +0.000 C 
ENDBRANCH  31  34
ENDBRANCH  24  26
ENDBRANCH  21  22
ENDBRANCH  20  21
ENDBRANCH   2  20
TORSDOF 7
ENDMDL
MODEL 9
REMARK VINA RESULT:      -7.1      5.304      7.018
REMARK  Name = 
REMARK  12 active torsions:
REMARK  status: ('A' for Active; 'I' for Inactive)
REMARK    1  A    between atoms: C_1  and  C_2
REMARK    2  A    between atoms: C_2  and  N_3
REMARK    3  A    between atoms: C_4  and  S_5
REMARK    4  A    between atoms: S_5  and  C_6
REMARK    5  A    between atoms: C_6  and  C_7
REMARK    6  A    between atoms: N_9  and  C_10
REMARK    7  A    between atoms: C_13  and  O_14
REMARK    8  A    between atoms: O_14  and  C_15
REMARK    9  A    between atoms: C_17  and  O_18
REMARK   10  A    between atoms: O_18  and  C_19
REMARK   11  A    between atoms: C_31  and  C_32
REMARK   12  A    between atoms: C_31  and  C_33
REMARK                            x       y       z     vdW  Elec       q    Type
REMARK                         _______ _______ _______ _____ _____    ______ ____
ROOT
ATOM      1  N   UNL     1       1.022   8.624  20.253  0.00  0.00    +0.000 N 
ATOM      2  C   UNL     1       1.374   9.521  19.248  0.00  0.00    +0.000 A 
ATOM      3  N   UNL     1       2.140   9.236  18.248  0.00  0.00    +0.000 NA
ATOM      4  C   UNL     1       2.715   7.959  18.215  0.00  0.00    +0.000 A 
ATOM      5  N   UNL     1       3.551   7.737  17.175  0.00  0.00    +0.000 NA
ATOM      6  C   UNL     1       4.230   6.551  17.150  0.00  0.00    +0.000 A 
ATOM      7  C   UNL     1       4.073   5.560  18.118  0.00  0.00    +0.000 A 
ATOM      8  C   UNL     1       3.195   5.811  19.170  0.00  0.00    +0.000 A 
ATOM      9  C   UNL     1       2.516   7.026  19.212  0.00  0.00    +0.000 A 
ATOM     10  C   UNL     1       1.604   7.368  20.301  0.00  0.00    +0.000 A 
ATOM     11  O   UNL     1       1.421   6.543  21.196  0.00  0.00    +0.000 OA
ATOM     12  C   UNL     1       4.881   4.290  18.085  0.00  0.00    +0.000 C 
ATOM     13  O   UNL     1       5.570   4.078  16.856  0.00  0.00    +0.000 OA
ATOM     14  C   UNL     1       6.232   5.240  16.331  0.00  0.00    +0.000 C 
ATOM     15  C   UNL     1       7.321   5.754  17.289  0.00  0.00    +0.000 C 
ATOM     16  C   UNL     1       6.920   4.774  15.038  0.00  0.00    +0.000 C 
ATOM     17  C   UNL     1       5.173   6.310  15.997  0.00  0.00    +0.000 C 
ENDROOT
BRANCH   1  19
ATOM     18  C   UNL     1       0.733   9.356  22.615  0.00  0.00    +0.000 C 
ATOM     19  C   UNL     1       0.056   8.919  21.321  0.00  0.00    +0.000 C 
ENDBRANCH   1  19
BRANCH   2  20
ATOM     20  S   UNL     1       0.813  11.175  19.424  0.00  0.00    +0.000 S 
BRANCH  20  21
ATOM     21  C   UNL     1      -0.976  10.994  19.473  0.00  0.00    +0.000 C 
BRANCH  21  22
ATOM     22  C   UNL     1      -1.636  12.116  20.257  0.00  0.00    +0.000 C 
ATOM     23  O   UNL     1      -2.017  13.151  19.714  0.00  0.00    +0.000 OA
ATOM     24  N   UNL     1      -1.758  11.829  21.609  0.00  0.00    +0.000 N 
ATOM     25  H   UNL     1      -0.960  11.315  21.982  0.00  0.00    +0.000 HD
BRANCH  24  26
ATOM     26  C   UNL     1      -2.382  12.725  22.506  0.00  0.00    +0.000 A 
ATOM     27  C   UNL     1      -1.516  13.490  23.302  0.00  0.00    +0.000 A 
ATOM     28  C   UNL     1      -2.014  14.475  24.158  0.00  0.00    +0.000 A 
ATOM     29  C   UNL     1      -3.386  14.687  24.273  0.00  0.00    +0.000 A 
ATOM     30  C   UNL     1      -4.254  13.903  23.511  0.00  0.00    +0.000 A 
ATOM     31  C   UNL     1      -3.770  12.918  22.631  0.00  0.00    +0.000 A 
BRANCH  29  32
ATOM     32  O   UNL     1      -3.751  15.669  25.151  0.00  0.00    +0.000 OA
ATOM     33  C   UNL     1      -3.361  16.999  24.822  0.00  0.00    +0.000 C 
ENDBRANCH  29  32
BRANCH  31  34
ATOM     34  O   UNL     1      -4.780  12.268  21.971  0.00  0.00    +0.000 OA
ATOM     35  C   UNL     1      -6.106  12.726  22.190  0.00  0.00    +0.000 C 
ENDBRANCH  31  34
ENDBRANCH  24  26
ENDBRANCH  21  22
ENDBRANCH  20  21
ENDBRANCH   2  20
TORSDOF 7
ENDMDL
