MODEL 1
REMARK VINA RESULT:      -7.5      0.000      0.000
REMARK  Name = 
REMARK  11 active torsions:
REMARK  status: ('A' for Active; 'I' for Inactive)
REMARK    1  A    between atoms: C_1  and  C_2
REMARK    2  A    between atoms: C_2  and  N_3
REMARK    3  A    between atoms: N_3  and  C_20
REMARK    4  A    between atoms: C_4  and  C_6
REMARK    5  A    between atoms: C_6  and  O_7
REMARK    6  A    between atoms: O_7  and  C_8
REMARK    7  A    between atoms: C_8  and  C_10
REMARK    8  A    between atoms: C_10  and  S_11
REMARK    9  A    between atoms: S_11  and  C_12
REMARK   10  A    between atoms: C_15  and  C_16
REMARK   11  A    between atoms: C_17  and  C_18
REMARK                            x       y       z     vdW  Elec       q    Type
REMARK                         _______ _______ _______ _____ _____    ______ ____
ROOT
ATOM      1  C   UNL     1       6.873   6.201  16.963  0.00  0.00    +0.000 C 
ENDROOT
BRANCH   1   3
ATOM      2  N   UNL     1       4.750   5.519  18.186  0.00  0.00    +0.000 N 
ATOM      3  C   UNL     1       6.155   5.459  18.096  0.00  0.00    +0.000 C 
ATOM      4  O   UNL     1       6.810   4.793  18.907  0.00  0.00    +0.000 OA
BRANCH   2   5
ATOM      5  C   UNL     1       4.135   4.651  19.229  0.00  0.00    +0.000 C 
ATOM      6  C   UNL     1       4.259   3.125  19.067  0.00  0.00    +0.000 C 
ATOM      7  C   UNL     1       3.130   2.647  18.167  0.00  0.00    +0.000 C 
ATOM      8  S   UNL     1       1.733   3.653  18.606  0.00  0.00    +0.000 S 
ATOM      9  O   UNL     1       0.943   2.924  19.578  0.00  0.00    +0.000 OA
ATOM     10  O   UNL     1       1.164   4.189  17.393  0.00  0.00    +0.000 OA
ATOM     11  C   UNL     1       2.634   4.931  19.452  0.00  0.00    +0.000 C 
ENDBRANCH   2   5
BRANCH   2  13
ATOM     12  C   UNL     1       3.457   7.623  17.667  0.00  0.00    +0.000 C 
ATOM     13  C   UNL     1       3.919   6.246  17.214  0.00  0.00    +0.000 C 
ENDBRANCH   2  13
ENDBRANCH   1   3
BRANCH   1  14
ATOM     14  O   UNL     1       6.911   7.602  17.291  0.00  0.00    +0.000 OA
BRANCH  14  15
ATOM     15  C   UNL     1       7.949   7.993  18.079  0.00  0.00    +0.000 C 
ATOM     16  O   UNL     1       8.586   7.229  18.798  0.00  0.00    +0.000 OA
BRANCH  15  17
ATOM     17  C   UNL     1       8.182   9.484  17.913  0.00  0.00    +0.000 C 
BRANCH  17  18
ATOM     18  S   UNL     1       9.187  10.145  19.290  0.00  0.00    +0.000 S 
BRANCH  18  19
ATOM     19  C   UNL     1       9.813  11.643  18.559  0.00  0.00    +0.000 A 
ATOM     20  C   UNL     1      11.036  11.679  17.893  0.00  0.00    +0.000 A 
ATOM     21  C   UNL     1      11.481  12.865  17.305  0.00  0.00    +0.000 A 
ATOM     22  C   UNL     1      10.709  14.037  17.361  0.00  0.00    +0.000 A 
ATOM     23  C   UNL     1      11.245  15.291  16.729  0.00  0.00    +0.000 C 
ATOM     24  C   UNL     1       9.458  14.000  18.005  0.00  0.00    +0.000 A 
ATOM     25  C   UNL     1       8.535  15.186  18.081  0.00  0.00    +0.000 C 
ATOM     26  C   UNL     1       9.025  12.797  18.594  0.00  0.00    +0.000 A 
ENDBRANCH  18  19
ENDBRANCH  17  18
ENDBRANCH  15  17
ENDBRANCH  14  15
ENDBRANCH   1  14
TORSDOF 8
ENDMDL
MODEL 2
REMARK VINA RESULT:      -7.4      5.974      8.913
REMARK  Name = 
REMARK  11 active torsions:
REMARK  status: ('A' for Active; 'I' for Inactive)
REMARK    1  A    between atoms: C_1  and  C_2
REMARK    2  A    between atoms: C_2  and  N_3
REMARK    3  A    between atoms: N_3  and  C_20
REMARK    4  A    between atoms: C_4  and  C_6
REMARK    5  A    between atoms: C_6  and  O_7
REMARK    6  A    between atoms: O_7  and  C_8
REMARK    7  A    between atoms: C_8  and  C_10
REMARK    8  A    between atoms: C_10  and  S_11
REMARK    9  A    between atoms: S_11  and  C_12
REMARK   10  A    between atoms: C_15  and  C_16
REMARK   11  A    between atoms: C_17  and  C_18
REMARK                            x       y       z     vdW  Elec       q    Type
REMARK                         _______ _______ _______ _____ _____    ______ ____
ROOT
ATOM      1  C   UNL     1       1.509   7.525  21.032  0.00  0.00    +0.000 C 
ENDROOT
BRANCH   1   3
ATOM      2  N   UNL     1       2.590   5.846  19.457  0.00  0.00    +0.000 N 
ATOM      3  C   UNL     1       2.159   7.168  19.690  0.00  0.00    +0.000 C 
ATOM      4  O   UNL     1       2.277   8.033  18.814  0.00  0.00    +0.000 OA
BRANCH   2   5
ATOM      5  C   UNL     1       3.074   5.564  18.076  0.00  0.00    +0.000 C 
ATOM      6  C   UNL     1       2.900   4.136  17.525  0.00  0.00    +0.000 C 
ATOM      7  C   UNL     1       4.080   3.297  17.987  0.00  0.00    +0.000 C 
ATOM      8  S   UNL     1       5.476   4.395  17.932  0.00  0.00    +0.000 S 
ATOM      9  O   UNL     1       6.147   4.202  16.662  0.00  0.00    +0.000 OA
ATOM     10  O   UNL     1       6.170   4.306  19.194  0.00  0.00    +0.000 OA
ATOM     11  C   UNL     1       4.562   5.918  17.864  0.00  0.00    +0.000 C 
ENDBRANCH   2   5
BRANCH   2  13
ATOM     12  C   UNL     1       1.060   4.081  20.409  0.00  0.00    +0.000 C 
ATOM     13  C   UNL     1       2.419   4.766  20.439  0.00  0.00    +0.000 C 
ENDBRANCH   2  13
ENDBRANCH   1   3
BRANCH   1  14
ATOM     14  O   UNL     1       0.685   8.689  20.841  0.00  0.00    +0.000 OA
BRANCH  14  15
ATOM     15  C   UNL     1       0.955   9.741  21.659  0.00  0.00    +0.000 C 
ATOM     16  O   UNL     1       1.602   9.650  22.699  0.00  0.00    +0.000 OA
BRANCH  15  17
ATOM     17  C   UNL     1       0.349  11.007  21.080  0.00  0.00    +0.000 C 
BRANCH  17  18
ATOM     18  S   UNL     1       0.538  11.050  19.262  0.00  0.00    +0.000 S 
BRANCH  18  19
ATOM     19  C   UNL     1      -1.166  11.099  18.749  0.00  0.00    +0.000 A 
ATOM     20  C   UNL     1      -1.635  10.333  17.685  0.00  0.00    +0.000 A 
ATOM     21  C   UNL     1      -2.985  10.375  17.330  0.00  0.00    +0.000 A 
ATOM     22  C   UNL     1      -3.896  11.175  18.037  0.00  0.00    +0.000 A 
ATOM     23  C   UNL     1      -5.335  11.198  17.601  0.00  0.00    +0.000 C 
ATOM     24  C   UNL     1      -3.436  11.929  19.133  0.00  0.00    +0.000 A 
ATOM     25  C   UNL     1      -4.338  12.782  19.984  0.00  0.00    +0.000 C 
ATOM     26  C   UNL     1      -2.072  11.876  19.477  0.00  0.00    +0.000 A 
ENDBRANCH  18  19
ENDBRANCH  17  18
ENDBRANCH  15  17
ENDBRANCH  14  15
ENDBRANCH   1  14
TORSDOF 8
ENDMDL
MODEL 3
REMARK VINA RESULT:      -7.4      5.072      8.071
REMARK  Name = 
REMARK  11 active torsions:
REMARK  status: ('A' for Active; 'I' for Inactive)
REMARK    1  A    between atoms: C_1  and  C_2
REMARK    2  A    between atoms: C_2  and  N_3
REMARK    3  A    between atoms: N_3  and  C_20
REMARK    4  A    between atoms: C_4  and  C_6
REMARK    5  A    between atoms: C_6  and  O_7
REMARK    6  A    between atoms: O_7  and  C_8
REMARK    7  A    between atoms: C_8  and  C_10
REMARK    8  A    between atoms: C_10  and  S_11
REMARK    9  A    between atoms: S_11  and  C_12
REMARK   10  A    between atoms: C_15  and  C_16
REMARK   11  A    between atoms: C_17  and  C_18
REMARK                            x       y       z     vdW  Elec       q    Type
REMARK                         _______ _______ _______ _____ _____    ______ ____
ROOT
ATOM      1  C   UNL     1       2.327   6.683  20.547  0.00  0.00    +0.000 C 
ENDROOT
BRANCH   1   3
ATOM      2  N   UNL     1       1.342   8.877  19.720  0.00  0.00    +0.000 N 
ATOM      3  C   UNL     1       1.971   7.653  19.415  0.00  0.00    +0.000 C 
ATOM      4  O   UNL     1       2.259   7.367  18.246  0.00  0.00    +0.000 OA
BRANCH   2   5
ATOM      5  C   UNL     1       1.168   9.812  18.574  0.00  0.00    +0.000 C 
ATOM      6  C   UNL     1       1.844  11.194  18.657  0.00  0.00    +0.000 C 
ATOM      7  C   UNL     1       0.919  12.133  19.416  0.00  0.00    +0.000 C 
ATOM      8  S   UNL     1      -0.720  11.677  18.907  0.00  0.00    +0.000 S 
ATOM      9  O   UNL     1      -1.114  12.556  17.823  0.00  0.00    +0.000 OA
ATOM     10  O   UNL     1      -1.527  11.501  20.090  0.00  0.00    +0.000 OA
ATOM     11  C   UNL     1      -0.311  10.087  18.227  0.00  0.00    +0.000 C 
ENDBRANCH   2   5
BRANCH   2  13
ATOM     12  C   UNL     1      -0.237   8.689  21.679  0.00  0.00    +0.000 C 
ATOM     13  C   UNL     1       1.032   9.293  21.096  0.00  0.00    +0.000 C 
ENDBRANCH   2  13
ENDBRANCH   1   3
BRANCH   1  14
ATOM     14  O   UNL     1       1.331   5.645  20.585  0.00  0.00    +0.000 OA
BRANCH  14  15
ATOM     15  C   UNL     1       1.800   4.374  20.462  0.00  0.00    +0.000 C 
ATOM     16  O   UNL     1       2.327   3.748  21.377  0.00  0.00    +0.000 OA
BRANCH  15  17
ATOM     17  C   UNL     1       1.559   3.876  19.048  0.00  0.00    +0.000 C 
BRANCH  17  18
ATOM     18  S   UNL     1       2.948   2.832  18.477  0.00  0.00    +0.000 S 
BRANCH  18  19
ATOM     19  C   UNL     1       4.217   4.060  18.248  0.00  0.00    +0.000 A 
ATOM     20  C   UNL     1       5.180   4.310  19.222  0.00  0.00    +0.000 A 
ATOM     21  C   UNL     1       6.179   5.260  18.996  0.00  0.00    +0.000 A 
ATOM     22  C   UNL     1       6.242   5.972  17.787  0.00  0.00    +0.000 A 
ATOM     23  C   UNL     1       7.326   6.997  17.603  0.00  0.00    +0.000 C 
ATOM     24  C   UNL     1       5.290   5.702  16.785  0.00  0.00    +0.000 A 
ATOM     25  C   UNL     1       5.297   6.376  15.440  0.00  0.00    +0.000 C 
ATOM     26  C   UNL     1       4.290   4.743  17.030  0.00  0.00    +0.000 A 
ENDBRANCH  18  19
ENDBRANCH  17  18
ENDBRANCH  15  17
ENDBRANCH  14  15
ENDBRANCH   1  14
TORSDOF 8
ENDMDL
MODEL 4
REMARK VINA RESULT:      -7.3      5.548      7.840
REMARK  Name = 
REMARK  11 active torsions:
REMARK  status: ('A' for Active; 'I' for Inactive)
REMARK    1  A    between atoms: C_1  and  C_2
REMARK    2  A    between atoms: C_2  and  N_3
REMARK    3  A    between atoms: N_3  and  C_20
REMARK    4  A    between atoms: C_4  and  C_6
REMARK    5  A    between atoms: C_6  and  O_7
REMARK    6  A    between atoms: O_7  and  C_8
REMARK    7  A    between atoms: C_8  and  C_10
REMARK    8  A    between atoms: C_10  and  S_11
REMARK    9  A    between atoms: S_11  and  C_12
REMARK   10  A    between atoms: C_15  and  C_16
REMARK   11  A    between atoms: C_17  and  C_18
REMARK                            x       y       z     vdW  Elec       q    Type
REMARK                         _______ _______ _______ _____ _____    ______ ____
ROOT
ATOM      1  C   UNL     1       2.357   2.671  18.982  0.00  0.00    +0.000 C 
ENDROOT
BRANCH   1   3
ATOM      2  N   UNL     1       4.101   4.074  17.775  0.00  0.00    +0.000 N 
ATOM      3  C   UNL     1       2.789   3.560  17.810  0.00  0.00    +0.000 C 
ATOM      4  O   UNL     1       1.994   3.799  16.893  0.00  0.00    +0.000 OA
BRANCH   2   5
ATOM      5  C   UNL     1       4.471   4.804  16.530  0.00  0.00    +0.000 C 
ATOM      6  C   UNL     1       4.766   3.976  15.265  0.00  0.00    +0.000 C 
ATOM      7  C   UNL     1       6.223   3.542  15.307  0.00  0.00    +0.000 C 
ATOM      8  S   UNL     1       7.094   4.918  16.018  0.00  0.00    +0.000 S 
ATOM      9  O   UNL     1       7.617   5.724  14.933  0.00  0.00    +0.000 OA
ATOM     10  O   UNL     1       7.930   4.421  17.084  0.00  0.00    +0.000 OA
ATOM     11  C   UNL     1       5.680   5.746  16.709  0.00  0.00    +0.000 C 
ENDBRANCH   2   5
BRANCH   2  13
ATOM     12  C   UNL     1       5.550   4.967  19.637  0.00  0.00    +0.000 C 
ATOM     13  C   UNL     1       5.104   3.772  18.807  0.00  0.00    +0.000 C 
ENDBRANCH   2  13
ENDBRANCH   1   3
BRANCH   1  14
ATOM     14  O   UNL     1       1.305   3.344  19.698  0.00  0.00    +0.000 OA
BRANCH  14  15
ATOM     15  C   UNL     1       1.704   4.095  20.760  0.00  0.00    +0.000 C 
ATOM     16  O   UNL     1       2.440   3.681  21.651  0.00  0.00    +0.000 OA
BRANCH  15  17
ATOM     17  C   UNL     1       1.111   5.489  20.652  0.00  0.00    +0.000 C 
BRANCH  17  18
ATOM     18  S   UNL     1       2.343   6.674  20.003  0.00  0.00    +0.000 S 
BRANCH  18  19
ATOM     19  C   UNL     1       1.488   8.216  20.254  0.00  0.00    +0.000 A 
ATOM     20  C   UNL     1       1.275   9.115  19.212  0.00  0.00    +0.000 A 
ATOM     21  C   UNL     1       0.574  10.302  19.440  0.00  0.00    +0.000 A 
ATOM     22  C   UNL     1       0.062  10.608  20.710  0.00  0.00    +0.000 A 
ATOM     23  C   UNL     1      -0.668  11.908  20.905  0.00  0.00    +0.000 C 
ATOM     24  C   UNL     1       0.246   9.690  21.761  0.00  0.00    +0.000 A 
ATOM     25  C   UNL     1      -0.302   9.903  23.146  0.00  0.00    +0.000 C 
ATOM     26  C   UNL     1       0.956   8.500  21.515  0.00  0.00    +0.000 A 
ENDBRANCH  18  19
ENDBRANCH  17  18
ENDBRANCH  15  17
ENDBRANCH  14  15
ENDBRANCH   1  14
TORSDOF 8
ENDMDL
MODEL 5
REMARK VINA RESULT:      -7.3      5.768      8.923
REMARK  Name = 
REMARK  11 active torsions:
REMARK  status: ('A' for Active; 'I' for Inactive)
REMARK    1  A    between atoms: C_1  and  C_2
REMARK    2  A    between atoms: C_2  and  N_3
REMARK    3  A    between atoms: N_3  and  C_20
REMARK    4  A    between atoms: C_4  and  C_6
REMARK    5  A    between atoms: C_6  and  O_7
REMARK    6  A    between atoms: O_7  and  C_8
REMARK    7  A    between atoms: C_8  and  C_10
REMARK    8  A    between atoms: C_10  and  S_11
REMARK    9  A    between atoms: S_11  and  C_12
REMARK   10  A    between atoms: C_15  and  C_16
REMARK   11  A    between atoms: C_17  and  C_18
REMARK                            x       y       z     vdW  Elec       q    Type
REMARK                         _______ _______ _______ _____ _____    ______ ____
ROOT
ATOM      1  C   UNL     1       1.335   7.693  20.757  0.00  0.00    +0.000 C 
ENDROOT
BRANCH   1   3
ATOM      2  N   UNL     1       2.718   6.018  19.435  0.00  0.00    +0.000 N 
ATOM      3  C   UNL     1       2.153   7.307  19.520  0.00  0.00    +0.000 C 
ATOM      4  O   UNL     1       2.292   8.118  18.596  0.00  0.00    +0.000 OA
BRANCH   2   5
ATOM      5  C   UNL     1       3.370   5.688  18.137  0.00  0.00    +0.000 C 
ATOM      6  C   UNL     1       3.388   4.214  17.688  0.00  0.00    +0.000 C 
ATOM      7  C   UNL     1       4.586   3.534  18.332  0.00  0.00    +0.000 C 
ATOM      8  S   UNL     1       5.871   4.760  18.326  0.00  0.00    +0.000 S 
ATOM      9  O   UNL     1       6.689   4.546  17.148  0.00  0.00    +0.000 OA
ATOM     10  O   UNL     1       6.433   4.832  19.653  0.00  0.00    +0.000 OA
ATOM     11  C   UNL     1       4.832   6.175  18.045  0.00  0.00    +0.000 C 
ENDBRANCH   2   5
BRANCH   2  13
ATOM     12  C   UNL     1       1.168   4.325  20.481  0.00  0.00    +0.000 C 
ATOM     13  C   UNL     1       2.534   4.996  20.476  0.00  0.00    +0.000 C 
ENDBRANCH   2  13
ENDBRANCH   1   3
BRANCH   1  14
ATOM     14  O   UNL     1       1.353   9.127  20.884  0.00  0.00    +0.000 OA
BRANCH  14  15
ATOM     15  C   UNL     1       1.055   9.612  22.119  0.00  0.00    +0.000 C 
ATOM     16  O   UNL     1       1.775   9.467  23.102  0.00  0.00    +0.000 OA
BRANCH  15  17
ATOM     17  C   UNL     1      -0.272  10.349  22.072  0.00  0.00    +0.000 C 
BRANCH  17  18
ATOM     18  S   UNL     1      -0.128  11.892  21.102  0.00  0.00    +0.000 S 
BRANCH  18  19
ATOM     19  C   UNL     1      -1.494  11.707  19.974  0.00  0.00    +0.000 A 
ATOM     20  C   UNL     1      -2.680  12.419  20.134  0.00  0.00    +0.000 A 
ATOM     21  C   UNL     1      -3.719  12.271  19.212  0.00  0.00    +0.000 A 
ATOM     22  C   UNL     1      -3.590  11.416  18.106  0.00  0.00    +0.000 A 
ATOM     23  C   UNL     1      -4.746  11.278  17.155  0.00  0.00    +0.000 C 
ATOM     24  C   UNL     1      -2.383  10.716  17.920  0.00  0.00    +0.000 A 
ATOM     25  C   UNL     1      -2.127   9.812  16.745  0.00  0.00    +0.000 C 
ATOM     26  C   UNL     1      -1.346  10.876  18.859  0.00  0.00    +0.000 A 
ENDBRANCH  18  19
ENDBRANCH  17  18
ENDBRANCH  15  17
ENDBRANCH  14  15
ENDBRANCH   1  14
TORSDOF 8
ENDMDL
MODEL 6
REMARK VINA RESULT:      -7.1      1.187      1.902
REMARK  Name = 
REMARK  11 active torsions:
REMARK  status: ('A' for Active; 'I' for Inactive)
REMARK    1  A    between atoms: C_1  and  C_2
REMARK    2  A    between atoms: C_2  and  N_3
REMARK    3  A    between atoms: N_3  and  C_20
REMARK    4  A    between atoms: C_4  and  C_6
REMARK    5  A    between atoms: C_6  and  O_7
REMARK    6  A    between atoms: O_7  and  C_8
REMARK    7  A    between atoms: C_8  and  C_10
REMARK    8  A    between atoms: C_10  and  S_11
REMARK    9  A    between atoms: S_11  and  C_12
REMARK   10  A    between atoms: C_15  and  C_16
REMARK   11  A    between atoms: C_17  and  C_18
REMARK                            x       y       z     vdW  Elec       q    Type
REMARK                         _______ _______ _______ _____ _____    ______ ____
ROOT
ATOM      1  C   UNL     1       6.037   6.679  16.875  0.00  0.00    +0.000 C 
ENDROOT
BRANCH   1   3
ATOM      2  N   UNL     1       4.028   5.373  17.726  0.00  0.00    +0.000 N 
ATOM      3  C   UNL     1       4.555   6.593  17.256  0.00  0.00    +0.000 C 
ATOM      4  O   UNL     1       3.838   7.598  17.172  0.00  0.00    +0.000 OA
BRANCH   2   5
ATOM      5  C   UNL     1       2.619   5.425  18.206  0.00  0.00    +0.000 C 
ATOM      6  C   UNL     1       2.366   5.834  19.670  0.00  0.00    +0.000 C 
ATOM      7  C   UNL     1       2.497   4.595  20.541  0.00  0.00    +0.000 C 
ATOM      8  S   UNL     1       1.805   3.275  19.574  0.00  0.00    +0.000 S 
ATOM      9  O   UNL     1       0.420   3.110  19.968  0.00  0.00    +0.000 OA
ATOM     10  O   UNL     1       2.743   2.178  19.571  0.00  0.00    +0.000 OA
ATOM     11  C   UNL     1       1.852   4.101  18.001  0.00  0.00    +0.000 C 
ENDBRANCH   2   5
BRANCH   2  13
ATOM     12  C   UNL     1       5.699   4.145  19.164  0.00  0.00    +0.000 C 
ATOM     13  C   UNL     1       4.848   4.165  17.902  0.00  0.00    +0.000 C 
ENDBRANCH   2  13
ENDBRANCH   1   3
BRANCH   1  14
ATOM     14  O   UNL     1       6.519   7.990  17.224  0.00  0.00    +0.000 OA
BRANCH  14  15
ATOM     15  C   UNL     1       7.716   8.024  17.868  0.00  0.00    +0.000 C 
ATOM     16  O   UNL     1       8.147   7.105  18.559  0.00  0.00    +0.000 OA
BRANCH  15  17
ATOM     17  C   UNL     1       8.411   9.345  17.586  0.00  0.00    +0.000 C 
BRANCH  17  18
ATOM     18  S   UNL     1       9.100  10.061  19.120  0.00  0.00    +0.000 S 
BRANCH  18  19
ATOM     19  C   UNL     1       9.741  11.607  18.510  0.00  0.00    +0.000 A 
ATOM     20  C   UNL     1      10.846  11.660  17.663  0.00  0.00    +0.000 A 
ATOM     21  C   UNL     1      11.302  12.888  17.180  0.00  0.00    +0.000 A 
ATOM     22  C   UNL     1      10.657  14.087  17.523  0.00  0.00    +0.000 A 
ATOM     23  C   UNL     1      11.202  15.384  16.991  0.00  0.00    +0.000 C 
ATOM     24  C   UNL     1       9.521  14.039  18.353  0.00  0.00    +0.000 A 
ATOM     25  C   UNL     1       8.732  15.259  18.742  0.00  0.00    +0.000 C 
ATOM     26  C   UNL     1       9.075  12.793  18.832  0.00  0.00    +0.000 A 
ENDBRANCH  18  19
ENDBRANCH  17  18
ENDBRANCH  15  17
ENDBRANCH  14  15
ENDBRANCH   1  14
TORSDOF 8
ENDMDL
MODEL 7
REMARK VINA RESULT:      -7.0      5.436      8.058
REMARK  Name = 
REMARK  11 active torsions:
REMARK  status: ('A' for Active; 'I' for Inactive)
REMARK    1  A    between atoms: C_1  and  C_2
REMARK    2  A    between atoms: C_2  and  N_3
REMARK    3  A    between atoms: N_3  and  C_20
REMARK    4  A    between atoms: C_4  and  C_6
REMARK    5  A    between atoms: C_6  and  O_7
REMARK    6  A    between atoms: O_7  and  C_8
REMARK    7  A    between atoms: C_8  and  C_10
REMARK    8  A    between atoms: C_10  and  S_11
REMARK    9  A    between atoms: S_11  and  C_12
REMARK   10  A    between atoms: C_15  and  C_16
REMARK   11  A    between atoms: C_17  and  C_18
REMARK                            x       y       z     vdW  Elec       q    Type
REMARK                         _______ _______ _______ _____ _____    ______ ____
ROOT
ATOM      1  C   UNL     1       2.109   6.213  20.043  0.00  0.00    +0.000 C 
ENDROOT
BRANCH   1   3
ATOM      2  N   UNL     1       1.677   8.624  19.360  0.00  0.00    +0.000 N 
ATOM      3  C   UNL     1       1.768   7.666  20.390  0.00  0.00    +0.000 C 
ATOM      4  O   UNL     1       1.551   7.983  21.566  0.00  0.00    +0.000 OA
BRANCH   2   5
ATOM      5  C   UNL     1       1.201   9.973  19.777  0.00  0.00    +0.000 C 
ATOM      6  C   UNL     1      -0.025  10.053  20.706  0.00  0.00    +0.000 C 
ATOM      7  C   UNL     1      -1.279  10.001  19.848  0.00  0.00    +0.000 C 
ATOM      8  S   UNL     1      -0.875  10.924  18.385  0.00  0.00    +0.000 S 
ATOM      9  O   UNL     1      -1.348  12.282  18.568  0.00  0.00    +0.000 OA
ATOM     10  O   UNL     1      -1.235  10.129  17.236  0.00  0.00    +0.000 OA
ATOM     11  C   UNL     1       0.891  10.907  18.589  0.00  0.00    +0.000 C 
ENDBRANCH   2   5
BRANCH   2  13
ATOM     12  C   UNL     1       3.312   8.072  17.519  0.00  0.00    +0.000 C 
ATOM     13  C   UNL     1       1.866   8.289  17.940  0.00  0.00    +0.000 C 
ENDBRANCH   2  13
ENDBRANCH   1   3
BRANCH   1  14
ATOM     14  O   UNL     1       1.271   5.349  20.834  0.00  0.00    +0.000 OA
BRANCH  14  15
ATOM     15  C   UNL     1       1.310   4.030  20.505  0.00  0.00    +0.000 C 
ATOM     16  O   UNL     1       1.265   3.119  21.326  0.00  0.00    +0.000 OA
BRANCH  15  17
ATOM     17  C   UNL     1       1.404   3.883  18.996  0.00  0.00    +0.000 C 
BRANCH  17  18
ATOM     18  S   UNL     1       2.740   2.723  18.535  0.00  0.00    +0.000 S 
BRANCH  18  19
ATOM     19  C   UNL     1       4.077   3.858  18.229  0.00  0.00    +0.000 A 
ATOM     20  C   UNL     1       4.928   4.282  19.247  0.00  0.00    +0.000 A 
ATOM     21  C   UNL     1       5.985   5.150  18.964  0.00  0.00    +0.000 A 
ATOM     22  C   UNL     1       6.221   5.603  17.656  0.00  0.00    +0.000 A 
ATOM     23  C   UNL     1       7.361   6.552  17.410  0.00  0.00    +0.000 C 
ATOM     24  C   UNL     1       5.385   5.154  16.616  0.00  0.00    +0.000 A 
ATOM     25  C   UNL     1       5.580   5.544  15.176  0.00  0.00    +0.000 C 
ATOM     26  C   UNL     1       4.323   4.281  16.919  0.00  0.00    +0.000 A 
ENDBRANCH  18  19
ENDBRANCH  17  18
ENDBRANCH  15  17
ENDBRANCH  14  15
ENDBRANCH   1  14
TORSDOF 8
ENDMDL
MODEL 8
REMARK VINA RESULT:      -7.0      4.972      7.529
REMARK  Name = 
REMARK  11 active torsions:
REMARK  status: ('A' for Active; 'I' for Inactive)
REMARK    1  A    between atoms: C_1  and  C_2
REMARK    2  A    between atoms: C_2  and  N_3
REMARK    3  A    between atoms: N_3  and  C_20
REMARK    4  A    between atoms: C_4  and  C_6
REMARK    5  A    between atoms: C_6  and  O_7
REMARK    6  A    between atoms: O_7  and  C_8
REMARK    7  A    between atoms: C_8  and  C_10
REMARK    8  A    between atoms: C_10  and  S_11
REMARK    9  A    between atoms: S_11  and  C_12
REMARK   10  A    between atoms: C_15  and  C_16
REMARK   11  A    between atoms: C_17  and  C_18
REMARK                            x       y       z     vdW  Elec       q    Type
REMARK                         _______ _______ _______ _____ _____    ______ ____
ROOT
ATOM      1  C   UNL     1       3.045   2.022  18.046  0.00  0.00    +0.000 C 
ENDROOT
BRANCH   1   3
ATOM      2  N   UNL     1       5.019   3.596  17.738  0.00  0.00    +0.000 N 
ATOM      3  C   UNL     1       4.315   2.701  18.570  0.00  0.00    +0.000 C 
ATOM      4  O   UNL     1       4.700   2.479  19.724  0.00  0.00    +0.000 OA
BRANCH   2   5
ATOM      5  C   UNL     1       6.154   4.313  18.383  0.00  0.00    +0.000 C 
ATOM      6  C   UNL     1       5.826   5.442  19.378  0.00  0.00    +0.000 C 
ATOM      7  C   UNL     1       5.611   6.726  18.591  0.00  0.00    +0.000 C 
ATOM      8  S   UNL     1       6.794   6.659  17.268  0.00  0.00    +0.000 S 
ATOM      9  O   UNL     1       7.971   7.396  17.682  0.00  0.00    +0.000 OA
ATOM     10  O   UNL     1       6.104   6.937  16.031  0.00  0.00    +0.000 OA
ATOM     11  C   UNL     1       7.149   4.920  17.370  0.00  0.00    +0.000 C 
ENDBRANCH   2   5
BRANCH   2  13
ATOM     12  C   UNL     1       5.556   3.593  15.273  0.00  0.00    +0.000 C 
ATOM     13  C   UNL     1       4.572   3.941  16.380  0.00  0.00    +0.000 C 
ENDBRANCH   2  13
ENDBRANCH   1   3
BRANCH   1  14
ATOM     14  O   UNL     1       1.948   2.392  18.901  0.00  0.00    +0.000 OA
BRANCH  14  15
ATOM     15  C   UNL     1       1.402   3.615  18.663  0.00  0.00    +0.000 C 
ATOM     16  O   UNL     1       1.219   4.074  17.540  0.00  0.00    +0.000 OA
BRANCH  15  17
ATOM     17  C   UNL     1       1.060   4.287  19.981  0.00  0.00    +0.000 C 
BRANCH  17  18
ATOM     18  S   UNL     1       2.471   5.271  20.599  0.00  0.00    +0.000 S 
BRANCH  18  19
ATOM     19  C   UNL     1       2.021   6.897  20.028  0.00  0.00    +0.000 A 
ATOM     20  C   UNL     1       2.280   7.315  18.725  0.00  0.00    +0.000 A 
ATOM     21  C   UNL     1       1.886   8.587  18.304  0.00  0.00    +0.000 A 
ATOM     22  C   UNL     1       1.214   9.462  19.172  0.00  0.00    +0.000 A 
ATOM     23  C   UNL     1       0.828  10.828  18.674  0.00  0.00    +0.000 C 
ATOM     24  C   UNL     1       0.920   9.035  20.481  0.00  0.00    +0.000 A 
ATOM     25  C   UNL     1       0.165   9.877  21.473  0.00  0.00    +0.000 C 
ATOM     26  C   UNL     1       1.326   7.750  20.890  0.00  0.00    +0.000 A 
ENDBRANCH  18  19
ENDBRANCH  17  18
ENDBRANCH  15  17
ENDBRANCH  14  15
ENDBRANCH   1  14
TORSDOF 8
ENDMDL
MODEL 9
REMARK VINA RESULT:      -6.9      3.749     10.313
REMARK  Name = 
REMARK  11 active torsions:
REMARK  status: ('A' for Active; 'I' for Inactive)
REMARK    1  A    between atoms: C_1  and  C_2
REMARK    2  A    between atoms: C_2  and  N_3
REMARK    3  A    between atoms: N_3  and  C_20
REMARK    4  A    between atoms: C_4  and  C_6
REMARK    5  A    between atoms: C_6  and  O_7
REMARK    6  A    between atoms: O_7  and  C_8
REMARK    7  A    between atoms: C_8  and  C_10
REMARK    8  A    between atoms: C_10  and  S_11
REMARK    9  A    between atoms: S_11  and  C_12
REMARK   10  A    between atoms: C_15  and  C_16
REMARK   11  A    between atoms: C_17  and  C_18
REMARK                            x       y       z     vdW  Elec       q    Type
REMARK                         _______ _______ _______ _____ _____    ______ ____
ROOT
ATOM      1  C   UNL     1       8.744   9.991  18.306  0.00  0.00    +0.000 C 
ENDROOT
BRANCH   1   3
ATOM      2  N   UNL     1       9.704  12.177  19.182  0.00  0.00    +0.000 N 
ATOM      3  C   UNL     1       9.270  10.863  19.451  0.00  0.00    +0.000 C 
ATOM      4  O   UNL     1       9.288  10.418  20.605  0.00  0.00    +0.000 OA
BRANCH   2   5
ATOM      5  C   UNL     1      10.060  12.993  20.377  0.00  0.00    +0.000 C 
ATOM      6  C   UNL     1       8.939  13.788  21.073  0.00  0.00    +0.000 C 
ATOM      7  C   UNL     1       8.780  15.118  20.354  0.00  0.00    +0.000 C 
ATOM      8  S   UNL     1      10.429  15.599  19.904  0.00  0.00    +0.000 S 
ATOM      9  O   UNL     1      10.932  16.490  20.931  0.00  0.00    +0.000 OA
ATOM     10  O   UNL     1      10.430  15.955  18.505  0.00  0.00    +0.000 OA
ATOM     11  C   UNL     1      11.192  14.007  20.111  0.00  0.00    +0.000 C 
ENDBRANCH   2   5
BRANCH   2  13
ATOM     12  C   UNL     1      10.952  12.722  17.059  0.00  0.00    +0.000 C 
ATOM     13  C   UNL     1       9.648  12.777  17.841  0.00  0.00    +0.000 C 
ENDBRANCH   2  13
ENDBRANCH   1   3
BRANCH   1  14
ATOM     14  O   UNL     1       8.742   8.620  18.743  0.00  0.00    +0.000 OA
BRANCH  14  15
ATOM     15  C   UNL     1       7.965   7.772  18.016  0.00  0.00    +0.000 C 
ATOM     16  O   UNL     1       7.467   8.062  16.932  0.00  0.00    +0.000 OA
BRANCH  15  17
ATOM     17  C   UNL     1       7.834   6.447  18.746  0.00  0.00    +0.000 C 
BRANCH  17  18
ATOM     18  S   UNL     1       7.325   5.117  17.599  0.00  0.00    +0.000 S 
BRANCH  18  19
ATOM     19  C   UNL     1       5.614   4.923  18.050  0.00  0.00    +0.000 A 
ATOM     20  C   UNL     1       4.614   5.720  17.497  0.00  0.00    +0.000 A 
ATOM     21  C   UNL     1       3.278   5.519  17.852  0.00  0.00    +0.000 A 
ATOM     22  C   UNL     1       2.913   4.510  18.758  0.00  0.00    +0.000 A 
ATOM     23  C   UNL     1       1.463   4.349  19.120  0.00  0.00    +0.000 C 
ATOM     24  C   UNL     1       3.914   3.680  19.296  0.00  0.00    +0.000 A 
ATOM     25  C   UNL     1       3.623   2.543  20.238  0.00  0.00    +0.000 C 
ATOM     26  C   UNL     1       5.256   3.897  18.929  0.00  0.00    +0.000 A 
ENDBRANCH  18  19
ENDBRANCH  17  18
ENDBRANCH  15  17
ENDBRANCH  14  15
ENDBRANCH   1  14
TORSDOF 8
ENDMDL
