MODEL 1
REMARK VINA RESULT:      -6.8      0.000      0.000
REMARK  Name = 
REMARK  5 active torsions:
REMARK  status: ('A' for Active; 'I' for Inactive)
REMARK    1  A    between atoms: C_2  and  O_3
REMARK    2  A    between atoms: C_2  and  C_4
REMARK    3  A    between atoms: C_9  and  S_10
REMARK    4  A    between atoms: S_10  and  C_11
REMARK    5  A    between atoms: C_11  and  C_12
REMARK                            x       y       z     vdW  Elec       q    Type
REMARK                         _______ _______ _______ _____ _____    ______ ____
ROOT
ATOM      1  C   UNL     1       5.959   4.977  17.616  0.00  0.00    +0.000 A 
ATOM      2  C   UNL     1       6.925   4.386  16.787  0.00  0.00    +0.000 A 
ATOM      3  C   UNL     1       6.910   4.619  15.417  0.00  0.00    +0.000 A 
ATOM      4  C   UNL     1       5.932   5.456  14.921  0.00  0.00    +0.000 A 
ATOM      5  N   UNL     1       5.007   6.069  15.692  0.00  0.00    +0.000 NA
ATOM      6  C   UNL     1       5.021   5.839  17.030  0.00  0.00    +0.000 A 
ENDROOT
BRANCH   1   8
ATOM      7  O   UNL     1       6.663   5.236  19.863  0.00  0.00    +0.000 OA
ATOM      8  C   UNL     1       6.026   4.591  19.048  0.00  0.00    +0.000 C 
BRANCH   8   9
ATOM      9  O   UNL     1       5.467   3.403  19.348  0.00  0.00    +0.000 OA
ATOM     10  H   UNL     1       5.471   3.166  20.299  0.00  0.00    +0.000 HD
ENDBRANCH   8   9
ENDBRANCH   1   8
BRANCH   6  11
ATOM     11  S   UNL     1       3.745   6.707  17.958  0.00  0.00    +0.000 S 
BRANCH  11  12
ATOM     12  C   UNL     1       2.316   5.579  17.735  0.00  0.00    +0.000 C 
BRANCH  12  13
ATOM     13  C   UNL     1       2.064   4.688  18.935  0.00  0.00    +0.000 A 
ATOM     14  C   UNL     1       2.476   5.077  20.218  0.00  0.00    +0.000 A 
ATOM     15  C   UNL     1       2.197   4.279  21.333  0.00  0.00    +0.000 A 
ATOM     16  C   UNL     1       1.505   3.078  21.177  0.00  0.00    +0.000 A 
ATOM     17  C   UNL     1       1.092   2.678  19.909  0.00  0.00    +0.000 A 
ATOM     18  C   UNL     1       1.376   3.472  18.793  0.00  0.00    +0.000 A 
ENDBRANCH  12  13
ENDBRANCH  11  12
ENDBRANCH   6  11
TORSDOF 5
ENDMDL
MODEL 2
REMARK VINA RESULT:      -6.7      2.431      3.150
REMARK  Name = 
REMARK  5 active torsions:
REMARK  status: ('A' for Active; 'I' for Inactive)
REMARK    1  A    between atoms: C_2  and  O_3
REMARK    2  A    between atoms: C_2  and  C_4
REMARK    3  A    between atoms: C_9  and  S_10
REMARK    4  A    between atoms: S_10  and  C_11
REMARK    5  A    between atoms: C_11  and  C_12
REMARK                            x       y       z     vdW  Elec       q    Type
REMARK                         _______ _______ _______ _____ _____    ______ ____
ROOT
ATOM      1  C   UNL     1       6.436   5.881  16.867  0.00  0.00    +0.000 A 
ATOM      2  C   UNL     1       7.454   6.705  17.374  0.00  0.00    +0.000 A 
ATOM      3  C   UNL     1       7.890   6.554  18.684  0.00  0.00    +0.000 A 
ATOM      4  C   UNL     1       7.302   5.564  19.445  0.00  0.00    +0.000 A 
ATOM      5  N   UNL     1       6.343   4.731  18.981  0.00  0.00    +0.000 NA
ATOM      6  C   UNL     1       5.916   4.881  17.701  0.00  0.00    +0.000 A 
ENDROOT
BRANCH   1   8
ATOM      7  O   UNL     1       5.055   6.926  15.252  0.00  0.00    +0.000 OA
ATOM      8  C   UNL     1       5.998   6.189  15.482  0.00  0.00    +0.000 C 
BRANCH   8   9
ATOM      9  O   UNL     1       6.612   5.480  14.516  0.00  0.00    +0.000 OA
ATOM     10  H   UNL     1       7.581   5.611  14.452  0.00  0.00    +0.000 HD
ENDBRANCH   8   9
ENDBRANCH   1   8
BRANCH   6  11
ATOM     11  S   UNL     1       4.640   3.718  17.192  0.00  0.00    +0.000 S 
BRANCH  11  12
ATOM     12  C   UNL     1       3.120   4.664  17.589  0.00  0.00    +0.000 C 
BRANCH  12  13
ATOM     13  C   UNL     1       2.419   4.173  18.840  0.00  0.00    +0.000 A 
ATOM     14  C   UNL     1       1.392   3.220  18.761  0.00  0.00    +0.000 A 
ATOM     15  C   UNL     1       0.780   2.728  19.920  0.00  0.00    +0.000 A 
ATOM     16  C   UNL     1       1.188   3.186  21.172  0.00  0.00    +0.000 A 
ATOM     17  C   UNL     1       2.204   4.133  21.267  0.00  0.00    +0.000 A 
ATOM     18  C   UNL     1       2.812   4.630  20.109  0.00  0.00    +0.000 A 
ENDBRANCH  12  13
ENDBRANCH  11  12
ENDBRANCH   6  11
TORSDOF 5
ENDMDL
MODEL 3
REMARK VINA RESULT:      -6.6      0.165      1.409
REMARK  Name = 
REMARK  5 active torsions:
REMARK  status: ('A' for Active; 'I' for Inactive)
REMARK    1  A    between atoms: C_2  and  O_3
REMARK    2  A    between atoms: C_2  and  C_4
REMARK    3  A    between atoms: C_9  and  S_10
REMARK    4  A    between atoms: S_10  and  C_11
REMARK    5  A    between atoms: C_11  and  C_12
REMARK                            x       y       z     vdW  Elec       q    Type
REMARK                         _______ _______ _______ _____ _____    ______ ____
ROOT
ATOM      1  C   UNL     1       6.049   4.979  17.654  0.00  0.00    +0.000 A 
ATOM      2  C   UNL     1       7.053   4.467  16.817  0.00  0.00    +0.000 A 
ATOM      3  C   UNL     1       7.023   4.721  15.451  0.00  0.00    +0.000 A 
ATOM      4  C   UNL     1       5.993   5.500  14.967  0.00  0.00    +0.000 A 
ATOM      5  N   UNL     1       5.028   6.037  15.747  0.00  0.00    +0.000 NA
ATOM      6  C   UNL     1       5.056   5.787  17.080  0.00  0.00    +0.000 A 
ENDROOT
BRANCH   1   8
ATOM      7  O   UNL     1       5.486   3.651  19.533  0.00  0.00    +0.000 OA
ATOM      8  C   UNL     1       6.140   4.575  19.080  0.00  0.00    +0.000 C 
BRANCH   8   9
ATOM      9  O   UNL     1       6.872   5.392  19.861  0.00  0.00    +0.000 OA
ATOM     10  H   UNL     1       7.420   4.944  20.539  0.00  0.00    +0.000 HD
ENDBRANCH   8   9
ENDBRANCH   1   8
BRANCH   6  11
ATOM     11  S   UNL     1       3.724   6.552  18.020  0.00  0.00    +0.000 S 
BRANCH  11  12
ATOM     12  C   UNL     1       2.365   5.351  17.750  0.00  0.00    +0.000 C 
BRANCH  12  13
ATOM     13  C   UNL     1       2.020   4.552  18.990  0.00  0.00    +0.000 A 
ATOM     14  C   UNL     1       1.295   3.354  18.894  0.00  0.00    +0.000 A 
ATOM     15  C   UNL     1       1.020   2.589  20.033  0.00  0.00    +0.000 A 
ATOM     16  C   UNL     1       1.465   3.015  21.284  0.00  0.00    +0.000 A 
ATOM     17  C   UNL     1       2.184   4.202  21.396  0.00  0.00    +0.000 A 
ATOM     18  C   UNL     1       2.454   4.971  20.258  0.00  0.00    +0.000 A 
ENDBRANCH  12  13
ENDBRANCH  11  12
ENDBRANCH   6  11
TORSDOF 5
ENDMDL
MODEL 4
REMARK VINA RESULT:      -6.6      2.456      2.950
REMARK  Name = 
REMARK  5 active torsions:
REMARK  status: ('A' for Active; 'I' for Inactive)
REMARK    1  A    between atoms: C_2  and  O_3
REMARK    2  A    between atoms: C_2  and  C_4
REMARK    3  A    between atoms: C_9  and  S_10
REMARK    4  A    between atoms: S_10  and  C_11
REMARK    5  A    between atoms: C_11  and  C_12
REMARK                            x       y       z     vdW  Elec       q    Type
REMARK                         _______ _______ _______ _____ _____    ______ ____
ROOT
ATOM      1  C   UNL     1       6.476   5.856  16.852  0.00  0.00    +0.000 A 
ATOM      2  C   UNL     1       7.463   6.711  17.369  0.00  0.00    +0.000 A 
ATOM      3  C   UNL     1       7.894   6.570  18.682  0.00  0.00    +0.000 A 
ATOM      4  C   UNL     1       7.333   5.560  19.435  0.00  0.00    +0.000 A 
ATOM      5  N   UNL     1       6.406   4.698  18.962  0.00  0.00    +0.000 NA
ATOM      6  C   UNL     1       5.983   4.838  17.680  0.00  0.00    +0.000 A 
ENDROOT
BRANCH   1   8
ATOM      7  O   UNL     1       5.085   6.876  15.229  0.00  0.00    +0.000 OA
ATOM      8  C   UNL     1       6.038   6.154  15.465  0.00  0.00    +0.000 C 
BRANCH   8   9
ATOM      9  O   UNL     1       6.667   5.452  14.503  0.00  0.00    +0.000 OA
ATOM     10  H   UNL     1       7.444   4.936  14.801  0.00  0.00    +0.000 HD
ENDBRANCH   8   9
ENDBRANCH   1   8
BRANCH   6  11
ATOM     11  S   UNL     1       4.749   3.635  17.158  0.00  0.00    +0.000 S 
BRANCH  11  12
ATOM     12  C   UNL     1       3.196   4.541  17.523  0.00  0.00    +0.000 C 
BRANCH  12  13
ATOM     13  C   UNL     1       2.498   4.050  18.775  0.00  0.00    +0.000 A 
ATOM     14  C   UNL     1       2.879   4.519  20.041  0.00  0.00    +0.000 A 
ATOM     15  C   UNL     1       2.200   4.106  21.193  0.00  0.00    +0.000 A 
ATOM     16  C   UNL     1       1.132   3.215  21.091  0.00  0.00    +0.000 A 
ATOM     17  C   UNL     1       0.743   2.739  19.842  0.00  0.00    +0.000 A 
ATOM     18  C   UNL     1       1.426   3.147  18.690  0.00  0.00    +0.000 A 
ENDBRANCH  12  13
ENDBRANCH  11  12
ENDBRANCH   6  11
TORSDOF 5
ENDMDL
MODEL 5
REMARK VINA RESULT:      -6.5      0.966      1.307
REMARK  Name = 
REMARK  5 active torsions:
REMARK  status: ('A' for Active; 'I' for Inactive)
REMARK    1  A    between atoms: C_2  and  O_3
REMARK    2  A    between atoms: C_2  and  C_4
REMARK    3  A    between atoms: C_9  and  S_10
REMARK    4  A    between atoms: S_10  and  C_11
REMARK    5  A    between atoms: C_11  and  C_12
REMARK                            x       y       z     vdW  Elec       q    Type
REMARK                         _______ _______ _______ _____ _____    ______ ____
ROOT
ATOM      1  C   UNL     1       6.621   5.346  17.667  0.00  0.00    +0.000 A 
ATOM      2  C   UNL     1       7.390   4.624  16.740  0.00  0.00    +0.000 A 
ATOM      3  C   UNL     1       6.796   4.091  15.602  0.00  0.00    +0.000 A 
ATOM      4  C   UNL     1       5.447   4.317  15.419  0.00  0.00    +0.000 A 
ATOM      5  N   UNL     1       4.684   5.035  16.272  0.00  0.00    +0.000 NA
ATOM      6  C   UNL     1       5.264   5.553  17.385  0.00  0.00    +0.000 A 
ENDROOT
BRANCH   1   8
ATOM      7  O   UNL     1       7.154   5.290  19.974  0.00  0.00    +0.000 OA
ATOM      8  C   UNL     1       7.347   5.796  18.882  0.00  0.00    +0.000 C 
BRANCH   8   9
ATOM      9  O   UNL     1       8.109   6.895  18.721  0.00  0.00    +0.000 OA
ATOM     10  H   UNL     1       8.044   7.558  19.440  0.00  0.00    +0.000 HD
ENDBRANCH   8   9
ENDBRANCH   1   8
BRANCH   6  11
ATOM     11  S   UNL     1       4.153   6.491  18.447  0.00  0.00    +0.000 S 
BRANCH  11  12
ATOM     12  C   UNL     1       2.543   5.705  18.058  0.00  0.00    +0.000 C 
BRANCH  12  13
ATOM     13  C   UNL     1       2.111   4.683  19.089  0.00  0.00    +0.000 A 
ATOM     14  C   UNL     1       2.495   4.811  20.433  0.00  0.00    +0.000 A 
ATOM     15  C   UNL     1       2.053   3.896  21.395  0.00  0.00    +0.000 A 
ATOM     16  C   UNL     1       1.222   2.839  21.024  0.00  0.00    +0.000 A 
ATOM     17  C   UNL     1       0.834   2.698  19.695  0.00  0.00    +0.000 A 
ATOM     18  C   UNL     1       1.280   3.608  18.730  0.00  0.00    +0.000 A 
ENDBRANCH  12  13
ENDBRANCH  11  12
ENDBRANCH   6  11
TORSDOF 5
ENDMDL
MODEL 6
REMARK VINA RESULT:      -6.5      1.064      1.691
REMARK  Name = 
REMARK  5 active torsions:
REMARK  status: ('A' for Active; 'I' for Inactive)
REMARK    1  A    between atoms: C_2  and  O_3
REMARK    2  A    between atoms: C_2  and  C_4
REMARK    3  A    between atoms: C_9  and  S_10
REMARK    4  A    between atoms: S_10  and  C_11
REMARK    5  A    between atoms: C_11  and  C_12
REMARK                            x       y       z     vdW  Elec       q    Type
REMARK                         _______ _______ _______ _____ _____    ______ ____
ROOT
ATOM      1  C   UNL     1       6.643   5.448  17.677  0.00  0.00    +0.000 A 
ATOM      2  C   UNL     1       7.401   4.704  16.757  0.00  0.00    +0.000 A 
ATOM      3  C   UNL     1       6.779   4.067  15.690  0.00  0.00    +0.000 A 
ATOM      4  C   UNL     1       5.413   4.212  15.566  0.00  0.00    +0.000 A 
ATOM      5  N   UNL     1       4.656   4.947  16.411  0.00  0.00    +0.000 NA
ATOM      6  C   UNL     1       5.264   5.566  17.456  0.00  0.00    +0.000 A 
ENDROOT
BRANCH   1   8
ATOM      7  O   UNL     1       8.172   6.951  18.683  0.00  0.00    +0.000 OA
ATOM      8  C   UNL     1       7.404   6.013  18.819  0.00  0.00    +0.000 C 
BRANCH   8   9
ATOM      9  O   UNL     1       7.304   5.324  19.972  0.00  0.00    +0.000 OA
ATOM     10  H   UNL     1       8.033   4.693  20.147  0.00  0.00    +0.000 HD
ENDBRANCH   8   9
ENDBRANCH   1   8
BRANCH   6  11
ATOM     11  S   UNL     1       4.160   6.516  18.514  0.00  0.00    +0.000 S 
BRANCH  11  12
ATOM     12  C   UNL     1       2.528   5.844  18.018  0.00  0.00    +0.000 C 
BRANCH  12  13
ATOM     13  C   UNL     1       2.023   4.755  18.941  0.00  0.00    +0.000 A 
ATOM     14  C   UNL     1       1.422   3.596  18.426  0.00  0.00    +0.000 A 
ATOM     15  C   UNL     1       1.003   2.567  19.276  0.00  0.00    +0.000 A 
ATOM     16  C   UNL     1       1.177   2.686  20.655  0.00  0.00    +0.000 A 
ATOM     17  C   UNL     1       1.770   3.830  21.182  0.00  0.00    +0.000 A 
ATOM     18  C   UNL     1       2.184   4.863  20.333  0.00  0.00    +0.000 A 
ENDBRANCH  12  13
ENDBRANCH  11  12
ENDBRANCH   6  11
TORSDOF 5
ENDMDL
MODEL 7
REMARK VINA RESULT:      -6.4      1.479      2.156
REMARK  Name = 
REMARK  5 active torsions:
REMARK  status: ('A' for Active; 'I' for Inactive)
REMARK    1  A    between atoms: C_2  and  O_3
REMARK    2  A    between atoms: C_2  and  C_4
REMARK    3  A    between atoms: C_9  and  S_10
REMARK    4  A    between atoms: S_10  and  C_11
REMARK    5  A    between atoms: C_11  and  C_12
REMARK                            x       y       z     vdW  Elec       q    Type
REMARK                         _______ _______ _______ _____ _____    ______ ____
ROOT
ATOM      1  C   UNL     1       6.622   5.852  16.857  0.00  0.00    +0.000 A 
ATOM      2  C   UNL     1       7.261   5.170  15.809  0.00  0.00    +0.000 A 
ATOM      3  C   UNL     1       6.579   4.199  15.086  0.00  0.00    +0.000 A 
ATOM      4  C   UNL     1       5.264   3.953  15.426  0.00  0.00    +0.000 A 
ATOM      5  N   UNL     1       4.607   4.613  16.406  0.00  0.00    +0.000 NA
ATOM      6  C   UNL     1       5.275   5.559  17.113  0.00  0.00    +0.000 A 
ENDROOT
BRANCH   1   8
ATOM      7  O   UNL     1       7.940   6.536  18.701  0.00  0.00    +0.000 OA
ATOM      8  C   UNL     1       7.475   6.807  17.608  0.00  0.00    +0.000 C 
BRANCH   8   9
ATOM      9  O   UNL     1       7.566   8.039  17.071  0.00  0.00    +0.000 OA
ATOM     10  H   UNL     1       6.711   8.464  16.849  0.00  0.00    +0.000 HD
ENDBRANCH   8   9
ENDBRANCH   1   8
BRANCH   6  11
ATOM     11  S   UNL     1       4.301   6.372  18.391  0.00  0.00    +0.000 S 
BRANCH  11  12
ATOM     12  C   UNL     1       2.617   5.772  17.988  0.00  0.00    +0.000 C 
BRANCH  12  13
ATOM     13  C   UNL     1       2.096   4.744  18.972  0.00  0.00    +0.000 A 
ATOM     14  C   UNL     1       1.405   3.608  18.527  0.00  0.00    +0.000 A 
ATOM     15  C   UNL     1       0.969   2.633  19.432  0.00  0.00    +0.000 A 
ATOM     16  C   UNL     1       1.218   2.785  20.795  0.00  0.00    +0.000 A 
ATOM     17  C   UNL     1       1.901   3.908  21.253  0.00  0.00    +0.000 A 
ATOM     18  C   UNL     1       2.332   4.887  20.350  0.00  0.00    +0.000 A 
ENDBRANCH  12  13
ENDBRANCH  11  12
ENDBRANCH   6  11
TORSDOF 5
ENDMDL
MODEL 8
REMARK VINA RESULT:      -6.3      2.353      2.958
REMARK  Name = 
REMARK  5 active torsions:
REMARK  status: ('A' for Active; 'I' for Inactive)
REMARK    1  A    between atoms: C_2  and  O_3
REMARK    2  A    between atoms: C_2  and  C_4
REMARK    3  A    between atoms: C_9  and  S_10
REMARK    4  A    between atoms: S_10  and  C_11
REMARK    5  A    between atoms: C_11  and  C_12
REMARK                            x       y       z     vdW  Elec       q    Type
REMARK                         _______ _______ _______ _____ _____    ______ ____
ROOT
ATOM      1  C   UNL     1       6.623   4.777  16.854  0.00  0.00    +0.000 A 
ATOM      2  C   UNL     1       7.745   5.264  17.545  0.00  0.00    +0.000 A 
ATOM      3  C   UNL     1       7.639   5.634  18.880  0.00  0.00    +0.000 A 
ATOM      4  C   UNL     1       6.411   5.485  19.490  0.00  0.00    +0.000 A 
ATOM      5  N   UNL     1       5.319   4.989  18.868  0.00  0.00    +0.000 NA
ATOM      6  C   UNL     1       5.421   4.631  17.562  0.00  0.00    +0.000 A 
ENDROOT
BRANCH   1   8
ATOM      7  O   UNL     1       7.337   5.309  14.660  0.00  0.00    +0.000 OA
ATOM      8  C   UNL     1       6.837   4.492  15.413  0.00  0.00    +0.000 C 
BRANCH   8   9
ATOM      9  O   UNL     1       6.301   3.337  14.972  0.00  0.00    +0.000 OA
ATOM     10  H   UNL     1       6.833   2.534  15.151  0.00  0.00    +0.000 HD
ENDBRANCH   8   9
ENDBRANCH   1   8
BRANCH   6  11
ATOM     11  S   UNL     1       3.907   3.983  16.837  0.00  0.00    +0.000 S 
BRANCH  11  12
ATOM     12  C   UNL     1       3.679   2.444  17.807  0.00  0.00    +0.000 C 
BRANCH  12  13
ATOM     13  C   UNL     1       2.827   2.637  19.045  0.00  0.00    +0.000 A 
ATOM     14  C   UNL     1       3.367   2.452  20.326  0.00  0.00    +0.000 A 
ATOM     15  C   UNL     1       2.594   2.681  21.470  0.00  0.00    +0.000 A 
ATOM     16  C   UNL     1       1.269   3.095  21.346  0.00  0.00    +0.000 A 
ATOM     17  C   UNL     1       0.717   3.282  20.081  0.00  0.00    +0.000 A 
ATOM     18  C   UNL     1       1.488   3.047  18.936  0.00  0.00    +0.000 A 
ENDBRANCH  12  13
ENDBRANCH  11  12
ENDBRANCH   6  11
TORSDOF 5
ENDMDL
MODEL 9
REMARK VINA RESULT:      -6.3      1.571      1.979
REMARK  Name = 
REMARK  5 active torsions:
REMARK  status: ('A' for Active; 'I' for Inactive)
REMARK    1  A    between atoms: C_2  and  O_3
REMARK    2  A    between atoms: C_2  and  C_4
REMARK    3  A    between atoms: C_9  and  S_10
REMARK    4  A    between atoms: S_10  and  C_11
REMARK    5  A    between atoms: C_11  and  C_12
REMARK                            x       y       z     vdW  Elec       q    Type
REMARK                         _______ _______ _______ _____ _____    ______ ____
ROOT
ATOM      1  C   UNL     1       6.629   5.962  16.645  0.00  0.00    +0.000 A 
ATOM      2  C   UNL     1       7.416   5.291  15.694  0.00  0.00    +0.000 A 
ATOM      3  C   UNL     1       6.854   4.313  14.884  0.00  0.00    +0.000 A 
ATOM      4  C   UNL     1       5.509   4.048  15.040  0.00  0.00    +0.000 A 
ATOM      5  N   UNL     1       4.713   4.696  15.920  0.00  0.00    +0.000 NA
ATOM      6  C   UNL     1       5.264   5.650  16.714  0.00  0.00    +0.000 A 
ENDROOT
BRANCH   1   8
ATOM      7  O   UNL     1       7.706   8.021  17.101  0.00  0.00    +0.000 OA
ATOM      8  C   UNL     1       7.357   6.927  17.508  0.00  0.00    +0.000 C 
BRANCH   8   9
ATOM      9  O   UNL     1       7.735   6.449  18.710  0.00  0.00    +0.000 OA
ATOM     10  H   UNL     1       8.071   5.529  18.708  0.00  0.00    +0.000 HD
ENDBRANCH   8   9
ENDBRANCH   1   8
BRANCH   6  11
ATOM     11  S   UNL     1       4.113   6.445  17.846  0.00  0.00    +0.000 S 
BRANCH  11  12
ATOM     12  C   UNL     1       4.223   5.336  19.301  0.00  0.00    +0.000 C 
BRANCH  12  13
ATOM     13  C   UNL     1       3.004   4.453  19.474  0.00  0.00    +0.000 A 
ATOM     14  C   UNL     1       2.390   4.312  20.728  0.00  0.00    +0.000 A 
ATOM     15  C   UNL     1       1.234   3.538  20.878  0.00  0.00    +0.000 A 
ATOM     16  C   UNL     1       0.679   2.892  19.774  0.00  0.00    +0.000 A 
ATOM     17  C   UNL     1       1.278   3.019  18.523  0.00  0.00    +0.000 A 
ATOM     18  C   UNL     1       2.438   3.788  18.374  0.00  0.00    +0.000 A 
ENDBRANCH  12  13
ENDBRANCH  11  12
ENDBRANCH   6  11
TORSDOF 5
ENDMDL
