MODEL 1
REMARK VINA RESULT:      -7.8      0.000      0.000
REMARK  Name = 
REMARK  5 active torsions:
REMARK  status: ('A' for Active; 'I' for Inactive)
REMARK    1  A    between atoms: C_4  and  C_5
REMARK    2  A    between atoms: N_7  and  C_8
REMARK    3  A    between atoms: C_15  and  C_16
REMARK    4  A    between atoms: C_16  and  S_17
REMARK    5  A    between atoms: S_17  and  C_18
REMARK                            x       y       z     vdW  Elec       q    Type
REMARK                         _______ _______ _______ _____ _____    ______ ____
ROOT
ATOM      1  C   UNL     1       2.733   6.003  18.866  0.00  0.00    +0.000 A 
ATOM      2  N   UNL     1       1.906   6.503  19.800  0.00  0.00    +0.000 NA
ATOM      3  N   UNL     1       1.907   7.844  19.623  0.00  0.00    +0.000 N 
ATOM      4  C   UNL     1       2.739   8.205  18.591  0.00  0.00    +0.000 A 
ATOM      5  C   UNL     1       3.285   7.054  18.068  0.00  0.00    +0.000 A 
ENDROOT
BRANCH   1   9
ATOM      6  C   UNL     1       3.235   1.748  18.646  0.00  0.00    +0.000 A 
ATOM      7  C   UNL     1       3.966   2.498  19.564  0.00  0.00    +0.000 A 
ATOM      8  C   UNL     1       3.813   3.885  19.618  0.00  0.00    +0.000 A 
ATOM      9  C   UNL     1       2.928   4.546  18.751  0.00  0.00    +0.000 A 
ATOM     10  C   UNL     1       2.227   3.780  17.810  0.00  0.00    +0.000 A 
ATOM     11  C   UNL     1       2.362   2.390  17.770  0.00  0.00    +0.000 A 
ENDBRANCH   1   9
BRANCH   3  12
ATOM     12  C   UNL     1       1.119   8.706  20.440  0.00  0.00    +0.000 A 
ATOM     13  C   UNL     1       1.119   8.535  21.832  0.00  0.00    +0.000 A 
ATOM     14  C   UNL     1       0.345   9.379  22.642  0.00  0.00    +0.000 A 
ATOM     15  C   UNL     1      -0.426  10.389  22.071  0.00  0.00    +0.000 A 
ATOM     16  C   UNL     1      -0.429  10.562  20.688  0.00  0.00    +0.000 A 
ATOM     17  C   UNL     1       0.340   9.727  19.872  0.00  0.00    +0.000 A 
ENDBRANCH   3  12
BRANCH   5  18
ATOM     18  C   UNL     1       4.239   7.002  16.919  0.00  0.00    +0.000 C 
BRANCH  18  19
ATOM     19  S   UNL     1       5.891   6.457  17.430  0.00  0.00    +0.000 S 
BRANCH  19  20
ATOM     20  C   UNL     1       6.368   5.541  16.024  0.00  0.00    +0.000 A 
ATOM     21  N   UNL     1       7.483   5.768  15.363  0.00  0.00    +0.000 NA
ATOM     22  N   UNL     1       7.603   4.962  14.248  0.00  0.00    +0.000 NA
ATOM     23  C   UNL     1       6.573   4.153  14.122  0.00  0.00    +0.000 A 
ATOM     24  S   UNL     1       5.402   4.284  15.367  0.00  0.00    +0.000 S 
ENDBRANCH  19  20
ENDBRANCH  18  19
ENDBRANCH   5  18
TORSDOF 5
ENDMDL
MODEL 2
REMARK VINA RESULT:      -7.8      0.229      1.400
REMARK  Name = 
REMARK  5 active torsions:
REMARK  status: ('A' for Active; 'I' for Inactive)
REMARK    1  A    between atoms: C_4  and  C_5
REMARK    2  A    between atoms: N_7  and  C_8
REMARK    3  A    between atoms: C_15  and  C_16
REMARK    4  A    between atoms: C_16  and  S_17
REMARK    5  A    between atoms: S_17  and  C_18
REMARK                            x       y       z     vdW  Elec       q    Type
REMARK                         _______ _______ _______ _____ _____    ______ ____
ROOT
ATOM      1  C   UNL     1       2.585   5.962  19.021  0.00  0.00    +0.000 A 
ATOM      2  N   UNL     1       1.757   6.499  19.935  0.00  0.00    +0.000 NA
ATOM      3  N   UNL     1       1.803   7.836  19.743  0.00  0.00    +0.000 N 
ATOM      4  C   UNL     1       2.662   8.160  18.722  0.00  0.00    +0.000 A 
ATOM      5  C   UNL     1       3.182   6.986  18.221  0.00  0.00    +0.000 A 
ENDROOT
BRANCH   1   9
ATOM      6  C   UNL     1       3.109   1.721  18.646  0.00  0.00    +0.000 A 
ATOM      7  C   UNL     1       2.369   2.427  17.700  0.00  0.00    +0.000 A 
ATOM      8  C   UNL     1       2.186   3.805  17.838  0.00  0.00    +0.000 A 
ATOM      9  C   UNL     1       2.737   4.499  18.927  0.00  0.00    +0.000 A 
ATOM     10  C   UNL     1       3.447   3.767  19.888  0.00  0.00    +0.000 A 
ATOM     11  C   UNL     1       3.651   2.393  19.740  0.00  0.00    +0.000 A 
ENDBRANCH   1   9
BRANCH   3  12
ATOM     12  C   UNL     1       1.027   8.731  20.537  0.00  0.00    +0.000 A 
ATOM     13  C   UNL     1       0.461   9.871  19.948  0.00  0.00    +0.000 A 
ATOM     14  C   UNL     1      -0.303  10.755  20.722  0.00  0.00    +0.000 A 
ATOM     15  C   UNL     1      -0.505  10.507  22.078  0.00  0.00    +0.000 A 
ATOM     16  C   UNL     1       0.055   9.375  22.668  0.00  0.00    +0.000 A 
ATOM     17  C   UNL     1       0.817   8.487  21.903  0.00  0.00    +0.000 A 
ENDBRANCH   3  12
BRANCH   5  18
ATOM     18  C   UNL     1       4.153   6.892  17.089  0.00  0.00    +0.000 C 
BRANCH  18  19
ATOM     19  S   UNL     1       5.761   6.246  17.624  0.00  0.00    +0.000 S 
BRANCH  19  20
ATOM     20  C   UNL     1       6.311   5.510  16.141  0.00  0.00    +0.000 A 
ATOM     21  N   UNL     1       7.430   5.855  15.541  0.00  0.00    +0.000 NA
ATOM     22  N   UNL     1       7.613   5.182  14.349  0.00  0.00    +0.000 NA
ATOM     23  C   UNL     1       6.624   4.348  14.107  0.00  0.00    +0.000 A 
ATOM     24  S   UNL     1       5.420   4.292  15.326  0.00  0.00    +0.000 S 
ENDBRANCH  19  20
ENDBRANCH  18  19
ENDBRANCH   5  18
TORSDOF 5
ENDMDL
MODEL 3
REMARK VINA RESULT:      -7.7      2.464      4.696
REMARK  Name = 
REMARK  5 active torsions:
REMARK  status: ('A' for Active; 'I' for Inactive)
REMARK    1  A    between atoms: C_4  and  C_5
REMARK    2  A    between atoms: N_7  and  C_8
REMARK    3  A    between atoms: C_15  and  C_16
REMARK    4  A    between atoms: C_16  and  S_17
REMARK    5  A    between atoms: S_17  and  C_18
REMARK                            x       y       z     vdW  Elec       q    Type
REMARK                         _______ _______ _______ _____ _____    ______ ____
ROOT
ATOM      1  C   UNL     1       3.852   5.708  17.454  0.00  0.00    +0.000 A 
ATOM      2  N   UNL     1       3.644   6.923  17.991  0.00  0.00    +0.000 NA
ATOM      3  N   UNL     1       2.404   6.888  18.528  0.00  0.00    +0.000 N 
ATOM      4  C   UNL     1       1.812   5.665  18.328  0.00  0.00    +0.000 A 
ATOM      5  C   UNL     1       2.710   4.870  17.650  0.00  0.00    +0.000 A 
ENDROOT
BRANCH   1   9
ATOM      6  C   UNL     1       7.589   4.656  15.628  0.00  0.00    +0.000 A 
ATOM      7  C   UNL     1       7.444   4.615  17.013  0.00  0.00    +0.000 A 
ATOM      8  C   UNL     1       6.231   4.977  17.603  0.00  0.00    +0.000 A 
ATOM      9  C   UNL     1       5.143   5.390  16.817  0.00  0.00    +0.000 A 
ATOM     10  C   UNL     1       5.318   5.460  15.429  0.00  0.00    +0.000 A 
ATOM     11  C   UNL     1       6.523   5.076  14.835  0.00  0.00    +0.000 A 
ENDBRANCH   1   9
BRANCH   3  12
ATOM     12  C   UNL     1       1.851   8.016  19.202  0.00  0.00    +0.000 A 
ATOM     13  C   UNL     1       1.614   7.954  20.583  0.00  0.00    +0.000 A 
ATOM     14  C   UNL     1       1.071   9.059  21.252  0.00  0.00    +0.000 A 
ATOM     15  C   UNL     1       0.763  10.224  20.552  0.00  0.00    +0.000 A 
ATOM     16  C   UNL     1       0.997  10.291  19.180  0.00  0.00    +0.000 A 
ATOM     17  C   UNL     1       1.540   9.194  18.504  0.00  0.00    +0.000 A 
ENDBRANCH   3  12
BRANCH   5  18
ATOM     18  C   UNL     1       2.464   3.453  17.244  0.00  0.00    +0.000 C 
BRANCH  18  19
ATOM     19  S   UNL     1       3.464   2.286  18.208  0.00  0.00    +0.000 S 
BRANCH  19  20
ATOM     20  C   UNL     1       2.740   2.482  19.784  0.00  0.00    +0.000 A 
ATOM     21  N   UNL     1       3.446   2.581  20.890  0.00  0.00    +0.000 NA
ATOM     22  N   UNL     1       2.647   2.657  22.014  0.00  0.00    +0.000 NA
ATOM     23  C   UNL     1       1.368   2.623  21.703  0.00  0.00    +0.000 A 
ATOM     24  S   UNL     1       1.042   2.533  20.022  0.00  0.00    +0.000 S 
ENDBRANCH  19  20
ENDBRANCH  18  19
ENDBRANCH   5  18
TORSDOF 5
ENDMDL
MODEL 4
REMARK VINA RESULT:      -7.6      1.580      2.019
REMARK  Name = 
REMARK  5 active torsions:
REMARK  status: ('A' for Active; 'I' for Inactive)
REMARK    1  A    between atoms: C_4  and  C_5
REMARK    2  A    between atoms: N_7  and  C_8
REMARK    3  A    between atoms: C_15  and  C_16
REMARK    4  A    between atoms: C_16  and  S_17
REMARK    5  A    between atoms: S_17  and  C_18
REMARK                            x       y       z     vdW  Elec       q    Type
REMARK                         _______ _______ _______ _____ _____    ______ ____
ROOT
ATOM      1  C   UNL     1       2.212   6.243  19.297  0.00  0.00    +0.000 A 
ATOM      2  N   UNL     1       1.566   7.326  19.765  0.00  0.00    +0.000 NA
ATOM      3  N   UNL     1       1.948   8.358  18.980  0.00  0.00    +0.000 N 
ATOM      4  C   UNL     1       2.843   7.947  18.022  0.00  0.00    +0.000 A 
ATOM      5  C   UNL     1       3.036   6.592  18.182  0.00  0.00    +0.000 A 
ENDROOT
BRANCH   1   9
ATOM      6  C   UNL     1       1.462   2.452  21.160  0.00  0.00    +0.000 A 
ATOM      7  C   UNL     1       2.200   3.430  21.823  0.00  0.00    +0.000 A 
ATOM      8  C   UNL     1       2.458   4.655  21.203  0.00  0.00    +0.000 A 
ATOM      9  C   UNL     1       1.984   4.921  19.909  0.00  0.00    +0.000 A 
ATOM     10  C   UNL     1       1.274   3.913  19.243  0.00  0.00    +0.000 A 
ATOM     11  C   UNL     1       0.996   2.696  19.870  0.00  0.00    +0.000 A 
ENDBRANCH   1   9
BRANCH   3  12
ATOM     12  C   UNL     1       1.441   9.675  19.181  0.00  0.00    +0.000 A 
ATOM     13  C   UNL     1       1.896  10.727  18.373  0.00  0.00    +0.000 A 
ATOM     14  C   UNL     1       1.402  12.025  18.565  0.00  0.00    +0.000 A 
ATOM     15  C   UNL     1       0.458  12.277  19.557  0.00  0.00    +0.000 A 
ATOM     16  C   UNL     1       0.001  11.235  20.362  0.00  0.00    +0.000 A 
ATOM     17  C   UNL     1       0.487   9.938  20.177  0.00  0.00    +0.000 A 
ENDBRANCH   3  12
BRANCH   5  18
ATOM     18  C   UNL     1       3.930   5.748  17.332  0.00  0.00    +0.000 C 
BRANCH  18  19
ATOM     19  S   UNL     1       5.684   6.078  17.654  0.00  0.00    +0.000 S 
BRANCH  19  20
ATOM     20  C   UNL     1       6.385   5.535  16.151  0.00  0.00    +0.000 A 
ATOM     21  N   UNL     1       7.559   5.941  15.720  0.00  0.00    +0.000 NA
ATOM     22  N   UNL     1       7.865   5.428  14.474  0.00  0.00    +0.000 NA
ATOM     23  C   UNL     1       6.906   4.646  14.024  0.00  0.00    +0.000 A 
ATOM     24  S   UNL     1       5.582   4.447  15.095  0.00  0.00    +0.000 S 
ENDBRANCH  19  20
ENDBRANCH  18  19
ENDBRANCH   5  18
TORSDOF 5
ENDMDL
MODEL 5
REMARK VINA RESULT:      -7.6      2.479      4.911
REMARK  Name = 
REMARK  5 active torsions:
REMARK  status: ('A' for Active; 'I' for Inactive)
REMARK    1  A    between atoms: C_4  and  C_5
REMARK    2  A    between atoms: N_7  and  C_8
REMARK    3  A    between atoms: C_15  and  C_16
REMARK    4  A    between atoms: C_16  and  S_17
REMARK    5  A    between atoms: S_17  and  C_18
REMARK                            x       y       z     vdW  Elec       q    Type
REMARK                         _______ _______ _______ _____ _____    ______ ____
ROOT
ATOM      1  C   UNL     1       3.853   5.625  17.438  0.00  0.00    +0.000 A 
ATOM      2  N   UNL     1       3.663   6.851  17.957  0.00  0.00    +0.000 NA
ATOM      3  N   UNL     1       2.413   6.850  18.473  0.00  0.00    +0.000 N 
ATOM      4  C   UNL     1       1.798   5.638  18.278  0.00  0.00    +0.000 A 
ATOM      5  C   UNL     1       2.689   4.815  17.624  0.00  0.00    +0.000 A 
ENDROOT
BRANCH   1   9
ATOM      6  C   UNL     1       7.637   4.720  15.630  0.00  0.00    +0.000 A 
ATOM      7  C   UNL     1       6.542   5.063  14.841  0.00  0.00    +0.000 A 
ATOM      8  C   UNL     1       5.308   5.338  15.434  0.00  0.00    +0.000 A 
ATOM      9  C   UNL     1       5.147   5.271  16.827  0.00  0.00    +0.000 A 
ATOM     10  C   UNL     1       6.249   4.888  17.603  0.00  0.00    +0.000 A 
ATOM     11  C   UNL     1       7.490   4.635  17.013  0.00  0.00    +0.000 A 
ENDBRANCH   1   9
BRANCH   3  12
ATOM     12  C   UNL     1       1.875   7.998  19.124  0.00  0.00    +0.000 A 
ATOM     13  C   UNL     1       1.621   9.162  18.385  0.00  0.00    +0.000 A 
ATOM     14  C   UNL     1       1.091  10.295  19.019  0.00  0.00    +0.000 A 
ATOM     15  C   UNL     1       0.815  10.271  20.384  0.00  0.00    +0.000 A 
ATOM     16  C   UNL     1       1.065   9.117  21.123  0.00  0.00    +0.000 A 
ATOM     17  C   UNL     1       1.591   7.982  20.499  0.00  0.00    +0.000 A 
ENDBRANCH   3  12
BRANCH   5  18
ATOM     18  C   UNL     1       2.419   3.399  17.231  0.00  0.00    +0.000 C 
BRANCH  18  19
ATOM     19  S   UNL     1       3.408   2.224  18.196  0.00  0.00    +0.000 S 
BRANCH  19  20
ATOM     20  C   UNL     1       2.714   2.458  19.780  0.00  0.00    +0.000 A 
ATOM     21  N   UNL     1       3.437   2.536  20.876  0.00  0.00    +0.000 NA
ATOM     22  N   UNL     1       2.657   2.651  22.010  0.00  0.00    +0.000 NA
ATOM     23  C   UNL     1       1.375   2.665  21.716  0.00  0.00    +0.000 A 
ATOM     24  S   UNL     1       1.023   2.577  20.040  0.00  0.00    +0.000 S 
ENDBRANCH  19  20
ENDBRANCH  18  19
ENDBRANCH   5  18
TORSDOF 5
ENDMDL
MODEL 6
REMARK VINA RESULT:      -7.6      2.818      7.786
REMARK  Name = 
REMARK  5 active torsions:
REMARK  status: ('A' for Active; 'I' for Inactive)
REMARK    1  A    between atoms: C_4  and  C_5
REMARK    2  A    between atoms: N_7  and  C_8
REMARK    3  A    between atoms: C_15  and  C_16
REMARK    4  A    between atoms: C_16  and  S_17
REMARK    5  A    between atoms: S_17  and  C_18
REMARK                            x       y       z     vdW  Elec       q    Type
REMARK                         _______ _______ _______ _____ _____    ______ ____
ROOT
ATOM      1  C   UNL     1       4.550   5.684  17.387  0.00  0.00    +0.000 A 
ATOM      2  N   UNL     1       4.840   5.791  16.079  0.00  0.00    +0.000 NA
ATOM      3  N   UNL     1       5.670   4.762  15.793  0.00  0.00    +0.000 N 
ATOM      4  C   UNL     1       5.922   4.006  16.911  0.00  0.00    +0.000 A 
ATOM      5  C   UNL     1       5.216   4.555  17.959  0.00  0.00    +0.000 A 
ENDROOT
BRANCH   1   9
ATOM      6  C   UNL     1       1.754   8.423  19.144  0.00  0.00    +0.000 A 
ATOM      7  C   UNL     1       2.338   8.705  17.911  0.00  0.00    +0.000 A 
ATOM      8  C   UNL     1       3.262   7.818  17.353  0.00  0.00    +0.000 A 
ATOM      9  C   UNL     1       3.620   6.636  18.021  0.00  0.00    +0.000 A 
ATOM     10  C   UNL     1       3.050   6.386  19.277  0.00  0.00    +0.000 A 
ATOM     11  C   UNL     1       2.108   7.260  19.826  0.00  0.00    +0.000 A 
ENDBRANCH   1   9
BRANCH   3  12
ATOM     12  C   UNL     1       6.174   4.555  14.476  0.00  0.00    +0.000 A 
ATOM     13  C   UNL     1       7.319   5.245  14.053  0.00  0.00    +0.000 A 
ATOM     14  C   UNL     1       7.821   5.045  12.759  0.00  0.00    +0.000 A 
ATOM     15  C   UNL     1       7.187   4.162  11.888  0.00  0.00    +0.000 A 
ATOM     16  C   UNL     1       6.049   3.473  12.304  0.00  0.00    +0.000 A 
ATOM     17  C   UNL     1       5.543   3.665  13.593  0.00  0.00    +0.000 A 
ENDBRANCH   3  12
BRANCH   5  18
ATOM     18  C   UNL     1       5.204   4.025  19.356  0.00  0.00    +0.000 C 
BRANCH  18  19
ATOM     19  S   UNL     1       4.551   2.335  19.438  0.00  0.00    +0.000 S 
BRANCH  19  20
ATOM     20  C   UNL     1       3.091   2.607  20.354  0.00  0.00    +0.000 A 
ATOM     21  N   UNL     1       3.042   2.527  21.666  0.00  0.00    +0.000 NA
ATOM     22  N   UNL     1       1.763   2.713  22.154  0.00  0.00    +0.000 NA
ATOM     23  C   UNL     1       0.903   2.937  21.183  0.00  0.00    +0.000 A 
ATOM     24  S   UNL     1       1.588   2.975  19.613  0.00  0.00    +0.000 S 
ENDBRANCH  19  20
ENDBRANCH  18  19
ENDBRANCH   5  18
TORSDOF 5
ENDMDL
MODEL 7
REMARK VINA RESULT:      -7.5      2.482      5.080
REMARK  Name = 
REMARK  5 active torsions:
REMARK  status: ('A' for Active; 'I' for Inactive)
REMARK    1  A    between atoms: C_4  and  C_5
REMARK    2  A    between atoms: N_7  and  C_8
REMARK    3  A    between atoms: C_15  and  C_16
REMARK    4  A    between atoms: C_16  and  S_17
REMARK    5  A    between atoms: S_17  and  C_18
REMARK                            x       y       z     vdW  Elec       q    Type
REMARK                         _______ _______ _______ _____ _____    ______ ____
ROOT
ATOM      1  C   UNL     1       4.580   5.586  17.384  0.00  0.00    +0.000 A 
ATOM      2  N   UNL     1       3.783   6.666  17.311  0.00  0.00    +0.000 NA
ATOM      3  N   UNL     1       3.211   6.793  18.530  0.00  0.00    +0.000 N 
ATOM      4  C   UNL     1       3.627   5.796  19.377  0.00  0.00    +0.000 A 
ATOM      5  C   UNL     1       4.515   5.001  18.687  0.00  0.00    +0.000 A 
ENDROOT
BRANCH   1   9
ATOM      6  C   UNL     1       6.886   4.508  13.931  0.00  0.00    +0.000 A 
ATOM      7  C   UNL     1       5.559   4.101  14.048  0.00  0.00    +0.000 A 
ATOM      8  C   UNL     1       4.819   4.439  15.183  0.00  0.00    +0.000 A 
ATOM      9  C   UNL     1       5.395   5.186  16.222  0.00  0.00    +0.000 A 
ATOM     10  C   UNL     1       6.742   5.556  16.105  0.00  0.00    +0.000 A 
ATOM     11  C   UNL     1       7.477   5.239  14.959  0.00  0.00    +0.000 A 
ENDBRANCH   1   9
BRANCH   3  12
ATOM     12  C   UNL     1       2.306   7.855  18.822  0.00  0.00    +0.000 A 
ATOM     13  C   UNL     1       1.802   8.001  20.122  0.00  0.00    +0.000 A 
ATOM     14  C   UNL     1       0.911   9.043  20.417  0.00  0.00    +0.000 A 
ATOM     15  C   UNL     1       0.521   9.937  19.422  0.00  0.00    +0.000 A 
ATOM     16  C   UNL     1       1.019   9.796  18.128  0.00  0.00    +0.000 A 
ATOM     17  C   UNL     1       1.909   8.761  17.826  0.00  0.00    +0.000 A 
ENDBRANCH   3  12
BRANCH   5  18
ATOM     18  C   UNL     1       5.213   3.805  19.250  0.00  0.00    +0.000 C 
BRANCH  18  19
ATOM     19  S   UNL     1       4.251   2.285  19.020  0.00  0.00    +0.000 S 
BRANCH  19  20
ATOM     20  C   UNL     1       2.976   2.543  20.183  0.00  0.00    +0.000 A 
ATOM     21  N   UNL     1       3.184   2.576  21.481  0.00  0.00    +0.000 NA
ATOM     22  N   UNL     1       2.011   2.722  22.195  0.00  0.00    +0.000 NA
ATOM     23  C   UNL     1       0.967   2.803  21.399  0.00  0.00    +0.000 A 
ATOM     24  S   UNL     1       1.335   2.746  19.726  0.00  0.00    +0.000 S 
ENDBRANCH  19  20
ENDBRANCH  18  19
ENDBRANCH   5  18
TORSDOF 5
ENDMDL
MODEL 8
REMARK VINA RESULT:      -7.5      1.290      1.356
REMARK  Name = 
REMARK  5 active torsions:
REMARK  status: ('A' for Active; 'I' for Inactive)
REMARK    1  A    between atoms: C_4  and  C_5
REMARK    2  A    between atoms: N_7  and  C_8
REMARK    3  A    between atoms: C_15  and  C_16
REMARK    4  A    between atoms: C_16  and  S_17
REMARK    5  A    between atoms: S_17  and  C_18
REMARK                            x       y       z     vdW  Elec       q    Type
REMARK                         _______ _______ _______ _____ _____    ______ ____
ROOT
ATOM      1  C   UNL     1       2.016   6.170  19.841  0.00  0.00    +0.000 A 
ATOM      2  N   UNL     1       1.288   6.965  20.644  0.00  0.00    +0.000 NA
ATOM      3  N   UNL     1       1.480   8.227  20.197  0.00  0.00    +0.000 N 
ATOM      4  C   UNL     1       2.336   8.246  19.122  0.00  0.00    +0.000 A 
ATOM      5  C   UNL     1       2.699   6.945  18.851  0.00  0.00    +0.000 A 
ENDROOT
BRANCH   1   9
ATOM      6  C   UNL     1       1.850   1.929  20.464  0.00  0.00    +0.000 A 
ATOM      7  C   UNL     1       2.262   2.777  21.489  0.00  0.00    +0.000 A 
ATOM      8  C   UNL     1       2.333   4.155  21.274  0.00  0.00    +0.000 A 
ATOM      9  C   UNL     1       1.995   4.708  20.029  0.00  0.00    +0.000 A 
ATOM     10  C   UNL     1       1.618   3.837  18.998  0.00  0.00    +0.000 A 
ATOM     11  C   UNL     1       1.525   2.461  19.217  0.00  0.00    +0.000 A 
ENDBRANCH   1   9
BRANCH   3  12
ATOM     12  C   UNL     1       0.840   9.342  20.812  0.00  0.00    +0.000 A 
ATOM     13  C   UNL     1       0.229   9.189  22.065  0.00  0.00    +0.000 A 
ATOM     14  C   UNL     1      -0.402  10.282  22.676  0.00  0.00    +0.000 A 
ATOM     15  C   UNL     1      -0.427  11.523  22.044  0.00  0.00    +0.000 A 
ATOM     16  C   UNL     1       0.180  11.680  20.799  0.00  0.00    +0.000 A 
ATOM     17  C   UNL     1       0.813  10.597  20.183  0.00  0.00    +0.000 A 
ENDBRANCH   3  12
BRANCH   5  18
ATOM     18  C   UNL     1       3.613   6.521  17.747  0.00  0.00    +0.000 C 
BRANCH  18  19
ATOM     19  S   UNL     1       5.159   5.813  18.378  0.00  0.00    +0.000 S 
BRANCH  19  20
ATOM     20  C   UNL     1       5.971   5.449  16.878  0.00  0.00    +0.000 A 
ATOM     21  N   UNL     1       7.074   6.054  16.493  0.00  0.00    +0.000 NA
ATOM     22  N   UNL     1       7.486   5.644  15.240  0.00  0.00    +0.000 NA
ATOM     23  C   UNL     1       6.676   4.736  14.738  0.00  0.00    +0.000 A 
ATOM     24  S   UNL     1       5.378   4.287  15.763  0.00  0.00    +0.000 S 
ENDBRANCH  19  20
ENDBRANCH  18  19
ENDBRANCH   5  18
TORSDOF 5
ENDMDL
MODEL 9
REMARK VINA RESULT:      -7.5      2.700      7.647
REMARK  Name = 
REMARK  5 active torsions:
REMARK  status: ('A' for Active; 'I' for Inactive)
REMARK    1  A    between atoms: C_4  and  C_5
REMARK    2  A    between atoms: N_7  and  C_8
REMARK    3  A    between atoms: C_15  and  C_16
REMARK    4  A    between atoms: C_16  and  S_17
REMARK    5  A    between atoms: S_17  and  C_18
REMARK                            x       y       z     vdW  Elec       q    Type
REMARK                         _______ _______ _______ _____ _____    ______ ____
ROOT
ATOM      1  C   UNL     1       4.542   5.637  17.417  0.00  0.00    +0.000 A 
ATOM      2  N   UNL     1       4.822   5.750  16.107  0.00  0.00    +0.000 NA
ATOM      3  N   UNL     1       5.654   4.725  15.812  0.00  0.00    +0.000 N 
ATOM      4  C   UNL     1       5.917   3.965  16.925  0.00  0.00    +0.000 A 
ATOM      5  C   UNL     1       5.216   4.508  17.980  0.00  0.00    +0.000 A 
ENDROOT
BRANCH   1   9
ATOM      6  C   UNL     1       1.749   8.361  19.201  0.00  0.00    +0.000 A 
ATOM      7  C   UNL     1       2.345   8.662  17.978  0.00  0.00    +0.000 A 
ATOM      8  C   UNL     1       3.268   7.780  17.412  0.00  0.00    +0.000 A 
ATOM      9  C   UNL     1       3.613   6.583  18.061  0.00  0.00    +0.000 A 
ATOM     10  C   UNL     1       3.031   6.314  19.307  0.00  0.00    +0.000 A 
ATOM     11  C   UNL     1       2.091   7.184  19.864  0.00  0.00    +0.000 A 
ENDBRANCH   1   9
BRANCH   3  12
ATOM     12  C   UNL     1       6.149   4.523  14.490  0.00  0.00    +0.000 A 
ATOM     13  C   UNL     1       5.497   3.627  13.632  0.00  0.00    +0.000 A 
ATOM     14  C   UNL     1       5.979   3.424  12.331  0.00  0.00    +0.000 A 
ATOM     15  C   UNL     1       7.106   4.109  11.884  0.00  0.00    +0.000 A 
ATOM     16  C   UNL     1       7.758   5.002  12.733  0.00  0.00    +0.000 A 
ATOM     17  C   UNL     1       7.284   5.212  14.031  0.00  0.00    +0.000 A 
ENDBRANCH   3  12
BRANCH   5  18
ATOM     18  C   UNL     1       5.216   3.974  19.375  0.00  0.00    +0.000 C 
BRANCH  18  19
ATOM     19  S   UNL     1       4.512   2.305  19.465  0.00  0.00    +0.000 S 
BRANCH  19  20
ATOM     20  C   UNL     1       2.821   2.690  19.662  0.00  0.00    +0.000 A 
ATOM     21  N   UNL     1       1.969   2.712  18.660  0.00  0.00    +0.000 NA
ATOM     22  N   UNL     1       0.707   3.112  19.056  0.00  0.00    +0.000 NA
ATOM     23  C   UNL     1       0.662   3.365  20.346  0.00  0.00    +0.000 A 
ATOM     24  S   UNL     1       2.136   3.101  21.180  0.00  0.00    +0.000 S 
ENDBRANCH  19  20
ENDBRANCH  18  19
ENDBRANCH   5  18
TORSDOF 5
ENDMDL
