MODEL 1
REMARK VINA RESULT:      -7.1      0.000      0.000
REMARK  Name = 
REMARK  9 active torsions:
REMARK  status: ('A' for Active; 'I' for Inactive)
REMARK    1  A    between atoms: C_2  and  C_3
REMARK    2  A    between atoms: C_3  and  N_4
REMARK    3  A    between atoms: N_9  and  C_10
REMARK    4  A    between atoms: C_13  and  C_14
REMARK    5  A    between atoms: C_14  and  O_15
REMARK    6  A    between atoms: C_14  and  C_16
REMARK    7  A    between atoms: C_19  and  N_20
REMARK    8  A    between atoms: C_21  and  C_23
REMARK    9  A    between atoms: C_23  and  N_24
REMARK                            x       y       z     vdW  Elec       q    Type
REMARK                         _______ _______ _______ _____ _____    ______ ____
ROOT
ATOM      1  C   UNL     1       2.166   5.797  20.495  0.00  0.00    +0.000 C 
ENDROOT
BRANCH   1   5
ATOM      2  C   UNL     1       0.909   9.917  19.782  0.00  0.00    +0.000 A 
ATOM      3  C   UNL     1       0.642   9.274  20.992  0.00  0.00    +0.000 A 
ATOM      4  C   UNL     1       1.045   7.951  21.211  0.00  0.00    +0.000 A 
ATOM      5  C   UNL     1       1.734   7.233  20.222  0.00  0.00    +0.000 A 
ATOM      6  C   UNL     1       2.012   7.881  19.011  0.00  0.00    +0.000 A 
ATOM      7  C   UNL     1       1.595   9.206  18.790  0.00  0.00    +0.000 A 
BRANCH   2  10
ATOM      8  O   UNL     1      -1.222  10.850  17.973  0.00  0.00    +0.000 OA
ATOM      9  C   UNL     1      -0.476  11.621  18.575  0.00  0.00    +0.000 C 
ATOM     10  N   UNL     1       0.497  11.239  19.493  0.00  0.00    +0.000 N 
ATOM     11  H   UNL     1       0.923  11.971  20.046  0.00  0.00    +0.000 HD
BRANCH   9  12
ATOM     12  C   UNL     1      -0.537  13.141  18.337  0.00  0.00    +0.000 C 
BRANCH  12  13
ATOM     13  N   UNL     1       0.126  13.992  19.347  0.00  0.00    +0.000 NA
ATOM     14  C   UNL     1      -0.722  15.036  19.922  0.00  0.00    +0.000 C 
ATOM     15  C   UNL     1      -0.484  16.264  19.067  0.00  0.00    +0.000 C 
ATOM     16  C   UNL     1       0.974  16.142  18.659  0.00  0.00    +0.000 C 
ATOM     17  C   UNL     1       1.335  14.672  18.862  0.00  0.00    +0.000 C 
ENDBRANCH  12  13
ENDBRANCH   9  12
ENDBRANCH   2  10
ENDBRANCH   1   5
BRANCH   1  18
ATOM     18  C   UNL     1       3.069   5.151  19.454  0.00  0.00    +0.000 A 
ATOM     19  C   UNL     1       2.545   4.418  18.383  0.00  0.00    +0.000 A 
ATOM     20  C   UNL     1       3.376   3.938  17.370  0.00  0.00    +0.000 A 
ATOM     21  C   UNL     1       4.747   4.195  17.384  0.00  0.00    +0.000 A 
ATOM     22  C   UNL     1       5.295   4.874  18.469  0.00  0.00    +0.000 A 
ATOM     23  C   UNL     1       4.461   5.366  19.482  0.00  0.00    +0.000 A 
BRANCH  21  24
ATOM     24  N   UNL     1       5.598   3.799  16.332  0.00  0.00    +0.000 N 
ATOM     25  C   UNL     1       5.932   4.600  15.249  0.00  0.00    +0.000 C 
ATOM     26  O   UNL     1       5.605   5.778  15.101  0.00  0.00    +0.000 OA
ATOM     27  H   UNL     1       6.113   2.935  16.444  0.00  0.00    +0.000 HD
BRANCH  25  28
ATOM     28  C   UNL     1       6.798   3.906  14.194  0.00  0.00    +0.000 C 
BRANCH  28  29
ATOM     29  N   UNL     1       6.337   4.205  12.824  0.00  0.00    +0.000 NA
ATOM     30  C   UNL     1       5.195   3.345  12.467  0.00  0.00    +0.000 C 
ATOM     31  C   UNL     1       5.799   2.121  11.810  0.00  0.00    +0.000 C 
ATOM     32  C   UNL     1       6.935   2.709  11.004  0.00  0.00    +0.000 C 
ATOM     33  C   UNL     1       7.380   3.925  11.806  0.00  0.00    +0.000 C 
ENDBRANCH  28  29
ENDBRANCH  25  28
ENDBRANCH  21  24
ENDBRANCH   1  18
BRANCH   1  34
ATOM     34  O   UNL     1       1.016   4.969  20.695  0.00  0.00    +0.000 OA
ATOM     35  H   UNL     1       0.649   4.753  19.825  0.00  0.00    +0.000 HD
ENDBRANCH   1  34
TORSDOF 9
ENDMDL
MODEL 2
REMARK VINA RESULT:      -7.0      3.743      5.230
REMARK  Name = 
REMARK  9 active torsions:
REMARK  status: ('A' for Active; 'I' for Inactive)
REMARK    1  A    between atoms: C_2  and  C_3
REMARK    2  A    between atoms: C_3  and  N_4
REMARK    3  A    between atoms: N_9  and  C_10
REMARK    4  A    between atoms: C_13  and  C_14
REMARK    5  A    between atoms: C_14  and  O_15
REMARK    6  A    between atoms: C_14  and  C_16
REMARK    7  A    between atoms: C_19  and  N_20
REMARK    8  A    between atoms: C_21  and  C_23
REMARK    9  A    between atoms: C_23  and  N_24
REMARK                            x       y       z     vdW  Elec       q    Type
REMARK                         _______ _______ _______ _____ _____    ______ ____
ROOT
ATOM      1  C   UNL     1       0.454  10.411  20.853  0.00  0.00    +0.000 C 
ENDROOT
BRANCH   1   5
ATOM      2  C   UNL     1      -3.127  11.881  18.835  0.00  0.00    +0.000 A 
ATOM      3  C   UNL     1      -2.665  12.467  20.015  0.00  0.00    +0.000 A 
ATOM      4  C   UNL     1      -1.517  11.987  20.658  0.00  0.00    +0.000 A 
ATOM      5  C   UNL     1      -0.796  10.904  20.133  0.00  0.00    +0.000 A 
ATOM      6  C   UNL     1      -1.253  10.323  18.943  0.00  0.00    +0.000 A 
ATOM      7  C   UNL     1      -2.412  10.801  18.306  0.00  0.00    +0.000 A 
BRANCH   2  10
ATOM      8  O   UNL     1      -5.817  10.679  18.845  0.00  0.00    +0.000 OA
ATOM      9  C   UNL     1      -5.527  11.653  18.151  0.00  0.00    +0.000 C 
ATOM     10  N   UNL     1      -4.297  12.303  18.161  0.00  0.00    +0.000 N 
ATOM     11  H   UNL     1      -4.240  13.190  17.678  0.00  0.00    +0.000 HD
BRANCH   9  12
ATOM     12  C   UNL     1      -6.533  12.249  17.150  0.00  0.00    +0.000 C 
BRANCH  12  13
ATOM     13  N   UNL     1      -7.572  13.136  17.711  0.00  0.00    +0.000 NA
ATOM     14  C   UNL     1      -7.674  14.446  17.068  0.00  0.00    +0.000 C 
ATOM     15  C   UNL     1      -6.781  15.363  17.879  0.00  0.00    +0.000 C 
ATOM     16  C   UNL     1      -6.907  14.828  19.295  0.00  0.00    +0.000 C 
ATOM     17  C   UNL     1      -7.428  13.400  19.150  0.00  0.00    +0.000 C 
ENDBRANCH  12  13
ENDBRANCH   9  12
ENDBRANCH   2  10
ENDBRANCH   1   5
BRANCH   1  18
ATOM     18  C   UNL     1       1.204   9.260  20.198  0.00  0.00    +0.000 A 
ATOM     19  C   UNL     1       1.356   8.025  20.840  0.00  0.00    +0.000 A 
ATOM     20  C   UNL     1       1.936   6.941  20.178  0.00  0.00    +0.000 A 
ATOM     21  C   UNL     1       2.358   7.052  18.853  0.00  0.00    +0.000 A 
ATOM     22  C   UNL     1       2.267   8.287  18.217  0.00  0.00    +0.000 A 
ATOM     23  C   UNL     1       1.676   9.372  18.876  0.00  0.00    +0.000 A 
BRANCH  21  24
ATOM     24  N   UNL     1       2.867   5.953  18.132  0.00  0.00    +0.000 N 
ATOM     25  C   UNL     1       4.020   5.257  18.472  0.00  0.00    +0.000 C 
ATOM     26  O   UNL     1       4.701   5.447  19.479  0.00  0.00    +0.000 OA
ATOM     27  H   UNL     1       2.282   5.552  17.410  0.00  0.00    +0.000 HD
BRANCH  25  28
ATOM     28  C   UNL     1       4.412   4.162  17.476  0.00  0.00    +0.000 C 
BRANCH  28  29
ATOM     29  N   UNL     1       5.751   4.398  16.901  0.00  0.00    +0.000 NA
ATOM     30  C   UNL     1       5.882   5.799  16.464  0.00  0.00    +0.000 C 
ATOM     31  C   UNL     1       5.448   5.814  15.013  0.00  0.00    +0.000 C 
ATOM     32  C   UNL     1       6.016   4.515  14.488  0.00  0.00    +0.000 C 
ATOM     33  C   UNL     1       5.995   3.578  15.688  0.00  0.00    +0.000 C 
ENDBRANCH  28  29
ENDBRANCH  25  28
ENDBRANCH  21  24
ENDBRANCH   1  18
BRANCH   1  34
ATOM     34  O   UNL     1       0.134  10.054  22.201  0.00  0.00    +0.000 OA
ATOM     35  H   UNL     1       0.874   9.539  22.556  0.00  0.00    +0.000 HD
ENDBRANCH   1  34
TORSDOF 9
ENDMDL
MODEL 3
REMARK VINA RESULT:      -7.0      3.976     12.225
REMARK  Name = 
REMARK  9 active torsions:
REMARK  status: ('A' for Active; 'I' for Inactive)
REMARK    1  A    between atoms: C_2  and  C_3
REMARK    2  A    between atoms: C_3  and  N_4
REMARK    3  A    between atoms: N_9  and  C_10
REMARK    4  A    between atoms: C_13  and  C_14
REMARK    5  A    between atoms: C_14  and  O_15
REMARK    6  A    between atoms: C_14  and  C_16
REMARK    7  A    between atoms: C_19  and  N_20
REMARK    8  A    between atoms: C_21  and  C_23
REMARK    9  A    between atoms: C_23  and  N_24
REMARK                            x       y       z     vdW  Elec       q    Type
REMARK                         _______ _______ _______ _____ _____    ______ ____
ROOT
ATOM      1  C   UNL     1       1.504  11.409  18.926  0.00  0.00    +0.000 C 
ENDROOT
BRANCH   1   5
ATOM      2  C   UNL     1       2.292   7.128  18.611  0.00  0.00    +0.000 A 
ATOM      3  C   UNL     1       2.526   7.990  17.539  0.00  0.00    +0.000 A 
ATOM      4  C   UNL     1       2.267   9.362  17.647  0.00  0.00    +0.000 A 
ATOM      5  C   UNL     1       1.767   9.911  18.838  0.00  0.00    +0.000 A 
ATOM      6  C   UNL     1       1.542   9.047  19.918  0.00  0.00    +0.000 A 
ATOM      7  C   UNL     1       1.792   7.668  19.801  0.00  0.00    +0.000 A 
BRANCH   2  10
ATOM      8  O   UNL     1       4.564   5.539  19.612  0.00  0.00    +0.000 OA
ATOM      9  C   UNL     1       3.632   5.042  18.981  0.00  0.00    +0.000 C 
ATOM     10  N   UNL     1       2.503   5.730  18.548  0.00  0.00    +0.000 N 
ATOM     11  H   UNL     1       1.733   5.177  18.194  0.00  0.00    +0.000 HD
BRANCH   9  12
ATOM     12  C   UNL     1       3.644   3.558  18.574  0.00  0.00    +0.000 C 
BRANCH  12  13
ATOM     13  N   UNL     1       2.999   2.614  19.509  0.00  0.00    +0.000 NA
ATOM     14  C   UNL     1       1.719   2.073  19.051  0.00  0.00    +0.000 C 
ATOM     15  C   UNL     1       0.664   2.999  19.621  0.00  0.00    +0.000 C 
ATOM     16  C   UNL     1       1.251   3.439  20.951  0.00  0.00    +0.000 C 
ATOM     17  C   UNL     1       2.750   3.167  20.848  0.00  0.00    +0.000 C 
ENDBRANCH  12  13
ENDBRANCH   9  12
ENDBRANCH   2  10
ENDBRANCH   1   5
BRANCH   1  18
ATOM     18  C   UNL     1       0.094  11.828  19.320  0.00  0.00    +0.000 A 
ATOM     19  C   UNL     1      -0.980  11.714  18.430  0.00  0.00    +0.000 A 
ATOM     20  C   UNL     1      -2.285  11.983  18.845  0.00  0.00    +0.000 A 
ATOM     21  C   UNL     1      -2.557  12.350  20.163  0.00  0.00    +0.000 A 
ATOM     22  C   UNL     1      -1.497  12.524  21.048  0.00  0.00    +0.000 A 
ATOM     23  C   UNL     1      -0.187  12.244  20.636  0.00  0.00    +0.000 A 
BRANCH  21  24
ATOM     24  N   UNL     1      -3.872  12.544  20.633  0.00  0.00    +0.000 N 
ATOM     25  C   UNL     1      -4.461  13.786  20.828  0.00  0.00    +0.000 C 
ATOM     26  O   UNL     1      -3.956  14.872  20.542  0.00  0.00    +0.000 OA
ATOM     27  H   UNL     1      -4.475  11.734  20.694  0.00  0.00    +0.000 HD
BRANCH  25  28
ATOM     28  C   UNL     1      -5.866  13.731  21.434  0.00  0.00    +0.000 C 
BRANCH  28  29
ATOM     29  N   UNL     1      -5.906  14.336  22.780  0.00  0.00    +0.000 NA
ATOM     30  C   UNL     1      -5.699  13.304  23.812  0.00  0.00    +0.000 C 
ATOM     31  C   UNL     1      -7.086  12.816  24.181  0.00  0.00    +0.000 C 
ATOM     32  C   UNL     1      -7.901  14.090  24.147  0.00  0.00    +0.000 C 
ATOM     33  C   UNL     1      -7.224  14.945  23.084  0.00  0.00    +0.000 C 
ENDBRANCH  28  29
ENDBRANCH  25  28
ENDBRANCH  21  24
ENDBRANCH   1  18
BRANCH   1  34
ATOM     34  O   UNL     1       1.851  12.041  17.689  0.00  0.00    +0.000 OA
ATOM     35  H   UNL     1       1.506  12.947  17.711  0.00  0.00    +0.000 HD
ENDBRANCH   1  34
TORSDOF 9
ENDMDL
MODEL 4
REMARK VINA RESULT:      -7.0      3.967      6.544
REMARK  Name = 
REMARK  9 active torsions:
REMARK  status: ('A' for Active; 'I' for Inactive)
REMARK    1  A    between atoms: C_2  and  C_3
REMARK    2  A    between atoms: C_3  and  N_4
REMARK    3  A    between atoms: N_9  and  C_10
REMARK    4  A    between atoms: C_13  and  C_14
REMARK    5  A    between atoms: C_14  and  O_15
REMARK    6  A    between atoms: C_14  and  C_16
REMARK    7  A    between atoms: C_19  and  N_20
REMARK    8  A    between atoms: C_21  and  C_23
REMARK    9  A    between atoms: C_23  and  N_24
REMARK                            x       y       z     vdW  Elec       q    Type
REMARK                         _______ _______ _______ _____ _____    ______ ____
ROOT
ATOM      1  C   UNL     1       0.943  10.859  18.225  0.00  0.00    +0.000 C 
ENDROOT
BRANCH   1   5
ATOM      2  C   UNL     1      -2.005  13.088  20.547  0.00  0.00    +0.000 A 
ATOM      3  C   UNL     1      -0.643  13.379  20.632  0.00  0.00    +0.000 A 
ATOM      4  C   UNL     1       0.297  12.656  19.886  0.00  0.00    +0.000 A 
ATOM      5  C   UNL     1      -0.104  11.621  19.028  0.00  0.00    +0.000 A 
ATOM      6  C   UNL     1      -1.473  11.336  18.935  0.00  0.00    +0.000 A 
ATOM      7  C   UNL     1      -2.412  12.056  19.694  0.00  0.00    +0.000 A 
BRANCH   2  10
ATOM      8  O   UNL     1      -3.032  12.477  23.241  0.00  0.00    +0.000 OA
ATOM      9  C   UNL     1      -3.487  13.385  22.546  0.00  0.00    +0.000 C 
ATOM     10  N   UNL     1      -2.995  13.762  21.301  0.00  0.00    +0.000 N 
ATOM     11  H   UNL     1      -3.341  14.629  20.911  0.00  0.00    +0.000 HD
BRANCH   9  12
ATOM     12  C   UNL     1      -4.709  14.203  23.000  0.00  0.00    +0.000 C 
BRANCH  12  13
ATOM     13  N   UNL     1      -6.035  13.647  22.662  0.00  0.00    +0.000 NA
ATOM     14  C   UNL     1      -7.048  14.643  22.311  0.00  0.00    +0.000 C 
ATOM     15  C   UNL     1      -7.767  14.960  23.607  0.00  0.00    +0.000 C 
ATOM     16  C   UNL     1      -7.747  13.641  24.361  0.00  0.00    +0.000 C 
ATOM     17  C   UNL     1      -6.630  12.819  23.720  0.00  0.00    +0.000 C 
ENDBRANCH  12  13
ENDBRANCH   9  12
ENDBRANCH   2  10
ENDBRANCH   1   5
BRANCH   1  18
ATOM     18  C   UNL     1       1.296   9.464  18.721  0.00  0.00    +0.000 A 
ATOM     19  C   UNL     1       1.949   8.537  17.899  0.00  0.00    +0.000 A 
ATOM     20  C   UNL     1       2.377   7.309  18.405  0.00  0.00    +0.000 A 
ATOM     21  C   UNL     1       2.186   6.980  19.747  0.00  0.00    +0.000 A 
ATOM     22  C   UNL     1       1.489   7.864  20.566  0.00  0.00    +0.000 A 
ATOM     23  C   UNL     1       1.068   9.102  20.062  0.00  0.00    +0.000 A 
BRANCH  21  24
ATOM     24  N   UNL     1       2.683   5.786  20.306  0.00  0.00    +0.000 N 
ATOM     25  C   UNL     1       1.897   4.697  20.660  0.00  0.00    +0.000 C 
ATOM     26  O   UNL     1       0.686   4.594  20.461  0.00  0.00    +0.000 OA
ATOM     27  H   UNL     1       3.686   5.652  20.315  0.00  0.00    +0.000 HD
BRANCH  25  28
ATOM     28  C   UNL     1       2.664   3.557  21.334  0.00  0.00    +0.000 C 
BRANCH  28  29
ATOM     29  N   UNL     1       2.940   2.452  20.395  0.00  0.00    +0.000 NA
ATOM     30  C   UNL     1       4.389   2.340  20.147  0.00  0.00    +0.000 C 
ATOM     31  C   UNL     1       4.659   3.206  18.933  0.00  0.00    +0.000 C 
ATOM     32  C   UNL     1       3.444   2.950  18.070  0.00  0.00    +0.000 C 
ATOM     33  C   UNL     1       2.323   2.677  19.065  0.00  0.00    +0.000 C 
ENDBRANCH  28  29
ENDBRANCH  25  28
ENDBRANCH  21  24
ENDBRANCH   1  18
BRANCH   1  34
ATOM     34  O   UNL     1       2.141  11.635  18.120  0.00  0.00    +0.000 OA
ATOM     35  H   UNL     1       2.805  11.097  17.663  0.00  0.00    +0.000 HD
ENDBRANCH   1  34
TORSDOF 9
ENDMDL
MODEL 5
REMARK VINA RESULT:      -7.0      3.943     11.626
REMARK  Name = 
REMARK  9 active torsions:
REMARK  status: ('A' for Active; 'I' for Inactive)
REMARK    1  A    between atoms: C_2  and  C_3
REMARK    2  A    between atoms: C_3  and  N_4
REMARK    3  A    between atoms: N_9  and  C_10
REMARK    4  A    between atoms: C_13  and  C_14
REMARK    5  A    between atoms: C_14  and  O_15
REMARK    6  A    between atoms: C_14  and  C_16
REMARK    7  A    between atoms: C_19  and  N_20
REMARK    8  A    between atoms: C_21  and  C_23
REMARK    9  A    between atoms: C_23  and  N_24
REMARK                            x       y       z     vdW  Elec       q    Type
REMARK                         _______ _______ _______ _____ _____    ______ ____
ROOT
ATOM      1  C   UNL     1       0.435  10.414  20.664  0.00  0.00    +0.000 C 
ENDROOT
BRANCH   1   5
ATOM      2  C   UNL     1       2.342   6.881  18.951  0.00  0.00    +0.000 A 
ATOM      3  C   UNL     1       2.178   8.051  18.207  0.00  0.00    +0.000 A 
ATOM      4  C   UNL     1       1.562   9.179  18.764  0.00  0.00    +0.000 A 
ATOM      5  C   UNL     1       1.094   9.167  20.086  0.00  0.00    +0.000 A 
ATOM      6  C   UNL     1       1.268   7.996  20.836  0.00  0.00    +0.000 A 
ATOM      7  C   UNL     1       1.877   6.862  20.271  0.00  0.00    +0.000 A 
BRANCH   2  10
ATOM      8  O   UNL     1       1.080   4.683  17.447  0.00  0.00    +0.000 OA
ATOM      9  C   UNL     1       2.263   4.664  17.785  0.00  0.00    +0.000 C 
ATOM     10  N   UNL     1       2.926   5.702  18.431  0.00  0.00    +0.000 N 
ATOM     11  H   UNL     1       3.934   5.635  18.498  0.00  0.00    +0.000 HD
BRANCH   9  12
ATOM     12  C   UNL     1       3.146   3.429  17.534  0.00  0.00    +0.000 C 
BRANCH  12  13
ATOM     13  N   UNL     1       2.925   2.270  18.424  0.00  0.00    +0.000 NA
ATOM     14  C   UNL     1       1.999   2.513  19.530  0.00  0.00    +0.000 C 
ATOM     15  C   UNL     1       2.868   2.947  20.693  0.00  0.00    +0.000 C 
ATOM     16  C   UNL     1       4.153   2.162  20.496  0.00  0.00    +0.000 C 
ATOM     17  C   UNL     1       4.151   1.733  19.030  0.00  0.00    +0.000 C 
ENDBRANCH  12  13
ENDBRANCH   9  12
ENDBRANCH   2  10
ENDBRANCH   1   5
BRANCH   1  18
ATOM     18  C   UNL     1      -0.888  10.833  20.038  0.00  0.00    +0.000 A 
ATOM     19  C   UNL     1      -1.632  11.905  20.547  0.00  0.00    +0.000 A 
ATOM     20  C   UNL     1      -2.777  12.357  19.890  0.00  0.00    +0.000 A 
ATOM     21  C   UNL     1      -3.198  11.769  18.697  0.00  0.00    +0.000 A 
ATOM     22  C   UNL     1      -2.504  10.667  18.205  0.00  0.00    +0.000 A 
ATOM     23  C   UNL     1      -1.349  10.219  18.858  0.00  0.00    +0.000 A 
BRANCH  21  24
ATOM     24  N   UNL     1      -4.299  12.259  17.965  0.00  0.00    +0.000 N 
ATOM     25  C   UNL     1      -5.612  11.847  18.152  0.00  0.00    +0.000 C 
ATOM     26  O   UNL     1      -6.002  11.071  19.024  0.00  0.00    +0.000 OA
ATOM     27  H   UNL     1      -4.149  13.064  17.371  0.00  0.00    +0.000 HD
BRANCH  25  28
ATOM     28  C   UNL     1      -6.612  12.461  17.169  0.00  0.00    +0.000 C 
BRANCH  28  29
ATOM     29  N   UNL     1      -7.530  13.404  17.838  0.00  0.00    +0.000 NA
ATOM     30  C   UNL     1      -7.913  14.488  16.915  0.00  0.00    +0.000 C 
ATOM     31  C   UNL     1      -6.897  15.590  17.141  0.00  0.00    +0.000 C 
ATOM     32  C   UNL     1      -6.685  15.538  18.637  0.00  0.00    +0.000 C 
ATOM     33  C   UNL     1      -6.898  14.074  19.001  0.00  0.00    +0.000 C 
ENDBRANCH  28  29
ENDBRANCH  25  28
ENDBRANCH  21  24
ENDBRANCH   1  18
BRANCH   1  34
ATOM     34  O   UNL     1       1.346  11.517  20.617  0.00  0.00    +0.000 OA
ATOM     35  H   UNL     1       0.847  12.323  20.818  0.00  0.00    +0.000 HD
ENDBRANCH   1  34
TORSDOF 9
ENDMDL
MODEL 6
REMARK VINA RESULT:      -6.9      3.715      4.952
REMARK  Name = 
REMARK  9 active torsions:
REMARK  status: ('A' for Active; 'I' for Inactive)
REMARK    1  A    between atoms: C_2  and  C_3
REMARK    2  A    between atoms: C_3  and  N_4
REMARK    3  A    between atoms: N_9  and  C_10
REMARK    4  A    between atoms: C_13  and  C_14
REMARK    5  A    between atoms: C_14  and  O_15
REMARK    6  A    between atoms: C_14  and  C_16
REMARK    7  A    between atoms: C_19  and  N_20
REMARK    8  A    between atoms: C_21  and  C_23
REMARK    9  A    between atoms: C_23  and  N_24
REMARK                            x       y       z     vdW  Elec       q    Type
REMARK                         _______ _______ _______ _____ _____    ______ ____
ROOT
ATOM      1  C   UNL     1       0.406   9.935  20.560  0.00  0.00    +0.000 C 
ENDROOT
BRANCH   1   5
ATOM      2  C   UNL     1      -3.015  11.712  18.513  0.00  0.00    +0.000 A 
ATOM      3  C   UNL     1      -2.469  12.296  19.657  0.00  0.00    +0.000 A 
ATOM      4  C   UNL     1      -1.374  11.718  20.310  0.00  0.00    +0.000 A 
ATOM      5  C   UNL     1      -0.790  10.535  19.831  0.00  0.00    +0.000 A 
ATOM      6  C   UNL     1      -1.331   9.954  18.676  0.00  0.00    +0.000 A 
ATOM      7  C   UNL     1      -2.438  10.532  18.030  0.00  0.00    +0.000 A 
BRANCH   2  10
ATOM      8  O   UNL     1      -5.852  11.689  19.312  0.00  0.00    +0.000 OA
ATOM      9  C   UNL     1      -5.469  12.133  18.230  0.00  0.00    +0.000 C 
ATOM     10  N   UNL     1      -4.140  12.234  17.832  0.00  0.00    +0.000 N 
ATOM     11  H   UNL     1      -3.948  12.773  16.997  0.00  0.00    +0.000 HD
BRANCH   9  12
ATOM     12  C   UNL     1      -6.471  12.613  17.165  0.00  0.00    +0.000 C 
BRANCH  12  13
ATOM     13  N   UNL     1      -7.432  13.653  17.586  0.00  0.00    +0.000 NA
ATOM     14  C   UNL     1      -7.916  14.515  16.508  0.00  0.00    +0.000 C 
ATOM     15  C   UNL     1      -6.983  15.709  16.496  0.00  0.00    +0.000 C 
ATOM     16  C   UNL     1      -6.613  15.891  17.958  0.00  0.00    +0.000 C 
ATOM     17  C   UNL     1      -6.925  14.555  18.630  0.00  0.00    +0.000 C 
ENDBRANCH  12  13
ENDBRANCH   9  12
ENDBRANCH   2  10
ENDBRANCH   1   5
BRANCH   1  18
ATOM     18  C   UNL     1       1.222   8.905  19.792  0.00  0.00    +0.000 A 
ATOM     19  C   UNL     1       1.690   9.160  18.497  0.00  0.00    +0.000 A 
ATOM     20  C   UNL     1       2.541   8.259  17.854  0.00  0.00    +0.000 A 
ATOM     21  C   UNL     1       2.966   7.094  18.491  0.00  0.00    +0.000 A 
ATOM     22  C   UNL     1       2.467   6.796  19.756  0.00  0.00    +0.000 A 
ATOM     23  C   UNL     1       1.621   7.703  20.407  0.00  0.00    +0.000 A 
BRANCH  21  24
ATOM     24  N   UNL     1       3.892   6.209  17.901  0.00  0.00    +0.000 N 
ATOM     25  C   UNL     1       3.609   4.896  17.549  0.00  0.00    +0.000 C 
ATOM     26  O   UNL     1       2.506   4.356  17.625  0.00  0.00    +0.000 OA
ATOM     27  H   UNL     1       4.771   6.594  17.579  0.00  0.00    +0.000 HD
BRANCH  25  28
ATOM     28  C   UNL     1       4.810   4.114  17.012  0.00  0.00    +0.000 C 
BRANCH  28  29
ATOM     29  N   UNL     1       5.768   4.993  16.312  0.00  0.00    +0.000 NA
ATOM     30  C   UNL     1       5.202   5.454  15.032  0.00  0.00    +0.000 C 
ATOM     31  C   UNL     1       5.650   4.438  14.001  0.00  0.00    +0.000 C 
ATOM     32  C   UNL     1       7.059   4.118  14.448  0.00  0.00    +0.000 C 
ATOM     33  C   UNL     1       7.025   4.288  15.961  0.00  0.00    +0.000 C 
ENDBRANCH  28  29
ENDBRANCH  25  28
ENDBRANCH  21  24
ENDBRANCH   1  18
BRANCH   1  34
ATOM     34  O   UNL     1      -0.014   9.365  21.805  0.00  0.00    +0.000 OA
ATOM     35  H   UNL     1      -0.965   9.189  21.745  0.00  0.00    +0.000 HD
ENDBRANCH   1  34
TORSDOF 9
ENDMDL
MODEL 7
REMARK VINA RESULT:      -6.9      0.778     10.520
REMARK  Name = 
REMARK  9 active torsions:
REMARK  status: ('A' for Active; 'I' for Inactive)
REMARK    1  A    between atoms: C_2  and  C_3
REMARK    2  A    between atoms: C_3  and  N_4
REMARK    3  A    between atoms: N_9  and  C_10
REMARK    4  A    between atoms: C_13  and  C_14
REMARK    5  A    between atoms: C_14  and  O_15
REMARK    6  A    between atoms: C_14  and  C_16
REMARK    7  A    between atoms: C_19  and  N_20
REMARK    8  A    between atoms: C_21  and  C_23
REMARK    9  A    between atoms: C_23  and  N_24
REMARK                            x       y       z     vdW  Elec       q    Type
REMARK                         _______ _______ _______ _____ _____    ______ ____
ROOT
ATOM      1  C   UNL     1       1.923   5.443  20.368  0.00  0.00    +0.000 C 
ENDROOT
BRANCH   1   5
ATOM      2  C   UNL     1       4.754   4.237  17.273  0.00  0.00    +0.000 A 
ATOM      3  C   UNL     1       5.177   4.899  18.426  0.00  0.00    +0.000 A 
ATOM      4  C   UNL     1       4.262   5.286  19.413  0.00  0.00    +0.000 A 
ATOM      5  C   UNL     1       2.892   5.016  19.272  0.00  0.00    +0.000 A 
ATOM      6  C   UNL     1       2.469   4.341  18.119  0.00  0.00    +0.000 A 
ATOM      7  C   UNL     1       3.389   3.965  17.126  0.00  0.00    +0.000 A 
BRANCH   2  10
ATOM      8  O   UNL     1       5.691   5.800  14.956  0.00  0.00    +0.000 OA
ATOM      9  C   UNL     1       5.983   4.616  15.122  0.00  0.00    +0.000 C 
ATOM     10  N   UNL     1       5.629   3.852  16.229  0.00  0.00    +0.000 N 
ATOM     11  H   UNL     1       6.074   2.949  16.328  0.00  0.00    +0.000 HD
BRANCH   9  12
ATOM     12  C   UNL     1       6.779   3.834  14.061  0.00  0.00    +0.000 C 
BRANCH  12  13
ATOM     13  N   UNL     1       6.358   4.015  12.657  0.00  0.00    +0.000 NA
ATOM     14  C   UNL     1       5.201   3.215  12.254  0.00  0.00    +0.000 C 
ATOM     15  C   UNL     1       5.776   1.939  11.675  0.00  0.00    +0.000 C 
ATOM     16  C   UNL     1       7.072   2.390  11.024  0.00  0.00    +0.000 C 
ATOM     17  C   UNL     1       7.410   3.731  11.671  0.00  0.00    +0.000 C 
ENDBRANCH  12  13
ENDBRANCH   9  12
ENDBRANCH   2  10
ENDBRANCH   1   5
BRANCH   1  18
ATOM     18  C   UNL     1       1.533   6.914  20.392  0.00  0.00    +0.000 A 
ATOM     19  C   UNL     1       0.935   7.495  21.517  0.00  0.00    +0.000 A 
ATOM     20  C   UNL     1       0.698   8.870  21.571  0.00  0.00    +0.000 A 
ATOM     21  C   UNL     1       1.070   9.704  20.518  0.00  0.00    +0.000 A 
ATOM     22  C   UNL     1       1.614   9.138  19.368  0.00  0.00    +0.000 A 
ATOM     23  C   UNL     1       1.863   7.761  19.316  0.00  0.00    +0.000 A 
BRANCH  21  24
ATOM     24  N   UNL     1       0.923  11.105  20.580  0.00  0.00    +0.000 N 
ATOM     25  C   UNL     1      -0.137  11.808  20.023  0.00  0.00    +0.000 C 
ATOM     26  O   UNL     1      -1.122  11.309  19.479  0.00  0.00    +0.000 OA
ATOM     27  H   UNL     1       1.546  11.617  21.191  0.00  0.00    +0.000 HD
BRANCH  25  28
ATOM     28  C   UNL     1      -0.019  13.330  20.146  0.00  0.00    +0.000 C 
BRANCH  28  29
ATOM     29  N   UNL     1       0.178  13.973  18.832  0.00  0.00    +0.000 NA
ATOM     30  C   UNL     1       1.588  13.870  18.416  0.00  0.00    +0.000 C 
ATOM     31  C   UNL     1       2.256  15.126  18.935  0.00  0.00    +0.000 C 
ATOM     32  C   UNL     1       1.193  16.178  18.714  0.00  0.00    +0.000 C 
ATOM     33  C   UNL     1      -0.123  15.425  18.866  0.00  0.00    +0.000 C 
ENDBRANCH  28  29
ENDBRANCH  25  28
ENDBRANCH  21  24
ENDBRANCH   1  18
BRANCH   1  34
ATOM     34  O   UNL     1       2.439   5.075  21.651  0.00  0.00    +0.000 OA
ATOM     35  H   UNL     1       2.848   5.861  22.044  0.00  0.00    +0.000 HD
ENDBRANCH   1  34
TORSDOF 9
ENDMDL
MODEL 8
REMARK VINA RESULT:      -6.8      4.039     12.400
REMARK  Name = 
REMARK  9 active torsions:
REMARK  status: ('A' for Active; 'I' for Inactive)
REMARK    1  A    between atoms: C_2  and  C_3
REMARK    2  A    between atoms: C_3  and  N_4
REMARK    3  A    between atoms: N_9  and  C_10
REMARK    4  A    between atoms: C_13  and  C_14
REMARK    5  A    between atoms: C_14  and  O_15
REMARK    6  A    between atoms: C_14  and  C_16
REMARK    7  A    between atoms: C_19  and  N_20
REMARK    8  A    between atoms: C_21  and  C_23
REMARK    9  A    between atoms: C_23  and  N_24
REMARK                            x       y       z     vdW  Elec       q    Type
REMARK                         _______ _______ _______ _____ _____    ______ ____
ROOT
ATOM      1  C   UNL     1       1.228  11.280  19.219  0.00  0.00    +0.000 C 
ENDROOT
BRANCH   1   5
ATOM      2  C   UNL     1       2.204   7.044  18.819  0.00  0.00    +0.000 A 
ATOM      3  C   UNL     1       2.333   7.924  17.743  0.00  0.00    +0.000 A 
ATOM      4  C   UNL     1       2.014   9.281  17.879  0.00  0.00    +0.000 A 
ATOM      5  C   UNL     1       1.559   9.797  19.103  0.00  0.00    +0.000 A 
ATOM      6  C   UNL     1       1.440   8.916  20.185  0.00  0.00    +0.000 A 
ATOM      7  C   UNL     1       1.750   7.552  20.041  0.00  0.00    +0.000 A 
BRANCH   2  10
ATOM      8  O   UNL     1       4.609   5.564  19.663  0.00  0.00    +0.000 OA
ATOM      9  C   UNL     1       3.665   5.026  19.086  0.00  0.00    +0.000 C 
ATOM     10  N   UNL     1       2.479   5.659  18.730  0.00  0.00    +0.000 N 
ATOM     11  H   UNL     1       1.716   5.071  18.420  0.00  0.00    +0.000 HD
BRANCH   9  12
ATOM     12  C   UNL     1       3.725   3.546  18.666  0.00  0.00    +0.000 C 
BRANCH  12  13
ATOM     13  N   UNL     1       3.102   2.575  19.588  0.00  0.00    +0.000 NA
ATOM     14  C   UNL     1       1.853   1.983  19.106  0.00  0.00    +0.000 C 
ATOM     15  C   UNL     1       0.751   2.864  19.657  0.00  0.00    +0.000 C 
ATOM     16  C   UNL     1       1.295   3.325  20.999  0.00  0.00    +0.000 C 
ATOM     17  C   UNL     1       2.806   3.114  20.923  0.00  0.00    +0.000 C 
ENDBRANCH  12  13
ENDBRANCH   9  12
ENDBRANCH   2  10
ENDBRANCH   1   5
BRANCH   1  18
ATOM     18  C   UNL     1      -0.144  11.627  19.779  0.00  0.00    +0.000 A 
ATOM     19  C   UNL     1      -0.311  12.042  21.106  0.00  0.00    +0.000 A 
ATOM     20  C   UNL     1      -1.554  12.476  21.569  0.00  0.00    +0.000 A 
ATOM     21  C   UNL     1      -2.658  12.528  20.718  0.00  0.00    +0.000 A 
ATOM     22  C   UNL     1      -2.525  12.066  19.411  0.00  0.00    +0.000 A 
ATOM     23  C   UNL     1      -1.276  11.641  18.941  0.00  0.00    +0.000 A 
BRANCH  21  24
ATOM     24  N   UNL     1      -3.903  13.043  21.132  0.00  0.00    +0.000 N 
ATOM     25  C   UNL     1      -4.158  14.387  21.371  0.00  0.00    +0.000 C 
ATOM     26  O   UNL     1      -3.368  15.310  21.177  0.00  0.00    +0.000 OA
ATOM     27  H   UNL     1      -4.700  12.419  21.114  0.00  0.00    +0.000 HD
BRANCH  25  28
ATOM     28  C   UNL     1      -5.563  14.679  21.903  0.00  0.00    +0.000 C 
BRANCH  28  29
ATOM     29  N   UNL     1      -5.618  14.610  23.376  0.00  0.00    +0.000 NA
ATOM     30  C   UNL     1      -6.372  15.756  23.915  0.00  0.00    +0.000 C 
ATOM     31  C   UNL     1      -5.340  16.833  24.178  0.00  0.00    +0.000 C 
ATOM     32  C   UNL     1      -4.163  16.039  24.699  0.00  0.00    +0.000 C 
ATOM     33  C   UNL     1      -4.271  14.694  23.993  0.00  0.00    +0.000 C 
ENDBRANCH  28  29
ENDBRANCH  25  28
ENDBRANCH  21  24
ENDBRANCH   1  18
BRANCH   1  34
ATOM     34  O   UNL     1       1.392  11.921  17.950  0.00  0.00    +0.000 OA
ATOM     35  H   UNL     1       0.831  11.458  17.309  0.00  0.00    +0.000 HD
ENDBRANCH   1  34
TORSDOF 9
ENDMDL
MODEL 9
REMARK VINA RESULT:      -6.8      1.201     11.164
REMARK  Name = 
REMARK  9 active torsions:
REMARK  status: ('A' for Active; 'I' for Inactive)
REMARK    1  A    between atoms: C_2  and  C_3
REMARK    2  A    between atoms: C_3  and  N_4
REMARK    3  A    between atoms: N_9  and  C_10
REMARK    4  A    between atoms: C_13  and  C_14
REMARK    5  A    between atoms: C_14  and  O_15
REMARK    6  A    between atoms: C_14  and  C_16
REMARK    7  A    between atoms: C_19  and  N_20
REMARK    8  A    between atoms: C_21  and  C_23
REMARK    9  A    between atoms: C_23  and  N_24
REMARK                            x       y       z     vdW  Elec       q    Type
REMARK                         _______ _______ _______ _____ _____    ______ ____
ROOT
ATOM      1  C   UNL     1       1.855   5.948  20.202  0.00  0.00    +0.000 C 
ENDROOT
BRANCH   1   5
ATOM      2  C   UNL     1       4.578   4.327  17.200  0.00  0.00    +0.000 A 
ATOM      3  C   UNL     1       5.048   5.091  18.270  0.00  0.00    +0.000 A 
ATOM      4  C   UNL     1       4.167   5.610  19.227  0.00  0.00    +0.000 A 
ATOM      5  C   UNL     1       2.786   5.375  19.140  0.00  0.00    +0.000 A 
ATOM      6  C   UNL     1       2.316   4.599  18.072  0.00  0.00    +0.000 A 
ATOM      7  C   UNL     1       3.202   4.090  17.108  0.00  0.00    +0.000 A 
BRANCH   2  10
ATOM      8  O   UNL     1       5.683   5.672  14.821  0.00  0.00    +0.000 OA
ATOM      9  C   UNL     1       5.854   4.475  15.048  0.00  0.00    +0.000 C 
ATOM     10  N   UNL     1       5.417   3.806  16.187  0.00  0.00    +0.000 N 
ATOM     11  H   UNL     1       5.769   2.869  16.336  0.00  0.00    +0.000 HD
BRANCH   9  12
ATOM     12  C   UNL     1       6.574   3.565  14.037  0.00  0.00    +0.000 C 
BRANCH  12  13
ATOM     13  N   UNL     1       6.293   3.817  12.608  0.00  0.00    +0.000 NA
ATOM     14  C   UNL     1       5.161   3.067  12.064  0.00  0.00    +0.000 C 
ATOM     15  C   UNL     1       5.758   1.801  11.485  0.00  0.00    +0.000 C 
ATOM     16  C   UNL     1       7.120   2.243  10.979  0.00  0.00    +0.000 C 
ATOM     17  C   UNL     1       7.427   3.547  11.714  0.00  0.00    +0.000 C 
ENDBRANCH  12  13
ENDBRANCH   9  12
ENDBRANCH   2  10
ENDBRANCH   1   5
BRANCH   1  18
ATOM     18  C   UNL     1       1.655   7.456  20.186  0.00  0.00    +0.000 A 
ATOM     19  C   UNL     1       1.775   8.199  19.005  0.00  0.00    +0.000 A 
ATOM     20  C   UNL     1       1.466   9.560  18.980  0.00  0.00    +0.000 A 
ATOM     21  C   UNL     1       1.008  10.212  20.125  0.00  0.00    +0.000 A 
ATOM     22  C   UNL     1       0.936   9.504  21.321  0.00  0.00    +0.000 A 
ATOM     23  C   UNL     1       1.235   8.136  21.346  0.00  0.00    +0.000 A 
BRANCH  21  24
ATOM     24  N   UNL     1       0.607  11.563  20.110  0.00  0.00    +0.000 N 
ATOM     25  C   UNL     1      -0.687  11.995  19.849  0.00  0.00    +0.000 C 
ATOM     26  O   UNL     1      -1.664  11.267  19.679  0.00  0.00    +0.000 OA
ATOM     27  H   UNL     1       1.262  12.253  20.454  0.00  0.00    +0.000 HD
BRANCH  25  28
ATOM     28  C   UNL     1      -0.847  13.517  19.800  0.00  0.00    +0.000 C 
BRANCH  28  29
ATOM     29  N   UNL     1      -1.745  14.008  20.863  0.00  0.00    +0.000 NA
ATOM     30  C   UNL     1      -1.810  15.481  20.840  0.00  0.00    +0.000 C 
ATOM     31  C   UNL     1      -0.722  15.949  21.784  0.00  0.00    +0.000 C 
ATOM     32  C   UNL     1      -0.798  14.933  22.902  0.00  0.00    +0.000 C 
ATOM     33  C   UNL     1      -1.259  13.652  22.219  0.00  0.00    +0.000 C 
ENDBRANCH  28  29
ENDBRANCH  25  28
ENDBRANCH  21  24
ENDBRANCH   1  18
BRANCH   1  34
ATOM     34  O   UNL     1       2.293   5.548  21.505  0.00  0.00    +0.000 OA
ATOM     35  H   UNL     1       2.560   6.345  21.987  0.00  0.00    +0.000 HD
ENDBRANCH   1  34
TORSDOF 9
ENDMDL
