MODEL 1
REMARK VINA RESULT:      -9.1      0.000      0.000
REMARK  Name = 
REMARK  3 active torsions:
REMARK  status: ('A' for Active; 'I' for Inactive)
REMARK    1  A    between atoms: C_2  and  C_12
REMARK    2  A    between atoms: N_3  and  C_4
REMARK    3  A    between atoms: C_19  and  C_20
REMARK                            x       y       z     vdW  Elec       q    Type
REMARK                         _______ _______ _______ _____ _____    ______ ____
ROOT
ATOM      1  C   UNL     1       2.249   8.230  18.586  0.00  0.00    +0.000 A 
ATOM      2  C   UNL     1       2.345   9.427  17.819  0.00  0.00    +0.000 A 
ATOM      3  C   UNL     1       1.650  10.421  18.467  0.00  0.00    +0.000 A 
ATOM      4  C   UNL     1       1.418  11.782  18.149  0.00  0.00    +0.000 A 
ATOM      5  C   UNL     1       0.724  12.565  18.985  0.00  0.00    +0.000 A 
ATOM      6  C   UNL     1       0.199  12.031  20.250  0.00  0.00    +0.000 A 
ATOM      7  C   UNL     1      -0.510  12.856  21.120  0.00  0.00    +0.000 A 
ATOM      8  C   UNL     1      -1.021  12.361  22.338  0.00  0.00    +0.000 A 
ATOM      9  C   UNL     1      -0.775  11.011  22.644  0.00  0.00    +0.000 A 
ATOM     10  C   UNL     1      -0.068  10.168  21.786  0.00  0.00    +0.000 A 
ATOM     11  C   UNL     1       0.415  10.681  20.581  0.00  0.00    +0.000 A 
ATOM     12  N   UNL     1       1.143   9.896  19.647  0.00  0.00    +0.000 N 
ATOM     13  C   UNL     1       1.494   8.556  19.707  0.00  0.00    +0.000 A 
ENDROOT
BRANCH   8  14
ATOM     14  C   UNL     1      -1.777  13.229  23.258  0.00  0.00    +0.000 A 
ATOM     15  C   UNL     1      -3.123  12.960  23.572  0.00  0.00    +0.000 A 
ATOM     16  C   UNL     1      -3.869  13.832  24.359  0.00  0.00    +0.000 A 
ATOM     17  C   UNL     1      -3.266  14.970  24.870  0.00  0.00    +0.000 A 
ATOM     18  F   UNL     1      -3.994  15.836  25.592  0.00  0.00    +0.000 F 
ATOM     19  C   UNL     1      -1.928  15.243  24.628  0.00  0.00    +0.000 A 
ATOM     20  C   UNL     1      -1.188  14.376  23.828  0.00  0.00    +0.000 A 
ENDBRANCH   8  14
BRANCH   1  22
ATOM     21  O   UNL     1       3.856   6.918  17.482  0.00  0.00    +0.000 OA
ATOM     22  C   UNL     1       2.873   6.958  18.220  0.00  0.00    +0.000 C 
ATOM     23  N   UNL     1       2.293   5.823  18.739  0.00  0.00    +0.000 N 
ATOM     24  H   UNL     1       1.363   5.909  19.123  0.00  0.00    +0.000 HD
BRANCH  23  25
ATOM     25  C   UNL     1       2.802   4.495  18.402  0.00  0.00    +0.000 C 
ATOM     26  C   UNL     1       3.804   3.957  19.458  0.00  0.00    +0.000 C 
ATOM     27  N   UNL     1       3.408   2.629  19.991  0.00  0.00    +0.000 NA
ATOM     28  C   UNL     1       2.070   2.742  20.609  0.00  0.00    +0.000 C 
ATOM     29  C   UNL     1       1.008   3.203  19.598  0.00  0.00    +0.000 C 
ATOM     30  C   UNL     1       1.669   3.453  18.234  0.00  0.00    +0.000 C 
ATOM     31  C   UNL     1       2.317   2.121  17.802  0.00  0.00    +0.000 C 
ATOM     32  C   UNL     1       3.331   1.669  18.867  0.00  0.00    +0.000 C 
ENDBRANCH  23  25
ENDBRANCH   1  22
TORSDOF 3
ENDMDL
MODEL 2
REMARK VINA RESULT:      -8.9      4.659     10.869
REMARK  Name = 
REMARK  3 active torsions:
REMARK  status: ('A' for Active; 'I' for Inactive)
REMARK    1  A    between atoms: C_2  and  C_12
REMARK    2  A    between atoms: N_3  and  C_4
REMARK    3  A    between atoms: C_19  and  C_20
REMARK                            x       y       z     vdW  Elec       q    Type
REMARK                         _______ _______ _______ _____ _____    ______ ____
ROOT
ATOM      1  C   UNL     1      -1.674  12.126  21.235  0.00  0.00    +0.000 A 
ATOM      2  C   UNL     1      -1.246  11.409  22.390  0.00  0.00    +0.000 A 
ATOM      3  C   UNL     1      -0.416  10.388  21.990  0.00  0.00    +0.000 A 
ATOM      4  C   UNL     1       0.273   9.383  22.713  0.00  0.00    +0.000 A 
ATOM      5  C   UNL     1       1.065   8.512  22.076  0.00  0.00    +0.000 A 
ATOM      6  C   UNL     1       1.243   8.586  20.619  0.00  0.00    +0.000 A 
ATOM      7  C   UNL     1       2.080   7.684  19.966  0.00  0.00    +0.000 A 
ATOM      8  C   UNL     1       2.262   7.740  18.569  0.00  0.00    +0.000 A 
ATOM      9  C   UNL     1       1.579   8.749  17.865  0.00  0.00    +0.000 A 
ATOM     10  C   UNL     1       0.735   9.661  18.500  0.00  0.00    +0.000 A 
ATOM     11  C   UNL     1       0.563   9.573  19.882  0.00  0.00    +0.000 A 
ATOM     12  N   UNL     1      -0.276  10.459  20.611  0.00  0.00    +0.000 N 
ATOM     13  C   UNL     1      -1.059  11.507  20.152  0.00  0.00    +0.000 A 
ENDROOT
BRANCH   8  14
ATOM     14  C   UNL     1       3.141   6.784  17.874  0.00  0.00    +0.000 A 
ATOM     15  C   UNL     1       2.906   5.397  17.941  0.00  0.00    +0.000 A 
ATOM     16  C   UNL     1       3.791   4.487  17.372  0.00  0.00    +0.000 A 
ATOM     17  C   UNL     1       4.907   4.955  16.698  0.00  0.00    +0.000 A 
ATOM     18  F   UNL     1       5.786   4.078  16.187  0.00  0.00    +0.000 F 
ATOM     19  C   UNL     1       5.147   6.314  16.564  0.00  0.00    +0.000 A 
ATOM     20  C   UNL     1       4.267   7.223  17.147  0.00  0.00    +0.000 A 
ENDBRANCH   8  14
BRANCH   1  22
ATOM     21  O   UNL     1      -2.269  14.328  20.670  0.00  0.00    +0.000 OA
ATOM     22  C   UNL     1      -2.559  13.290  21.263  0.00  0.00    +0.000 C 
ATOM     23  N   UNL     1      -3.718  13.158  21.993  0.00  0.00    +0.000 N 
ATOM     24  H   UNL     1      -3.773  12.388  22.644  0.00  0.00    +0.000 HD
BRANCH  23  25
ATOM     25  C   UNL     1      -4.654  14.272  22.131  0.00  0.00    +0.000 C 
ATOM     26  C   UNL     1      -5.849  14.170  21.147  0.00  0.00    +0.000 C 
ATOM     27  N   UNL     1      -7.161  14.224  21.839  0.00  0.00    +0.000 NA
ATOM     28  C   UNL     1      -7.236  13.108  22.806  0.00  0.00    +0.000 C 
ATOM     29  C   UNL     1      -6.121  13.185  23.860  0.00  0.00    +0.000 C 
ATOM     30  C   UNL     1      -5.219  14.395  23.568  0.00  0.00    +0.000 C 
ATOM     31  C   UNL     1      -6.122  15.645  23.611  0.00  0.00    +0.000 C 
ATOM     32  C   UNL     1      -7.256  15.501  22.581  0.00  0.00    +0.000 C 
ENDBRANCH  23  25
ENDBRANCH   1  22
TORSDOF 3
ENDMDL
MODEL 3
REMARK VINA RESULT:      -8.8      4.229     10.455
REMARK  Name = 
REMARK  3 active torsions:
REMARK  status: ('A' for Active; 'I' for Inactive)
REMARK    1  A    between atoms: C_2  and  C_12
REMARK    2  A    between atoms: N_3  and  C_4
REMARK    3  A    between atoms: C_19  and  C_20
REMARK                            x       y       z     vdW  Elec       q    Type
REMARK                         _______ _______ _______ _____ _____    ______ ____
ROOT
ATOM      1  C   UNL     1       0.226  12.132  21.047  0.00  0.00    +0.000 A 
ATOM      2  C   UNL     1       0.688  12.344  19.716  0.00  0.00    +0.000 A 
ATOM      3  C   UNL     1       1.185  11.157  19.230  0.00  0.00    +0.000 A 
ATOM      4  C   UNL     1       1.767  10.807  17.986  0.00  0.00    +0.000 A 
ATOM      5  C   UNL     1       2.143   9.545  17.745  0.00  0.00    +0.000 A 
ATOM      6  C   UNL     1       1.951   8.498  18.759  0.00  0.00    +0.000 A 
ATOM      7  C   UNL     1       2.333   7.184  18.494  0.00  0.00    +0.000 A 
ATOM      8  C   UNL     1       2.157   6.168  19.456  0.00  0.00    +0.000 A 
ATOM      9  C   UNL     1       1.570   6.528  20.681  0.00  0.00    +0.000 A 
ATOM     10  C   UNL     1       1.182   7.838  20.967  0.00  0.00    +0.000 A 
ATOM     11  C   UNL     1       1.381   8.826  20.002  0.00  0.00    +0.000 A 
ATOM     12  N   UNL     1       1.017  10.186  20.207  0.00  0.00    +0.000 N 
ATOM     13  C   UNL     1       0.450  10.787  21.319  0.00  0.00    +0.000 A 
ENDROOT
BRANCH   8  14
ATOM     14  C   UNL     1       2.565   4.779  19.181  0.00  0.00    +0.000 A 
ATOM     15  C   UNL     1       3.826   4.298  19.581  0.00  0.00    +0.000 A 
ATOM     16  C   UNL     1       4.255   3.020  19.234  0.00  0.00    +0.000 A 
ATOM     17  C   UNL     1       3.410   2.193  18.512  0.00  0.00    +0.000 A 
ATOM     18  F   UNL     1       3.837   0.977  18.138  0.00  0.00    +0.000 F 
ATOM     19  C   UNL     1       2.139   2.610  18.145  0.00  0.00    +0.000 A 
ATOM     20  C   UNL     1       1.719   3.895  18.480  0.00  0.00    +0.000 A 
ENDBRANCH   8  14
BRANCH   1  22
ATOM     21  O   UNL     1       0.298  13.845  22.654  0.00  0.00    +0.000 OA
ATOM     22  C   UNL     1      -0.382  13.164  21.888  0.00  0.00    +0.000 C 
ATOM     23  N   UNL     1      -1.744  13.317  21.776  0.00  0.00    +0.000 N 
ATOM     24  H   UNL     1      -2.261  12.576  21.326  0.00  0.00    +0.000 HD
BRANCH  23  25
ATOM     25  C   UNL     1      -2.464  14.284  22.603  0.00  0.00    +0.000 C 
ATOM     26  C   UNL     1      -3.754  14.808  21.917  0.00  0.00    +0.000 C 
ATOM     27  N   UNL     1      -4.962  14.619  22.760  0.00  0.00    +0.000 NA
ATOM     28  C   UNL     1      -5.121  13.178  23.049  0.00  0.00    +0.000 C 
ATOM     29  C   UNL     1      -3.906  12.605  23.796  0.00  0.00    +0.000 C 
ATOM     30  C   UNL     1      -2.851  13.707  23.986  0.00  0.00    +0.000 C 
ATOM     31  C   UNL     1      -3.527  14.835  24.793  0.00  0.00    +0.000 C 
ATOM     32  C   UNL     1      -4.769  15.340  24.038  0.00  0.00    +0.000 C 
ENDBRANCH  23  25
ENDBRANCH   1  22
TORSDOF 3
ENDMDL
MODEL 4
REMARK VINA RESULT:      -8.8      2.010      3.106
REMARK  Name = 
REMARK  3 active torsions:
REMARK  status: ('A' for Active; 'I' for Inactive)
REMARK    1  A    between atoms: C_2  and  C_12
REMARK    2  A    between atoms: N_3  and  C_4
REMARK    3  A    between atoms: C_19  and  C_20
REMARK                            x       y       z     vdW  Elec       q    Type
REMARK                         _______ _______ _______ _____ _____    ______ ____
ROOT
ATOM      1  C   UNL     1       1.493   8.827  19.410  0.00  0.00    +0.000 A 
ATOM      2  C   UNL     1       1.443   8.354  20.754  0.00  0.00    +0.000 A 
ATOM      3  C   UNL     1       0.632   9.191  21.484  0.00  0.00    +0.000 A 
ATOM      4  C   UNL     1       0.245   9.191  22.847  0.00  0.00    +0.000 A 
ATOM      5  C   UNL     1      -0.604  10.116  23.311  0.00  0.00    +0.000 A 
ATOM      6  C   UNL     1      -1.158  11.142  22.416  0.00  0.00    +0.000 A 
ATOM      7  C   UNL     1      -2.052  12.093  22.904  0.00  0.00    +0.000 A 
ATOM      8  C   UNL     1      -2.592  13.084  22.060  0.00  0.00    +0.000 A 
ATOM      9  C   UNL     1      -2.208  13.066  20.708  0.00  0.00    +0.000 A 
ATOM     10  C   UNL     1      -1.313  12.124  20.199  0.00  0.00    +0.000 A 
ATOM     11  C   UNL     1      -0.782  11.162  21.060  0.00  0.00    +0.000 A 
ATOM     12  N   UNL     1       0.135  10.165  20.630  0.00  0.00    +0.000 N 
ATOM     13  C   UNL     1       0.676   9.952  19.372  0.00  0.00    +0.000 A 
ENDROOT
BRANCH   8  14
ATOM     14  C   UNL     1      -3.533  14.095  22.574  0.00  0.00    +0.000 A 
ATOM     15  C   UNL     1      -3.290  14.765  23.789  0.00  0.00    +0.000 A 
ATOM     16  C   UNL     1      -4.224  15.644  24.328  0.00  0.00    +0.000 A 
ATOM     17  C   UNL     1      -5.401  15.890  23.640  0.00  0.00    +0.000 A 
ATOM     18  F   UNL     1      -6.324  16.703  24.179  0.00  0.00    +0.000 F 
ATOM     19  C   UNL     1      -5.655  15.292  22.415  0.00  0.00    +0.000 A 
ATOM     20  C   UNL     1      -4.724  14.401  21.885  0.00  0.00    +0.000 A 
ENDBRANCH   8  14
BRANCH   1  22
ATOM     21  O   UNL     1       2.306   8.685  17.210  0.00  0.00    +0.000 OA
ATOM     22  C   UNL     1       2.248   8.187  18.334  0.00  0.00    +0.000 C 
ATOM     23  N   UNL     1       2.875   7.003  18.648  0.00  0.00    +0.000 N 
ATOM     24  H   UNL     1       2.587   6.534  19.495  0.00  0.00    +0.000 HD
BRANCH  23  25
ATOM     25  C   UNL     1       3.617   6.251  17.639  0.00  0.00    +0.000 C 
ATOM     26  C   UNL     1       5.096   6.709  17.525  0.00  0.00    +0.000 C 
ATOM     27  N   UNL     1       6.053   5.586  17.695  0.00  0.00    +0.000 NA
ATOM     28  C   UNL     1       5.838   4.974  19.023  0.00  0.00    +0.000 C 
ATOM     29  C   UNL     1       4.410   4.430  19.181  0.00  0.00    +0.000 C 
ATOM     30  C   UNL     1       3.602   4.726  17.907  0.00  0.00    +0.000 C 
ATOM     31  C   UNL     1       4.341   4.037  16.741  0.00  0.00    +0.000 C 
ATOM     32  C   UNL     1       5.782   4.568  16.655  0.00  0.00    +0.000 C 
ENDBRANCH  23  25
ENDBRANCH   1  22
TORSDOF 3
ENDMDL
MODEL 5
REMARK VINA RESULT:      -8.8      4.340     10.559
REMARK  Name = 
REMARK  3 active torsions:
REMARK  status: ('A' for Active; 'I' for Inactive)
REMARK    1  A    between atoms: C_2  and  C_12
REMARK    2  A    between atoms: N_3  and  C_4
REMARK    3  A    between atoms: C_19  and  C_20
REMARK                            x       y       z     vdW  Elec       q    Type
REMARK                         _______ _______ _______ _____ _____    ______ ____
ROOT
ATOM      1  C   UNL     1      -0.064  11.574  21.175  0.00  0.00    +0.000 A 
ATOM      2  C   UNL     1       0.427  11.881  19.873  0.00  0.00    +0.000 A 
ATOM      3  C   UNL     1       1.016  10.754  19.350  0.00  0.00    +0.000 A 
ATOM      4  C   UNL     1       1.661  10.503  18.113  0.00  0.00    +0.000 A 
ATOM      5  C   UNL     1       2.126   9.281  17.826  0.00  0.00    +0.000 A 
ATOM      6  C   UNL     1       1.970   8.175  18.782  0.00  0.00    +0.000 A 
ATOM      7  C   UNL     1       2.445   6.904  18.469  0.00  0.00    +0.000 A 
ATOM      8  C   UNL     1       2.305   5.831  19.374  0.00  0.00    +0.000 A 
ATOM      9  C   UNL     1       1.655   6.092  20.594  0.00  0.00    +0.000 A 
ATOM     10  C   UNL     1       1.173   7.359  20.927  0.00  0.00    +0.000 A 
ATOM     11  C   UNL     1       1.338   8.405  20.018  0.00  0.00    +0.000 A 
ATOM     12  N   UNL     1       0.880   9.726  20.273  0.00  0.00    +0.000 N 
ATOM     13  C   UNL     1       0.238  10.234  21.392  0.00  0.00    +0.000 A 
ENDROOT
BRANCH   8  14
ATOM     14  C   UNL     1       2.811   4.486  19.049  0.00  0.00    +0.000 A 
ATOM     15  C   UNL     1       2.226   3.717  18.025  0.00  0.00    +0.000 A 
ATOM     16  C   UNL     1       2.634   2.408  17.783  0.00  0.00    +0.000 A 
ATOM     17  C   UNL     1       3.657   1.865  18.542  0.00  0.00    +0.000 A 
ATOM     18  F   UNL     1       4.023   0.589  18.341  0.00  0.00    +0.000 F 
ATOM     19  C   UNL     1       4.295   2.608  19.524  0.00  0.00    +0.000 A 
ATOM     20  C   UNL     1       3.875   3.912  19.774  0.00  0.00    +0.000 A 
ENDBRANCH   8  14
BRANCH   1  22
ATOM     21  O   UNL     1      -0.289  12.876  23.119  0.00  0.00    +0.000 OA
ATOM     22  C   UNL     1      -0.765  12.522  22.041  0.00  0.00    +0.000 C 
ATOM     23  N   UNL     1      -1.980  12.981  21.586  0.00  0.00    +0.000 N 
ATOM     24  H   UNL     1      -2.417  12.472  20.832  0.00  0.00    +0.000 HD
BRANCH  23  25
ATOM     25  C   UNL     1      -2.790  13.894  22.390  0.00  0.00    +0.000 C 
ATOM     26  C   UNL     1      -3.257  15.138  21.588  0.00  0.00    +0.000 C 
ATOM     27  N   UNL     1      -4.731  15.315  21.621  0.00  0.00    +0.000 NA
ATOM     28  C   UNL     1      -5.369  14.108  21.054  0.00  0.00    +0.000 C 
ATOM     29  C   UNL     1      -5.008  12.842  21.846  0.00  0.00    +0.000 C 
ATOM     30  C   UNL     1      -4.042  13.204  22.986  0.00  0.00    +0.000 C 
ATOM     31  C   UNL     1      -4.768  14.236  23.874  0.00  0.00    +0.000 C 
ATOM     32  C   UNL     1      -5.161  15.461  23.030  0.00  0.00    +0.000 C 
ENDBRANCH  23  25
ENDBRANCH   1  22
TORSDOF 3
ENDMDL
MODEL 6
REMARK VINA RESULT:      -8.8      1.445      1.676
REMARK  Name = 
REMARK  3 active torsions:
REMARK  status: ('A' for Active; 'I' for Inactive)
REMARK    1  A    between atoms: C_2  and  C_12
REMARK    2  A    between atoms: N_3  and  C_4
REMARK    3  A    between atoms: C_19  and  C_20
REMARK                            x       y       z     vdW  Elec       q    Type
REMARK                         _______ _______ _______ _____ _____    ______ ____
ROOT
ATOM      1  C   UNL     1       1.295   8.872  18.815  0.00  0.00    +0.000 A 
ATOM      2  C   UNL     1       0.416   9.389  17.820  0.00  0.00    +0.000 A 
ATOM      3  C   UNL     1      -0.428  10.299  18.412  0.00  0.00    +0.000 A 
ATOM      4  C   UNL     1      -1.483  11.093  17.897  0.00  0.00    +0.000 A 
ATOM      5  C   UNL     1      -2.140  11.947  18.693  0.00  0.00    +0.000 A 
ATOM      6  C   UNL     1      -1.773  12.085  20.109  0.00  0.00    +0.000 A 
ATOM      7  C   UNL     1      -2.453  12.986  20.927  0.00  0.00    +0.000 A 
ATOM      8  C   UNL     1      -2.115  13.131  22.288  0.00  0.00    +0.000 A 
ATOM      9  C   UNL     1      -1.060  12.344  22.783  0.00  0.00    +0.000 A 
ATOM     10  C   UNL     1      -0.368  11.434  21.981  0.00  0.00    +0.000 A 
ATOM     11  C   UNL     1      -0.732  11.302  20.641  0.00  0.00    +0.000 A 
ATOM     12  N   UNL     1      -0.084  10.401  19.752  0.00  0.00    +0.000 N 
ATOM     13  C   UNL     1       0.954   9.516  19.999  0.00  0.00    +0.000 A 
ENDROOT
BRANCH   8  14
ATOM     14  C   UNL     1      -2.835  14.078  23.157  0.00  0.00    +0.000 A 
ATOM     15  C   UNL     1      -4.075  14.623  22.769  0.00  0.00    +0.000 A 
ATOM     16  C   UNL     1      -4.708  15.595  23.538  0.00  0.00    +0.000 A 
ATOM     17  C   UNL     1      -4.124  16.009  24.724  0.00  0.00    +0.000 A 
ATOM     18  F   UNL     1      -4.710  16.978  25.446  0.00  0.00    +0.000 F 
ATOM     19  C   UNL     1      -2.932  15.458  25.168  0.00  0.00    +0.000 A 
ATOM     20  C   UNL     1      -2.293  14.497  24.388  0.00  0.00    +0.000 A 
ENDBRANCH   8  14
BRANCH   1  22
ATOM     21  O   UNL     1       3.287   8.133  17.811  0.00  0.00    +0.000 OA
ATOM     22  C   UNL     1       2.345   7.884  18.561  0.00  0.00    +0.000 C 
ATOM     23  N   UNL     1       2.209   6.673  19.198  0.00  0.00    +0.000 N 
ATOM     24  H   UNL     1       1.306   6.451  19.591  0.00  0.00    +0.000 HD
BRANCH  23  25
ATOM     25  C   UNL     1       3.172   5.594  18.981  0.00  0.00    +0.000 C 
ATOM     26  C   UNL     1       3.231   4.601  20.172  0.00  0.00    +0.000 C 
ATOM     27  N   UNL     1       2.999   3.196  19.752  0.00  0.00    +0.000 NA
ATOM     28  C   UNL     1       1.670   3.103  19.112  0.00  0.00    +0.000 C 
ATOM     29  C   UNL     1       1.563   4.010  17.875  0.00  0.00    +0.000 C 
ATOM     30  C   UNL     1       2.876   4.788  17.692  0.00  0.00    +0.000 C 
ATOM     31  C   UNL     1       3.996   3.740  17.527  0.00  0.00    +0.000 C 
ATOM     32  C   UNL     1       4.031   2.820  18.759  0.00  0.00    +0.000 C 
ENDBRANCH  23  25
ENDBRANCH   1  22
TORSDOF 3
ENDMDL
MODEL 7
REMARK VINA RESULT:      -8.7      4.587     10.955
REMARK  Name = 
REMARK  3 active torsions:
REMARK  status: ('A' for Active; 'I' for Inactive)
REMARK    1  A    between atoms: C_2  and  C_12
REMARK    2  A    between atoms: N_3  and  C_4
REMARK    3  A    between atoms: C_19  and  C_20
REMARK                            x       y       z     vdW  Elec       q    Type
REMARK                         _______ _______ _______ _____ _____    ______ ____
ROOT
ATOM      1  C   UNL     1      -0.953  11.924  20.587  0.00  0.00    +0.000 A 
ATOM      2  C   UNL     1      -0.792  11.093  21.733  0.00  0.00    +0.000 A 
ATOM      3  C   UNL     1      -0.027  10.006  21.382  0.00  0.00    +0.000 A 
ATOM      4  C   UNL     1       0.426   8.883  22.119  0.00  0.00    +0.000 A 
ATOM      5  C   UNL     1       1.208   7.963  21.540  0.00  0.00    +0.000 A 
ATOM      6  C   UNL     1       1.618   8.103  20.136  0.00  0.00    +0.000 A 
ATOM      7  C   UNL     1       2.443   7.148  19.546  0.00  0.00    +0.000 A 
ATOM      8  C   UNL     1       2.846   7.266  18.200  0.00  0.00    +0.000 A 
ATOM      9  C   UNL     1       2.397   8.389  17.484  0.00  0.00    +0.000 A 
ATOM     10  C   UNL     1       1.569   9.357  18.056  0.00  0.00    +0.000 A 
ATOM     11  C   UNL     1       1.175   9.207  19.386  0.00  0.00    +0.000 A 
ATOM     12  N   UNL     1       0.334  10.142  20.049  0.00  0.00    +0.000 N 
ATOM     13  C   UNL     1      -0.248  11.302  19.562  0.00  0.00    +0.000 A 
ENDROOT
BRANCH   8  14
ATOM     14  C   UNL     1       3.714   6.254  17.571  0.00  0.00    +0.000 A 
ATOM     15  C   UNL     1       4.783   6.631  16.734  0.00  0.00    +0.000 A 
ATOM     16  C   UNL     1       5.540   5.679  16.058  0.00  0.00    +0.000 A 
ATOM     17  C   UNL     1       5.258   4.335  16.238  0.00  0.00    +0.000 A 
ATOM     18  F   UNL     1       5.958   3.416  15.553  0.00  0.00    +0.000 F 
ATOM     19  C   UNL     1       4.250   3.921  17.095  0.00  0.00    +0.000 A 
ATOM     20  C   UNL     1       3.484   4.876  17.759  0.00  0.00    +0.000 A 
ENDBRANCH   8  14
BRANCH   1  22
ATOM     21  O   UNL     1      -1.302  14.153  19.931  0.00  0.00    +0.000 OA
ATOM     22  C   UNL     1      -1.699  13.182  20.574  0.00  0.00    +0.000 C 
ATOM     23  N   UNL     1      -2.853  13.215  21.322  0.00  0.00    +0.000 N 
ATOM     24  H   UNL     1      -2.985  12.485  22.007  0.00  0.00    +0.000 HD
BRANCH  23  25
ATOM     25  C   UNL     1      -3.653  14.435  21.422  0.00  0.00    +0.000 C 
ATOM     26  C   UNL     1      -5.139  14.204  21.039  0.00  0.00    +0.000 C 
ATOM     27  N   UNL     1      -6.074  14.637  22.107  0.00  0.00    +0.000 NA
ATOM     28  C   UNL     1      -5.771  13.882  23.342  0.00  0.00    +0.000 C 
ATOM     29  C   UNL     1      -4.331  14.122  23.823  0.00  0.00    +0.000 C 
ATOM     30  C   UNL     1      -3.609  15.056  22.840  0.00  0.00    +0.000 C 
ATOM     31  C   UNL     1      -4.415  16.371  22.801  0.00  0.00    +0.000 C 
ATOM     32  C   UNL     1      -5.863  16.078  22.370  0.00  0.00    +0.000 C 
ENDBRANCH  23  25
ENDBRANCH   1  22
TORSDOF 3
ENDMDL
MODEL 8
REMARK VINA RESULT:      -8.7      4.914     11.040
REMARK  Name = 
REMARK  3 active torsions:
REMARK  status: ('A' for Active; 'I' for Inactive)
REMARK    1  A    between atoms: C_2  and  C_12
REMARK    2  A    between atoms: N_3  and  C_4
REMARK    3  A    between atoms: C_19  and  C_20
REMARK                            x       y       z     vdW  Elec       q    Type
REMARK                         _______ _______ _______ _____ _____    ______ ____
ROOT
ATOM      1  C   UNL     1      -0.473  11.962  20.418  0.00  0.00    +0.000 A 
ATOM      2  C   UNL     1      -0.546  11.022  21.487  0.00  0.00    +0.000 A 
ATOM      3  C   UNL     1       0.143   9.889  21.122  0.00  0.00    +0.000 A 
ATOM      4  C   UNL     1       0.381   8.663  21.791  0.00  0.00    +0.000 A 
ATOM      5  C   UNL     1       1.132   7.713  21.220  0.00  0.00    +0.000 A 
ATOM      6  C   UNL     1       1.731   7.926  19.895  0.00  0.00    +0.000 A 
ATOM      7  C   UNL     1       2.522   6.938  19.314  0.00  0.00    +0.000 A 
ATOM      8  C   UNL     1       3.105   7.125  18.043  0.00  0.00    +0.000 A 
ATOM      9  C   UNL     1       2.868   8.350  17.395  0.00  0.00    +0.000 A 
ATOM     10  C   UNL     1       2.077   9.352  17.959  0.00  0.00    +0.000 A 
ATOM     11  C   UNL     1       1.502   9.134  19.211  0.00  0.00    +0.000 A 
ATOM     12  N   UNL     1       0.683  10.098  19.861  0.00  0.00    +0.000 N 
ATOM     13  C   UNL     1       0.290  11.354  19.427  0.00  0.00    +0.000 A 
ENDROOT
BRANCH   8  14
ATOM     14  C   UNL     1       3.938   6.080  17.423  0.00  0.00    +0.000 A 
ATOM     15  C   UNL     1       4.847   6.389  16.393  0.00  0.00    +0.000 A 
ATOM     16  C   UNL     1       5.560   5.391  15.736  0.00  0.00    +0.000 A 
ATOM     17  C   UNL     1       5.398   4.072  16.126  0.00  0.00    +0.000 A 
ATOM     18  F   UNL     1       6.051   3.103  15.465  0.00  0.00    +0.000 F 
ATOM     19  C   UNL     1       4.553   3.731  17.172  0.00  0.00    +0.000 A 
ATOM     20  C   UNL     1       3.829   4.731  17.817  0.00  0.00    +0.000 A 
ENDBRANCH   8  14
BRANCH   1  22
ATOM     21  O   UNL     1      -2.191  13.480  20.934  0.00  0.00    +0.000 OA
ATOM     22  C   UNL     1      -1.079  13.293  20.443  0.00  0.00    +0.000 C 
ATOM     23  N   UNL     1      -0.341  14.309  19.881  0.00  0.00    +0.000 N 
ATOM     24  H   UNL     1       0.433  14.050  19.287  0.00  0.00    +0.000 HD
BRANCH  23  25
ATOM     25  C   UNL     1      -0.867  15.671  19.806  0.00  0.00    +0.000 C 
ATOM     26  C   UNL     1      -0.405  16.553  20.996  0.00  0.00    +0.000 C 
ATOM     27  N   UNL     1       0.262  17.803  20.552  0.00  0.00    +0.000 NA
ATOM     28  C   UNL     1       1.439  17.448  19.729  0.00  0.00    +0.000 C 
ATOM     29  C   UNL     1       1.046  16.632  18.488  0.00  0.00    +0.000 C 
ATOM     30  C   UNL     1      -0.471  16.386  18.491  0.00  0.00    +0.000 C 
ATOM     31  C   UNL     1      -1.147  17.773  18.489  0.00  0.00    +0.000 C 
ATOM     32  C   UNL     1      -0.683  18.577  19.717  0.00  0.00    +0.000 C 
ENDBRANCH  23  25
ENDBRANCH   1  22
TORSDOF 3
ENDMDL
MODEL 9
REMARK VINA RESULT:      -8.6      4.478     11.031
REMARK  Name = 
REMARK  3 active torsions:
REMARK  status: ('A' for Active; 'I' for Inactive)
REMARK    1  A    between atoms: C_2  and  C_12
REMARK    2  A    between atoms: N_3  and  C_4
REMARK    3  A    between atoms: C_19  and  C_20
REMARK                            x       y       z     vdW  Elec       q    Type
REMARK                         _______ _______ _______ _____ _____    ______ ____
ROOT
ATOM      1  C   UNL     1      -0.852  12.154  20.985  0.00  0.00    +0.000 A 
ATOM      2  C   UNL     1      -0.749  11.236  22.070  0.00  0.00    +0.000 A 
ATOM      3  C   UNL     1      -0.048  10.132  21.645  0.00  0.00    +0.000 A 
ATOM      4  C   UNL     1       0.331   8.935  22.302  0.00  0.00    +0.000 A 
ATOM      5  C   UNL     1       1.060   8.012  21.662  0.00  0.00    +0.000 A 
ATOM      6  C   UNL     1       1.488   8.225  20.272  0.00  0.00    +0.000 A 
ATOM      7  C   UNL     1       2.258   7.266  19.618  0.00  0.00    +0.000 A 
ATOM      8  C   UNL     1       2.677   7.454  18.285  0.00  0.00    +0.000 A 
ATOM      9  C   UNL     1       2.301   8.650  17.649  0.00  0.00    +0.000 A 
ATOM     10  C   UNL     1       1.529   9.624  18.286  0.00  0.00    +0.000 A 
ATOM     11  C   UNL     1       1.117   9.405  19.601  0.00  0.00    +0.000 A 
ATOM     12  N   UNL     1       0.329  10.340  20.326  0.00  0.00    +0.000 N 
ATOM     13  C   UNL     1      -0.178  11.565  19.921  0.00  0.00    +0.000 A 
ENDROOT
BRANCH   8  14
ATOM     14  C   UNL     1       3.486   6.439  17.588  0.00  0.00    +0.000 A 
ATOM     15  C   UNL     1       3.233   5.064  17.759  0.00  0.00    +0.000 A 
ATOM     16  C   UNL     1       4.059   4.101  17.185  0.00  0.00    +0.000 A 
ATOM     17  C   UNL     1       5.129   4.504  16.403  0.00  0.00    +0.000 A 
ATOM     18  F   UNL     1       5.952   3.579  15.884  0.00  0.00    +0.000 F 
ATOM     19  C   UNL     1       5.380   5.847  16.166  0.00  0.00    +0.000 A 
ATOM     20  C   UNL     1       4.561   6.808  16.755  0.00  0.00    +0.000 A 
ENDBRANCH   8  14
BRANCH   1  22
ATOM     21  O   UNL     1      -1.512  14.231  20.106  0.00  0.00    +0.000 OA
ATOM     22  C   UNL     1      -1.520  13.453  21.059  0.00  0.00    +0.000 C 
ATOM     23  N   UNL     1      -2.144  13.752  22.248  0.00  0.00    +0.000 N 
ATOM     24  H   UNL     1      -1.905  13.190  23.053  0.00  0.00    +0.000 HD
BRANCH  23  25
ATOM     25  C   UNL     1      -2.802  15.041  22.452  0.00  0.00    +0.000 C 
ATOM     26  C   UNL     1      -4.110  14.916  23.278  0.00  0.00    +0.000 C 
ATOM     27  N   UNL     1      -4.114  15.798  24.473  0.00  0.00    +0.000 NA
ATOM     28  C   UNL     1      -2.964  15.442  25.332  0.00  0.00    +0.000 C 
ATOM     29  C   UNL     1      -1.624  15.613  24.599  0.00  0.00    +0.000 C 
ATOM     30  C   UNL     1      -1.882  16.070  23.154  0.00  0.00    +0.000 C 
ATOM     31  C   UNL     1      -2.651  17.405  23.240  0.00  0.00    +0.000 C 
ATOM     32  C   UNL     1      -3.956  17.201  24.028  0.00  0.00    +0.000 C 
ENDBRANCH  23  25
ENDBRANCH   1  22
TORSDOF 3
ENDMDL
