MODEL 1
REMARK VINA RESULT:      -8.6      0.000      0.000
REMARK  Name = 
REMARK  6 active torsions:
REMARK  status: ('A' for Active; 'I' for Inactive)
REMARK    1  A    between atoms: C_1  and  C_2
REMARK    2  A    between atoms: C_2  and  S_3
REMARK    3  A    between atoms: S_3  and  C_6
REMARK    4  A    between atoms: C_10  and  C_11
REMARK    5  A    between atoms: N_13  and  C_14
REMARK    6  A    between atoms: N_22  and  C_23
REMARK                            x       y       z     vdW  Elec       q    Type
REMARK                         _______ _______ _______ _____ _____    ______ ____
ROOT
ATOM      1  C   UNL     1       2.106   8.234  18.378  0.00  0.00    +0.000 C 
ATOM      2  O   UNL     1       2.552   8.592  17.286  0.00  0.00    +0.000 OA
ATOM      3  N   UNL     1       2.399   6.969  18.930  0.00  0.00    +0.000 N 
ATOM      4  H   UNL     1       1.635   6.534  19.435  0.00  0.00    +0.000 HD
ENDROOT
BRANCH   3   5
ATOM      5  C   UNL     1       3.240   6.085  18.134  0.00  0.00    +0.000 A 
ATOM      6  C   UNL     1       2.666   4.839  17.818  0.00  0.00    +0.000 A 
ATOM      7  C   UNL     1       3.411   3.663  17.954  0.00  0.00    +0.000 A 
ATOM      8  C   UNL     1       4.657   3.731  18.576  0.00  0.00    +0.000 A 
ATOM      9  C   UNL     1       5.159   4.986  18.959  0.00  0.00    +0.000 A 
ATOM     10  C   UNL     1       4.619   6.117  18.369  0.00  0.00    +0.000 A 
ATOM     11  C   UNL     1       5.690   6.290  17.280  0.00  0.00    +0.000 C 
ATOM     12  O   UNL     1       5.491   6.799  16.189  0.00  0.00    +0.000 OA
ATOM     13  N   UNL     1       6.844   5.640  17.701  0.00  0.00    +0.000 N 
ATOM     14  C   UNL     1       7.492   4.627  16.874  0.00  0.00    +0.000 C 
ATOM     15  C   UNL     1       6.583   5.225  18.962  0.00  0.00    +0.000 C 
ATOM     16  O   UNL     1       7.256   5.359  19.969  0.00  0.00    +0.000 OA
ENDBRANCH   3   5
BRANCH   1  21
ATOM     17  C   UNL     1      -0.570  10.879  19.230  0.00  0.00    +0.000 A 
ATOM     18  C   UNL     1      -0.599  10.763  20.632  0.00  0.00    +0.000 A 
ATOM     19  C   UNL     1       0.264   9.860  21.246  0.00  0.00    +0.000 A 
ATOM     20  C   UNL     1       1.138   9.102  20.479  0.00  0.00    +0.000 A 
ATOM     21  C   UNL     1       1.190   9.207  19.061  0.00  0.00    +0.000 A 
ATOM     22  C   UNL     1       0.322  10.127  18.438  0.00  0.00    +0.000 A 
BRANCH  17  23
ATOM     23  S   UNL     1      -1.636  12.110  18.501  0.00  0.00    +0.000 S 
ATOM     24  O   UNL     1      -0.766  13.168  18.023  0.00  0.00    +0.000 OA
ATOM     25  O   UNL     1      -2.670  12.375  19.483  0.00  0.00    +0.000 OA
BRANCH  23  27
ATOM     26  C   UNL     1      -3.881  11.106  17.291  0.00  0.00    +0.000 C 
ATOM     27  C   UNL     1      -2.389  11.318  17.086  0.00  0.00    +0.000 C 
ENDBRANCH  23  27
ENDBRANCH  17  23
ENDBRANCH   1  21
TORSDOF 4
ENDMDL
MODEL 2
REMARK VINA RESULT:      -8.5      0.933      1.150
REMARK  Name = 
REMARK  6 active torsions:
REMARK  status: ('A' for Active; 'I' for Inactive)
REMARK    1  A    between atoms: C_1  and  C_2
REMARK    2  A    between atoms: C_2  and  S_3
REMARK    3  A    between atoms: S_3  and  C_6
REMARK    4  A    between atoms: C_10  and  C_11
REMARK    5  A    between atoms: N_13  and  C_14
REMARK    6  A    between atoms: N_22  and  C_23
REMARK                            x       y       z     vdW  Elec       q    Type
REMARK                         _______ _______ _______ _____ _____    ______ ____
ROOT
ATOM      1  C   UNL     1       2.080   8.244  18.439  0.00  0.00    +0.000 C 
ATOM      2  O   UNL     1       2.481   8.600  17.329  0.00  0.00    +0.000 OA
ATOM      3  N   UNL     1       2.404   6.985  18.985  0.00  0.00    +0.000 N 
ATOM      4  H   UNL     1       1.664   6.545  19.521  0.00  0.00    +0.000 HD
ENDROOT
BRANCH   3   5
ATOM      5  C   UNL     1       3.222   6.103  18.162  0.00  0.00    +0.000 A 
ATOM      6  C   UNL     1       2.632   4.866  17.842  0.00  0.00    +0.000 A 
ATOM      7  C   UNL     1       3.368   3.682  17.949  0.00  0.00    +0.000 A 
ATOM      8  C   UNL     1       4.626   3.732  18.547  0.00  0.00    +0.000 A 
ATOM      9  C   UNL     1       5.146   4.978  18.936  0.00  0.00    +0.000 A 
ATOM     10  C   UNL     1       4.605   6.121  18.371  0.00  0.00    +0.000 A 
ATOM     11  C   UNL     1       5.657   6.298  17.264  0.00  0.00    +0.000 C 
ATOM     12  O   UNL     1       5.441   6.823  16.183  0.00  0.00    +0.000 OA
ATOM     13  N   UNL     1       6.813   5.633  17.654  0.00  0.00    +0.000 N 
ATOM     14  C   UNL     1       7.437   4.625  16.802  0.00  0.00    +0.000 C 
ATOM     15  C   UNL     1       6.573   5.205  18.915  0.00  0.00    +0.000 C 
ATOM     16  O   UNL     1       7.266   5.320  19.910  0.00  0.00    +0.000 OA
ENDBRANCH   3   5
BRANCH   1  21
ATOM     17  C   UNL     1      -0.504  10.954  19.367  0.00  0.00    +0.000 A 
ATOM     18  C   UNL     1      -0.597  10.746  20.755  0.00  0.00    +0.000 A 
ATOM     19  C   UNL     1       0.196   9.762  21.339  0.00  0.00    +0.000 A 
ATOM     20  C   UNL     1       1.066   9.015  20.556  0.00  0.00    +0.000 A 
ATOM     21  C   UNL     1       1.182   9.213  19.151  0.00  0.00    +0.000 A 
ATOM     22  C   UNL     1       0.385  10.214  18.560  0.00  0.00    +0.000 A 
BRANCH  17  23
ATOM     23  S   UNL     1      -1.480  12.283  18.684  0.00  0.00    +0.000 S 
ATOM     24  O   UNL     1      -2.459  11.661  17.814  0.00  0.00    +0.000 OA
ATOM     25  O   UNL     1      -0.529  13.253  18.172  0.00  0.00    +0.000 OA
BRANCH  23  27
ATOM     26  C   UNL     1      -3.823  12.674  20.051  0.00  0.00    +0.000 C 
ATOM     27  C   UNL     1      -2.340  13.011  20.072  0.00  0.00    +0.000 C 
ENDBRANCH  23  27
ENDBRANCH  17  23
ENDBRANCH   1  21
TORSDOF 4
ENDMDL
MODEL 3
REMARK VINA RESULT:      -8.3      1.072      1.510
REMARK  Name = 
REMARK  6 active torsions:
REMARK  status: ('A' for Active; 'I' for Inactive)
REMARK    1  A    between atoms: C_1  and  C_2
REMARK    2  A    between atoms: C_2  and  S_3
REMARK    3  A    between atoms: S_3  and  C_6
REMARK    4  A    between atoms: C_10  and  C_11
REMARK    5  A    between atoms: N_13  and  C_14
REMARK    6  A    between atoms: N_22  and  C_23
REMARK                            x       y       z     vdW  Elec       q    Type
REMARK                         _______ _______ _______ _____ _____    ______ ____
ROOT
ATOM      1  C   UNL     1       2.007   8.293  18.563  0.00  0.00    +0.000 C 
ATOM      2  O   UNL     1       2.337   8.657  17.432  0.00  0.00    +0.000 OA
ATOM      3  N   UNL     1       2.383   7.039  19.088  0.00  0.00    +0.000 N 
ATOM      4  H   UNL     1       1.683   6.587  19.664  0.00  0.00    +0.000 HD
ENDROOT
BRANCH   3   5
ATOM      5  C   UNL     1       3.166   6.172  18.216  0.00  0.00    +0.000 A 
ATOM      6  C   UNL     1       2.544   4.960  17.863  0.00  0.00    +0.000 A 
ATOM      7  C   UNL     1       3.257   3.758  17.912  0.00  0.00    +0.000 A 
ATOM      8  C   UNL     1       4.527   3.760  18.487  0.00  0.00    +0.000 A 
ATOM      9  C   UNL     1       5.081   4.980  18.910  0.00  0.00    +0.000 A 
ATOM     10  C   UNL     1       4.554   6.154  18.398  0.00  0.00    +0.000 A 
ATOM     11  C   UNL     1       5.587   6.350  17.277  0.00  0.00    +0.000 C 
ATOM     12  O   UNL     1       5.362   6.919  16.221  0.00  0.00    +0.000 OA
ATOM     13  N   UNL     1       6.737   5.648  17.619  0.00  0.00    +0.000 N 
ATOM     14  C   UNL     1       7.322   4.659  16.719  0.00  0.00    +0.000 C 
ATOM     15  C   UNL     1       6.512   5.178  18.868  0.00  0.00    +0.000 C 
ATOM     16  O   UNL     1       7.226   5.242  19.853  0.00  0.00    +0.000 OA
ENDBRANCH   3   5
BRANCH   1  21
ATOM     17  C   UNL     1      -0.561  10.961  19.645  0.00  0.00    +0.000 A 
ATOM     18  C   UNL     1      -0.572  10.748  21.036  0.00  0.00    +0.000 A 
ATOM     19  C   UNL     1       0.267   9.775  21.570  0.00  0.00    +0.000 A 
ATOM     20  C   UNL     1       1.103   9.044  20.737  0.00  0.00    +0.000 A 
ATOM     21  C   UNL     1       1.136   9.246  19.328  0.00  0.00    +0.000 A 
ATOM     22  C   UNL     1       0.292  10.237  18.787  0.00  0.00    +0.000 A 
BRANCH  17  23
ATOM     23  S   UNL     1      -1.594  12.276  19.023  0.00  0.00    +0.000 S 
ATOM     24  O   UNL     1      -2.874  12.136  19.690  0.00  0.00    +0.000 OA
ATOM     25  O   UNL     1      -1.490  12.214  17.577  0.00  0.00    +0.000 OA
BRANCH  23  27
ATOM     26  C   UNL     1       0.398  14.139  18.754  0.00  0.00    +0.000 C 
ATOM     27  C   UNL     1      -0.830  13.793  19.581  0.00  0.00    +0.000 C 
ENDBRANCH  23  27
ENDBRANCH  17  23
ENDBRANCH   1  21
TORSDOF 4
ENDMDL
MODEL 4
REMARK VINA RESULT:      -8.3      1.564      1.818
REMARK  Name = 
REMARK  6 active torsions:
REMARK  status: ('A' for Active; 'I' for Inactive)
REMARK    1  A    between atoms: C_1  and  C_2
REMARK    2  A    between atoms: C_2  and  S_3
REMARK    3  A    between atoms: S_3  and  C_6
REMARK    4  A    between atoms: C_10  and  C_11
REMARK    5  A    between atoms: N_13  and  C_14
REMARK    6  A    between atoms: N_22  and  C_23
REMARK                            x       y       z     vdW  Elec       q    Type
REMARK                         _______ _______ _______ _____ _____    ______ ____
ROOT
ATOM      1  C   UNL     1       2.111   7.992  18.843  0.00  0.00    +0.000 C 
ATOM      2  O   UNL     1       2.043   8.442  17.698  0.00  0.00    +0.000 OA
ATOM      3  N   UNL     1       2.701   6.743  19.126  0.00  0.00    +0.000 N 
ATOM      4  H   UNL     1       2.246   6.208  19.857  0.00  0.00    +0.000 HD
ENDROOT
BRANCH   3   5
ATOM      5  C   UNL     1       3.210   5.986  17.990  0.00  0.00    +0.000 A 
ATOM      6  C   UNL     1       2.440   4.867  17.623  0.00  0.00    +0.000 A 
ATOM      7  C   UNL     1       3.059   3.644  17.343  0.00  0.00    +0.000 A 
ATOM      8  C   UNL     1       4.420   3.509  17.610  0.00  0.00    +0.000 A 
ATOM      9  C   UNL     1       5.139   4.629  18.061  0.00  0.00    +0.000 A 
ATOM     10  C   UNL     1       4.599   5.886  17.848  0.00  0.00    +0.000 A 
ATOM     11  C   UNL     1       5.375   6.207  16.561  0.00  0.00    +0.000 C 
ATOM     12  O   UNL     1       4.967   6.937  15.672  0.00  0.00    +0.000 OA
ATOM     13  N   UNL     1       6.518   5.417  16.535  0.00  0.00    +0.000 N 
ATOM     14  C   UNL     1       6.820   4.553  15.398  0.00  0.00    +0.000 C 
ATOM     15  C   UNL     1       6.537   4.774  17.725  0.00  0.00    +0.000 C 
ATOM     16  O   UNL     1       7.451   4.661  18.522  0.00  0.00    +0.000 OA
ENDBRANCH   3   5
BRANCH   1  21
ATOM     17  C   UNL     1       0.327  10.759  20.855  0.00  0.00    +0.000 A 
ATOM     18  C   UNL     1       0.113  10.086  22.071  0.00  0.00    +0.000 A 
ATOM     19  C   UNL     1       0.577   8.780  22.204  0.00  0.00    +0.000 A 
ATOM     20  C   UNL     1       1.246   8.170  21.151  0.00  0.00    +0.000 A 
ATOM     21  C   UNL     1       1.479   8.834  19.914  0.00  0.00    +0.000 A 
ATOM     22  C   UNL     1       1.017  10.159  19.782  0.00  0.00    +0.000 A 
BRANCH  17  23
ATOM     23  S   UNL     1      -0.213  12.458  20.768  0.00  0.00    +0.000 S 
ATOM     24  O   UNL     1       0.379  13.130  21.910  0.00  0.00    +0.000 OA
ATOM     25  O   UNL     1      -1.651  12.410  20.588  0.00  0.00    +0.000 OA
BRANCH  23  27
ATOM     26  C   UNL     1      -0.482  13.190  18.141  0.00  0.00    +0.000 C 
ATOM     27  C   UNL     1       0.524  13.121  19.280  0.00  0.00    +0.000 C 
ENDBRANCH  23  27
ENDBRANCH  17  23
ENDBRANCH   1  21
TORSDOF 4
ENDMDL
MODEL 5
REMARK VINA RESULT:      -8.3      1.095      1.178
REMARK  Name = 
REMARK  6 active torsions:
REMARK  status: ('A' for Active; 'I' for Inactive)
REMARK    1  A    between atoms: C_1  and  C_2
REMARK    2  A    between atoms: C_2  and  S_3
REMARK    3  A    between atoms: S_3  and  C_6
REMARK    4  A    between atoms: C_10  and  C_11
REMARK    5  A    between atoms: N_13  and  C_14
REMARK    6  A    between atoms: N_22  and  C_23
REMARK                            x       y       z     vdW  Elec       q    Type
REMARK                         _______ _______ _______ _____ _____    ______ ____
ROOT
ATOM      1  C   UNL     1       2.159   8.069  18.579  0.00  0.00    +0.000 C 
ATOM      2  O   UNL     1       2.301   8.497  17.432  0.00  0.00    +0.000 OA
ATOM      3  N   UNL     1       2.600   6.785  18.962  0.00  0.00    +0.000 N 
ATOM      4  H   UNL     1       1.999   6.303  19.620  0.00  0.00    +0.000 HD
ENDROOT
BRANCH   3   5
ATOM      5  C   UNL     1       3.214   5.967  17.924  0.00  0.00    +0.000 A 
ATOM      6  C   UNL     1       2.518   4.787  17.601  0.00  0.00    +0.000 A 
ATOM      7  C   UNL     1       3.204   3.576  17.460  0.00  0.00    +0.000 A 
ATOM      8  C   UNL     1       4.549   3.526  17.822  0.00  0.00    +0.000 A 
ATOM      9  C   UNL     1       5.189   4.710  18.225  0.00  0.00    +0.000 A 
ATOM     10  C   UNL     1       4.612   5.921  17.878  0.00  0.00    +0.000 A 
ATOM     11  C   UNL     1       5.458   6.177  16.620  0.00  0.00    +0.000 C 
ATOM     12  O   UNL     1       5.078   6.815  15.651  0.00  0.00    +0.000 OA
ATOM     13  N   UNL     1       6.631   5.441  16.729  0.00  0.00    +0.000 N 
ATOM     14  C   UNL     1       7.044   4.506  15.687  0.00  0.00    +0.000 C 
ATOM     15  C   UNL     1       6.599   4.895  17.966  0.00  0.00    +0.000 C 
ATOM     16  O   UNL     1       7.462   4.887  18.825  0.00  0.00    +0.000 OA
ENDBRANCH   3   5
BRANCH   1  21
ATOM     17  C   UNL     1       0.088  10.883  20.215  0.00  0.00    +0.000 A 
ATOM     18  C   UNL     1      -0.051  10.368  21.516  0.00  0.00    +0.000 A 
ATOM     19  C   UNL     1       0.552   9.151  21.822  0.00  0.00    +0.000 A 
ATOM     20  C   UNL     1       1.282   8.474  20.854  0.00  0.00    +0.000 A 
ATOM     21  C   UNL     1       1.441   8.979  19.532  0.00  0.00    +0.000 A 
ATOM     22  C   UNL     1       0.838  10.216  19.225  0.00  0.00    +0.000 A 
BRANCH  17  23
ATOM     23  S   UNL     1      -0.632  12.485  19.901  0.00  0.00    +0.000 S 
ATOM     24  O   UNL     1      -0.046  12.958  18.662  0.00  0.00    +0.000 OA
ATOM     25  O   UNL     1      -0.487  13.236  21.135  0.00  0.00    +0.000 OA
BRANCH  23  27
ATOM     26  C   UNL     1      -2.620  11.544  18.266  0.00  0.00    +0.000 C 
ATOM     27  C   UNL     1      -2.373  12.184  19.623  0.00  0.00    +0.000 C 
ENDBRANCH  23  27
ENDBRANCH  17  23
ENDBRANCH   1  21
TORSDOF 4
ENDMDL
MODEL 6
REMARK VINA RESULT:      -8.2      1.882      2.044
REMARK  Name = 
REMARK  6 active torsions:
REMARK  status: ('A' for Active; 'I' for Inactive)
REMARK    1  A    between atoms: C_1  and  C_2
REMARK    2  A    between atoms: C_2  and  S_3
REMARK    3  A    between atoms: S_3  and  C_6
REMARK    4  A    between atoms: C_10  and  C_11
REMARK    5  A    between atoms: N_13  and  C_14
REMARK    6  A    between atoms: N_22  and  C_23
REMARK                            x       y       z     vdW  Elec       q    Type
REMARK                         _______ _______ _______ _____ _____    ______ ____
ROOT
ATOM      1  C   UNL     1       1.718   8.193  19.803  0.00  0.00    +0.000 C 
ATOM      2  O   UNL     1       1.861   8.612  18.652  0.00  0.00    +0.000 OA
ATOM      3  N   UNL     1       2.145   6.906  20.192  0.00  0.00    +0.000 N 
ATOM      4  H   UNL     1       1.541   6.435  20.855  0.00  0.00    +0.000 HD
ENDROOT
BRANCH   3   5
ATOM      5  C   UNL     1       2.748   6.075  19.158  0.00  0.00    +0.000 A 
ATOM      6  C   UNL     1       2.104   4.845  18.928  0.00  0.00    +0.000 A 
ATOM      7  C   UNL     1       2.849   3.669  18.801  0.00  0.00    +0.000 A 
ATOM      8  C   UNL     1       4.213   3.710  19.088  0.00  0.00    +0.000 A 
ATOM      9  C   UNL     1       4.806   4.945  19.401  0.00  0.00    +0.000 A 
ATOM     10  C   UNL     1       4.142   6.104  19.035  0.00  0.00    +0.000 A 
ATOM     11  C   UNL     1       4.902   6.346  17.720  0.00  0.00    +0.000 C 
ATOM     12  O   UNL     1       4.434   6.916  16.747  0.00  0.00    +0.000 OA
ATOM     13  N   UNL     1       6.120   5.682  17.795  0.00  0.00    +0.000 N 
ATOM     14  C   UNL     1       6.528   4.723  16.773  0.00  0.00    +0.000 C 
ATOM     15  C   UNL     1       6.186   5.193  19.055  0.00  0.00    +0.000 C 
ATOM     16  O   UNL     1       7.094   5.274  19.863  0.00  0.00    +0.000 OA
ENDBRANCH   3   5
BRANCH   1  21
ATOM     17  C   UNL     1       0.091  11.223  21.552  0.00  0.00    +0.000 A 
ATOM     18  C   UNL     1      -0.594  10.571  22.594  0.00  0.00    +0.000 A 
ATOM     19  C   UNL     1      -0.481   9.189  22.708  0.00  0.00    +0.000 A 
ATOM     20  C   UNL     1       0.305   8.479  21.810  0.00  0.00    +0.000 A 
ATOM     21  C   UNL     1       1.012   9.117  20.752  0.00  0.00    +0.000 A 
ATOM     22  C   UNL     1       0.905  10.518  20.640  0.00  0.00    +0.000 A 
BRANCH  17  23
ATOM     23  S   UNL     1      -0.021  13.003  21.503  0.00  0.00    +0.000 S 
ATOM     24  O   UNL     1       1.340  13.496  21.584  0.00  0.00    +0.000 OA
ATOM     25  O   UNL     1      -1.013  13.367  22.497  0.00  0.00    +0.000 OA
BRANCH  23  27
ATOM     26  C   UNL     1      -1.990  12.691  19.621  0.00  0.00    +0.000 C 
ATOM     27  C   UNL     1      -0.669  13.399  19.884  0.00  0.00    +0.000 C 
ENDBRANCH  23  27
ENDBRANCH  17  23
ENDBRANCH   1  21
TORSDOF 4
ENDMDL
MODEL 7
REMARK VINA RESULT:      -8.2      1.566      1.868
REMARK  Name = 
REMARK  6 active torsions:
REMARK  status: ('A' for Active; 'I' for Inactive)
REMARK    1  A    between atoms: C_1  and  C_2
REMARK    2  A    between atoms: C_2  and  S_3
REMARK    3  A    between atoms: S_3  and  C_6
REMARK    4  A    between atoms: C_10  and  C_11
REMARK    5  A    between atoms: N_13  and  C_14
REMARK    6  A    between atoms: N_22  and  C_23
REMARK                            x       y       z     vdW  Elec       q    Type
REMARK                         _______ _______ _______ _____ _____    ______ ____
ROOT
ATOM      1  C   UNL     1       1.732   8.157  19.693  0.00  0.00    +0.000 C 
ATOM      2  O   UNL     1       1.869   8.535  18.528  0.00  0.00    +0.000 OA
ATOM      3  N   UNL     1       2.190   6.898  20.134  0.00  0.00    +0.000 N 
ATOM      4  H   UNL     1       1.596   6.437  20.813  0.00  0.00    +0.000 HD
ENDROOT
BRANCH   3   5
ATOM      5  C   UNL     1       2.819   6.044  19.135  0.00  0.00    +0.000 A 
ATOM      6  C   UNL     1       2.196   4.797  18.936  0.00  0.00    +0.000 A 
ATOM      7  C   UNL     1       2.961   3.629  18.857  0.00  0.00    +0.000 A 
ATOM      8  C   UNL     1       4.320   3.700  19.160  0.00  0.00    +0.000 A 
ATOM      9  C   UNL     1       4.890   4.953  19.440  0.00  0.00    +0.000 A 
ATOM     10  C   UNL     1       4.214   6.090  19.028  0.00  0.00    +0.000 A 
ATOM     11  C   UNL     1       4.987   6.301  17.717  0.00  0.00    +0.000 C 
ATOM     12  O   UNL     1       4.524   6.833  16.720  0.00  0.00    +0.000 OA
ATOM     13  N   UNL     1       6.214   5.658  17.828  0.00  0.00    +0.000 N 
ATOM     14  C   UNL     1       6.649   4.674  16.843  0.00  0.00    +0.000 C 
ATOM     15  C   UNL     1       6.271   5.212  19.104  0.00  0.00    +0.000 C 
ATOM     16  O   UNL     1       7.167   5.332  19.920  0.00  0.00    +0.000 OA
ENDBRANCH   3   5
BRANCH   1  21
ATOM     17  C   UNL     1      -0.477  10.942  21.195  0.00  0.00    +0.000 A 
ATOM     18  C   UNL     1      -0.480  10.557  22.547  0.00  0.00    +0.000 A 
ATOM     19  C   UNL     1       0.252   9.434  22.925  0.00  0.00    +0.000 A 
ATOM     20  C   UNL     1       0.975   8.724  21.976  0.00  0.00    +0.000 A 
ATOM     21  C   UNL     1       0.998   9.099  20.603  0.00  0.00    +0.000 A 
ATOM     22  C   UNL     1       0.264  10.240  20.221  0.00  0.00    +0.000 A 
BRANCH  17  23
ATOM     23  S   UNL     1      -1.361  12.435  20.779  0.00  0.00    +0.000 S 
ATOM     24  O   UNL     1      -1.680  13.081  22.038  0.00  0.00    +0.000 OA
ATOM     25  O   UNL     1      -2.406  12.035  19.855  0.00  0.00    +0.000 OA
BRANCH  23  27
ATOM     26  C   UNL     1      -0.407  13.395  18.396  0.00  0.00    +0.000 C 
ATOM     27  C   UNL     1      -0.189  13.460  19.900  0.00  0.00    +0.000 C 
ENDBRANCH  23  27
ENDBRANCH  17  23
ENDBRANCH   1  21
TORSDOF 4
ENDMDL
MODEL 8
REMARK VINA RESULT:      -8.1      1.691      2.370
REMARK  Name = 
REMARK  6 active torsions:
REMARK  status: ('A' for Active; 'I' for Inactive)
REMARK    1  A    between atoms: C_1  and  C_2
REMARK    2  A    between atoms: C_2  and  S_3
REMARK    3  A    between atoms: S_3  and  C_6
REMARK    4  A    between atoms: C_10  and  C_11
REMARK    5  A    between atoms: N_13  and  C_14
REMARK    6  A    between atoms: N_22  and  C_23
REMARK                            x       y       z     vdW  Elec       q    Type
REMARK                         _______ _______ _______ _____ _____    ______ ____
ROOT
ATOM      1  C   UNL     1       2.010   8.207  18.049  0.00  0.00    +0.000 C 
ATOM      2  O   UNL     1       2.524   8.520  16.973  0.00  0.00    +0.000 OA
ATOM      3  N   UNL     1       2.293   6.982  18.689  0.00  0.00    +0.000 N 
ATOM      4  H   UNL     1       1.507   6.552  19.161  0.00  0.00    +0.000 HD
ENDROOT
BRANCH   3   5
ATOM      5  C   UNL     1       3.211   6.081  18.003  0.00  0.00    +0.000 A 
ATOM      6  C   UNL     1       2.690   4.807  17.709  0.00  0.00    +0.000 A 
ATOM      7  C   UNL     1       3.447   3.658  17.960  0.00  0.00    +0.000 A 
ATOM      8  C   UNL     1       4.640   3.788  18.668  0.00  0.00    +0.000 A 
ATOM      9  C   UNL     1       5.085   5.073  19.023  0.00  0.00    +0.000 A 
ATOM     10  C   UNL     1       4.567   6.160  18.338  0.00  0.00    +0.000 A 
ATOM     11  C   UNL     1       5.714   6.306  17.325  0.00  0.00    +0.000 C 
ATOM     12  O   UNL     1       5.587   6.756  16.197  0.00  0.00    +0.000 OA
ATOM     13  N   UNL     1       6.847   5.707  17.863  0.00  0.00    +0.000 N 
ATOM     14  C   UNL     1       7.577   4.671  17.139  0.00  0.00    +0.000 C 
ATOM     15  C   UNL     1       6.500   5.348  19.121  0.00  0.00    +0.000 C 
ATOM     16  O   UNL     1       7.091   5.548  20.167  0.00  0.00    +0.000 OA
ENDBRANCH   3   5
BRANCH   1  21
ATOM     17  C   UNL     1       0.154  10.840  20.173  0.00  0.00    +0.000 A 
ATOM     18  C   UNL     1      -0.894  11.174  19.296  0.00  0.00    +0.000 A 
ATOM     19  C   UNL     1      -0.978  10.518  18.072  0.00  0.00    +0.000 A 
ATOM     20  C   UNL     1      -0.043   9.547  17.738  0.00  0.00    +0.000 A 
ATOM     21  C   UNL     1       1.023   9.188  18.611  0.00  0.00    +0.000 A 
ATOM     22  C   UNL     1       1.103   9.846  19.855  0.00  0.00    +0.000 A 
BRANCH  17  23
ATOM     23  S   UNL     1       0.165  11.650  21.762  0.00  0.00    +0.000 S 
ATOM     24  O   UNL     1       1.112  12.743  21.654  0.00  0.00    +0.000 OA
ATOM     25  O   UNL     1       0.343  10.597  22.744  0.00  0.00    +0.000 OA
BRANCH  23  27
ATOM     26  C   UNL     1      -2.164  11.789  23.200  0.00  0.00    +0.000 C 
ATOM     27  C   UNL     1      -1.472  12.340  21.963  0.00  0.00    +0.000 C 
ENDBRANCH  23  27
ENDBRANCH  17  23
ENDBRANCH   1  21
TORSDOF 4
ENDMDL
MODEL 9
REMARK VINA RESULT:      -8.1      5.529      8.176
REMARK  Name = 
REMARK  6 active torsions:
REMARK  status: ('A' for Active; 'I' for Inactive)
REMARK    1  A    between atoms: C_1  and  C_2
REMARK    2  A    between atoms: C_2  and  S_3
REMARK    3  A    between atoms: S_3  and  C_6
REMARK    4  A    between atoms: C_10  and  C_11
REMARK    5  A    between atoms: N_13  and  C_14
REMARK    6  A    between atoms: N_22  and  C_23
REMARK                            x       y       z     vdW  Elec       q    Type
REMARK                         _______ _______ _______ _____ _____    ______ ____
ROOT
ATOM      1  C   UNL     1       8.110   8.533  18.151  0.00  0.00    +0.000 C 
ATOM      2  O   UNL     1       8.687   7.796  18.952  0.00  0.00    +0.000 OA
ATOM      3  N   UNL     1       7.130   8.052  17.258  0.00  0.00    +0.000 N 
ATOM      4  H   UNL     1       7.138   8.480  16.339  0.00  0.00    +0.000 HD
ENDROOT
BRANCH   3   5
ATOM      5  C   UNL     1       6.844   6.624  17.307  0.00  0.00    +0.000 A 
ATOM      6  C   UNL     1       7.282   5.888  16.190  0.00  0.00    +0.000 A 
ATOM      7  C   UNL     1       6.440   4.945  15.590  0.00  0.00    +0.000 A 
ATOM      8  C   UNL     1       5.110   4.882  16.002  0.00  0.00    +0.000 A 
ATOM      9  C   UNL     1       4.686   5.698  17.064  0.00  0.00    +0.000 A 
ATOM     10  C   UNL     1       5.647   6.224  17.912  0.00  0.00    +0.000 A 
ATOM     11  C   UNL     1       5.534   5.153  19.009  0.00  0.00    +0.000 C 
ATOM     12  O   UNL     1       6.449   4.819  19.745  0.00  0.00    +0.000 OA
ATOM     13  N   UNL     1       4.286   4.552  18.902  0.00  0.00    +0.000 N 
ATOM     14  C   UNL     1       4.145   3.106  18.769  0.00  0.00    +0.000 C 
ATOM     15  C   UNL     1       3.632   5.251  17.945  0.00  0.00    +0.000 C 
ATOM     16  O   UNL     1       2.511   5.726  17.972  0.00  0.00    +0.000 OA
ENDBRANCH   3   5
BRANCH   1  21
ATOM     17  C   UNL     1      10.077  11.838  18.467  0.00  0.00    +0.000 A 
ATOM     18  C   UNL     1       9.212  12.710  17.783  0.00  0.00    +0.000 A 
ATOM     19  C   UNL     1       8.019  12.206  17.273  0.00  0.00    +0.000 A 
ATOM     20  C   UNL     1       7.696  10.867  17.453  0.00  0.00    +0.000 A 
ATOM     21  C   UNL     1       8.553   9.968  18.148  0.00  0.00    +0.000 A 
ATOM     22  C   UNL     1       9.758  10.479  18.672  0.00  0.00    +0.000 A 
BRANCH  17  23
ATOM     23  S   UNL     1      11.552  12.553  19.173  0.00  0.00    +0.000 S 
ATOM     24  O   UNL     1      12.333  13.053  18.058  0.00  0.00    +0.000 OA
ATOM     25  O   UNL     1      12.087  11.553  20.077  0.00  0.00    +0.000 OA
BRANCH  23  27
ATOM     26  C   UNL     1      10.064  13.516  21.263  0.00  0.00    +0.000 C 
ATOM     27  C   UNL     1      10.993  13.950  20.140  0.00  0.00    +0.000 C 
ENDBRANCH  23  27
ENDBRANCH  17  23
ENDBRANCH   1  21
TORSDOF 4
ENDMDL
