MODEL 1
REMARK VINA RESULT:      -7.3      0.000      0.000
REMARK  Name = 
REMARK  17 active torsions:
REMARK  status: ('A' for Active; 'I' for Inactive)
REMARK    1  A    between atoms: C_1  and  C_2
REMARK    2  A    between atoms: C_2  and  C_3
REMARK    3  A    between atoms: C_2  and  C_4
REMARK    4  A    between atoms: C_6  and  C_7
REMARK    5  A    between atoms: C_10  and  O_11
REMARK    6  A    between atoms: O_11  and  C_12
REMARK    7  A    between atoms: C_12  and  C_13
REMARK    8  A    between atoms: C_13  and  O_15
REMARK    9  A    between atoms: C_16  and  C_17
REMARK   10  A    between atoms: C_17  and  C_18
REMARK   11  A    between atoms: C_17  and  C_19
REMARK   12  A    between atoms: C_23  and  O_24
REMARK   13  A    between atoms: O_24  and  C_25
REMARK   14  A    between atoms: C_25  and  C_26
REMARK   15  A    between atoms: C_26  and  N_27
REMARK   16  A    between atoms: N_27  and  C_28
REMARK   17  A    between atoms: N_27  and  C_29
REMARK                            x       y       z     vdW  Elec       q    Type
REMARK                         _______ _______ _______ _____ _____    ______ ____
ROOT
ATOM      1  C   UNL     1       0.882   9.410  20.274  0.00  0.00    +0.000 A 
ATOM      2  C   UNL     1       1.539   8.251  19.782  0.00  0.00    +0.000 A 
ATOM      3  C   UNL     1       2.118   8.170  18.505  0.00  0.00    +0.000 A 
ATOM      4  C   UNL     1       1.922   9.256  17.660  0.00  0.00    +0.000 A 
ATOM      5  C   UNL     1       1.204  10.374  18.084  0.00  0.00    +0.000 A 
ATOM      6  C   UNL     1       0.656  10.467  19.377  0.00  0.00    +0.000 A 
ENDROOT
BRANCH   3   7
ATOM      7  C   UNL     1       3.030   7.073  18.117  0.00  0.00    +0.000 A 
ATOM      8  C   UNL     1       4.252   7.352  17.499  0.00  0.00    +0.000 A 
ATOM      9  C   UNL     1       5.020   6.337  16.929  0.00  0.00    +0.000 A 
ATOM     10  C   UNL     1       4.580   5.004  16.913  0.00  0.00    +0.000 A 
ATOM     11  C   UNL     1       3.421   4.666  17.633  0.00  0.00    +0.000 A 
ATOM     12  C   UNL     1       2.675   5.724  18.222  0.00  0.00    +0.000 A 
BRANCH  11  13
ATOM     13  C   UNL     1       2.812   3.278  17.797  0.00  0.00    +0.000 C 
ATOM     14  C   UNL     1       3.669   2.386  18.699  0.00  0.00    +0.000 C 
ATOM     15  C   UNL     1       1.341   3.224  18.217  0.00  0.00    +0.000 C 
ENDBRANCH  11  13
BRANCH  10  16
ATOM     16  O   UNL     1       5.231   4.038  16.173  0.00  0.00    +0.000 OA
BRANCH  16  17
ATOM     17  C   UNL     1       5.219   4.284  14.754  0.00  0.00    +0.000 C 
BRANCH  17  18
ATOM     18  C   UNL     1       6.606   4.369  14.138  0.00  0.00    +0.000 C 
ATOM     19  O   UNL     1       7.475   5.130  14.521  0.00  0.00    +0.000 OA
BRANCH  18  20
ATOM     20  O   UNL     1       6.793   3.496  13.121  0.00  0.00    +0.000 OA
ATOM     21  H   UNL     1       7.730   3.525  12.831  0.00  0.00    +0.000 HD
ENDBRANCH  18  20
ENDBRANCH  17  18
ENDBRANCH  16  17
ENDBRANCH  10  16
ENDBRANCH   3   7
BRANCH   1  23
ATOM     22  C   UNL     1      -0.639   8.520  22.096  0.00  0.00    +0.000 C 
ATOM     23  C   UNL     1       0.526   9.453  21.760  0.00  0.00    +0.000 C 
ATOM     24  C   UNL     1       1.749   9.139  22.653  0.00  0.00    +0.000 C 
ENDBRANCH   1  23
BRANCH   6  25
ATOM     25  O   UNL     1      -0.105  11.568  19.764  0.00  0.00    +0.000 OA
BRANCH  25  26
ATOM     26  C   UNL     1      -1.517  11.326  19.594  0.00  0.00    +0.000 C 
BRANCH  26  27
ATOM     27  C   UNL     1      -2.168  11.857  18.306  0.00  0.00    +0.000 C 
BRANCH  27  28
ATOM     28  N   UNL     1      -3.037  10.823  17.669  0.00  0.00    +0.000 NA
ATOM     29  C   UNL     1      -4.103  11.403  16.848  0.00  0.00    +0.000 C 
ATOM     30  C   UNL     1      -2.251   9.896  16.854  0.00  0.00    +0.000 C 
ENDBRANCH  27  28
ENDBRANCH  26  27
ENDBRANCH  25  26
ENDBRANCH   6  25
TORSDOF 11
ENDMDL
MODEL 2
REMARK VINA RESULT:      -7.1      3.256      9.475
REMARK  Name = 
REMARK  17 active torsions:
REMARK  status: ('A' for Active; 'I' for Inactive)
REMARK    1  A    between atoms: C_1  and  C_2
REMARK    2  A    between atoms: C_2  and  C_3
REMARK    3  A    between atoms: C_2  and  C_4
REMARK    4  A    between atoms: C_6  and  C_7
REMARK    5  A    between atoms: C_10  and  O_11
REMARK    6  A    between atoms: O_11  and  C_12
REMARK    7  A    between atoms: C_12  and  C_13
REMARK    8  A    between atoms: C_13  and  O_15
REMARK    9  A    between atoms: C_16  and  C_17
REMARK   10  A    between atoms: C_17  and  C_18
REMARK   11  A    between atoms: C_17  and  C_19
REMARK   12  A    between atoms: C_23  and  O_24
REMARK   13  A    between atoms: O_24  and  C_25
REMARK   14  A    between atoms: C_25  and  C_26
REMARK   15  A    between atoms: C_26  and  N_27
REMARK   16  A    between atoms: N_27  and  C_28
REMARK   17  A    between atoms: N_27  and  C_29
REMARK                            x       y       z     vdW  Elec       q    Type
REMARK                         _______ _______ _______ _____ _____    ______ ____
ROOT
ATOM      1  C   UNL     1       1.908   5.158  20.035  0.00  0.00    +0.000 A 
ATOM      2  C   UNL     1       1.546   6.374  20.673  0.00  0.00    +0.000 A 
ATOM      3  C   UNL     1       1.698   7.638  20.078  0.00  0.00    +0.000 A 
ATOM      4  C   UNL     1       2.344   7.676  18.848  0.00  0.00    +0.000 A 
ATOM      5  C   UNL     1       2.791   6.504  18.236  0.00  0.00    +0.000 A 
ATOM      6  C   UNL     1       2.606   5.236  18.818  0.00  0.00    +0.000 A 
ENDROOT
BRANCH   3   7
ATOM      7  C   UNL     1       1.067   8.855  20.631  0.00  0.00    +0.000 A 
ATOM      8  C   UNL     1       0.390   8.811  21.852  0.00  0.00    +0.000 A 
ATOM      9  C   UNL     1      -0.396   9.880  22.281  0.00  0.00    +0.000 A 
ATOM     10  C   UNL     1      -0.574  11.025  21.487  0.00  0.00    +0.000 A 
ATOM     11  C   UNL     1       0.188  11.160  20.314  0.00  0.00    +0.000 A 
ATOM     12  C   UNL     1       0.998  10.058  19.920  0.00  0.00    +0.000 A 
BRANCH  11  13
ATOM     13  C   UNL     1       0.195  12.341  19.351  0.00  0.00    +0.000 C 
ATOM     14  C   UNL     1       1.539  12.478  18.630  0.00  0.00    +0.000 C 
ATOM     15  C   UNL     1      -0.967  12.418  18.357  0.00  0.00    +0.000 C 
ENDBRANCH  11  13
BRANCH  10  16
ATOM     16  O   UNL     1      -1.508  11.988  21.809  0.00  0.00    +0.000 OA
BRANCH  16  17
ATOM     17  C   UNL     1      -1.946  11.940  23.181  0.00  0.00    +0.000 C 
BRANCH  17  18
ATOM     18  C   UNL     1      -3.401  12.337  23.370  0.00  0.00    +0.000 C 
ATOM     19  O   UNL     1      -4.093  11.964  24.298  0.00  0.00    +0.000 OA
BRANCH  18  20
ATOM     20  O   UNL     1      -3.857  13.170  22.405  0.00  0.00    +0.000 OA
ATOM     21  H   UNL     1      -4.785  12.940  22.184  0.00  0.00    +0.000 HD
ENDBRANCH  18  20
ENDBRANCH  17  18
ENDBRANCH  16  17
ENDBRANCH  10  16
ENDBRANCH   3   7
BRANCH   1  23
ATOM     22  C   UNL     1       0.716   2.947  19.694  0.00  0.00    +0.000 C 
ATOM     23  C   UNL     1       1.456   3.850  20.684  0.00  0.00    +0.000 C 
ATOM     24  C   UNL     1       2.638   3.092  21.332  0.00  0.00    +0.000 C 
ENDBRANCH   1  23
BRANCH   6  25
ATOM     25  O   UNL     1       3.108   4.083  18.220  0.00  0.00    +0.000 OA
BRANCH  25  26
ATOM     26  C   UNL     1       4.439   4.288  17.703  0.00  0.00    +0.000 C 
BRANCH  26  27
ATOM     27  C   UNL     1       5.586   4.341  18.726  0.00  0.00    +0.000 C 
BRANCH  27  28
ATOM     28  N   UNL     1       6.682   5.246  18.270  0.00  0.00    +0.000 NA
ATOM     29  C   UNL     1       7.514   5.735  19.373  0.00  0.00    +0.000 C 
ATOM     30  C   UNL     1       7.535   4.592  17.276  0.00  0.00    +0.000 C 
ENDBRANCH  27  28
ENDBRANCH  26  27
ENDBRANCH  25  26
ENDBRANCH   6  25
TORSDOF 11
ENDMDL
MODEL 3
REMARK VINA RESULT:      -7.1      1.852      2.390
REMARK  Name = 
REMARK  17 active torsions:
REMARK  status: ('A' for Active; 'I' for Inactive)
REMARK    1  A    between atoms: C_1  and  C_2
REMARK    2  A    between atoms: C_2  and  C_3
REMARK    3  A    between atoms: C_2  and  C_4
REMARK    4  A    between atoms: C_6  and  C_7
REMARK    5  A    between atoms: C_10  and  O_11
REMARK    6  A    between atoms: O_11  and  C_12
REMARK    7  A    between atoms: C_12  and  C_13
REMARK    8  A    between atoms: C_13  and  O_15
REMARK    9  A    between atoms: C_16  and  C_17
REMARK   10  A    between atoms: C_17  and  C_18
REMARK   11  A    between atoms: C_17  and  C_19
REMARK   12  A    between atoms: C_23  and  O_24
REMARK   13  A    between atoms: O_24  and  C_25
REMARK   14  A    between atoms: C_25  and  C_26
REMARK   15  A    between atoms: C_26  and  N_27
REMARK   16  A    between atoms: N_27  and  C_28
REMARK   17  A    between atoms: N_27  and  C_29
REMARK                            x       y       z     vdW  Elec       q    Type
REMARK                         _______ _______ _______ _____ _____    ______ ____
ROOT
ATOM      1  C   UNL     1       0.813   9.484  20.433  0.00  0.00    +0.000 A 
ATOM      2  C   UNL     1       1.491   8.331  19.957  0.00  0.00    +0.000 A 
ATOM      3  C   UNL     1       1.925   8.178  18.629  0.00  0.00    +0.000 A 
ATOM      4  C   UNL     1       1.557   9.174  17.733  0.00  0.00    +0.000 A 
ATOM      5  C   UNL     1       0.813  10.277  18.153  0.00  0.00    +0.000 A 
ATOM      6  C   UNL     1       0.410  10.445  19.491  0.00  0.00    +0.000 A 
ENDROOT
BRANCH   3   7
ATOM      7  C   UNL     1       2.864   7.112  18.220  0.00  0.00    +0.000 A 
ATOM      8  C   UNL     1       4.000   7.418  17.467  0.00  0.00    +0.000 A 
ATOM      9  C   UNL     1       4.773   6.412  16.886  0.00  0.00    +0.000 A 
ATOM     10  C   UNL     1       4.420   5.058  16.998  0.00  0.00    +0.000 A 
ATOM     11  C   UNL     1       3.360   4.703  17.850  0.00  0.00    +0.000 A 
ATOM     12  C   UNL     1       2.608   5.755  18.445  0.00  0.00    +0.000 A 
BRANCH  11  13
ATOM     13  C   UNL     1       2.860   3.298  18.161  0.00  0.00    +0.000 C 
ATOM     14  C   UNL     1       3.608   2.679  19.345  0.00  0.00    +0.000 C 
ATOM     15  C   UNL     1       1.347   3.132  18.325  0.00  0.00    +0.000 C 
ENDBRANCH  11  13
BRANCH  10  16
ATOM     16  O   UNL     1       5.057   4.083  16.258  0.00  0.00    +0.000 OA
BRANCH  16  17
ATOM     17  C   UNL     1       5.603   4.559  15.013  0.00  0.00    +0.000 C 
BRANCH  17  18
ATOM     18  C   UNL     1       7.097   4.834  15.068  0.00  0.00    +0.000 C 
ATOM     19  O   UNL     1       7.711   5.432  14.204  0.00  0.00    +0.000 OA
BRANCH  18  20
ATOM     20  O   UNL     1       7.686   4.361  16.191  0.00  0.00    +0.000 OA
ATOM     21  H   UNL     1       7.404   4.900  16.962  0.00  0.00    +0.000 HD
ENDBRANCH  18  20
ENDBRANCH  17  18
ENDBRANCH  16  17
ENDBRANCH  10  16
ENDBRANCH   3   7
BRANCH   1  23
ATOM     22  C   UNL     1      -0.640   8.924  22.433  0.00  0.00    +0.000 C 
ATOM     23  C   UNL     1       0.626   9.630  21.943  0.00  0.00    +0.000 C 
ATOM     24  C   UNL     1       1.864   9.132  22.726  0.00  0.00    +0.000 C 
ENDBRANCH   1  23
BRANCH   6  25
ATOM     25  O   UNL     1      -0.379  11.525  19.881  0.00  0.00    +0.000 OA
BRANCH  25  26
ATOM     26  C   UNL     1       0.404  12.724  20.048  0.00  0.00    +0.000 C 
BRANCH  26  27
ATOM     27  C   UNL     1       0.267  13.806  18.964  0.00  0.00    +0.000 C 
BRANCH  27  28
ATOM     28  N   UNL     1       1.602  14.315  18.530  0.00  0.00    +0.000 NA
ATOM     29  C   UNL     1       1.807  15.729  18.859  0.00  0.00    +0.000 C 
ATOM     30  C   UNL     1       2.688  13.523  19.108  0.00  0.00    +0.000 C 
ENDBRANCH  27  28
ENDBRANCH  26  27
ENDBRANCH  25  26
ENDBRANCH   6  25
TORSDOF 11
ENDMDL
MODEL 4
REMARK VINA RESULT:      -7.1      3.202      9.354
REMARK  Name = 
REMARK  17 active torsions:
REMARK  status: ('A' for Active; 'I' for Inactive)
REMARK    1  A    between atoms: C_1  and  C_2
REMARK    2  A    between atoms: C_2  and  C_3
REMARK    3  A    between atoms: C_2  and  C_4
REMARK    4  A    between atoms: C_6  and  C_7
REMARK    5  A    between atoms: C_10  and  O_11
REMARK    6  A    between atoms: O_11  and  C_12
REMARK    7  A    between atoms: C_12  and  C_13
REMARK    8  A    between atoms: C_13  and  O_15
REMARK    9  A    between atoms: C_16  and  C_17
REMARK   10  A    between atoms: C_17  and  C_18
REMARK   11  A    between atoms: C_17  and  C_19
REMARK   12  A    between atoms: C_23  and  O_24
REMARK   13  A    between atoms: O_24  and  C_25
REMARK   14  A    between atoms: C_25  and  C_26
REMARK   15  A    between atoms: C_26  and  N_27
REMARK   16  A    between atoms: N_27  and  C_28
REMARK   17  A    between atoms: N_27  and  C_29
REMARK                            x       y       z     vdW  Elec       q    Type
REMARK                         _______ _______ _______ _____ _____    ______ ____
ROOT
ATOM      1  C   UNL     1       2.364   5.155  19.481  0.00  0.00    +0.000 A 
ATOM      2  C   UNL     1       1.999   6.318  20.210  0.00  0.00    +0.000 A 
ATOM      3  C   UNL     1       2.025   7.614  19.667  0.00  0.00    +0.000 A 
ATOM      4  C   UNL     1       2.548   7.744  18.386  0.00  0.00    +0.000 A 
ATOM      5  C   UNL     1       2.998   6.630  17.678  0.00  0.00    +0.000 A 
ATOM      6  C   UNL     1       2.938   5.328  18.211  0.00  0.00    +0.000 A 
ENDROOT
BRANCH   3   7
ATOM      7  C   UNL     1       1.383   8.765  20.336  0.00  0.00    +0.000 A 
ATOM      8  C   UNL     1       0.787   8.615  21.591  0.00  0.00    +0.000 A 
ATOM      9  C   UNL     1      -0.011   9.621  22.136  0.00  0.00    +0.000 A 
ATOM     10  C   UNL     1      -0.282  10.805  21.432  0.00  0.00    +0.000 A 
ATOM     11  C   UNL     1       0.399  11.046  20.226  0.00  0.00    +0.000 A 
ATOM     12  C   UNL     1       1.223  10.007  19.712  0.00  0.00    +0.000 A 
BRANCH  11  13
ATOM     13  C   UNL     1       0.299  12.286  19.345  0.00  0.00    +0.000 C 
ATOM     14  C   UNL     1       1.613  12.565  18.609  0.00  0.00    +0.000 C 
ATOM     15  C   UNL     1      -0.889  12.345  18.382  0.00  0.00    +0.000 C 
ENDBRANCH  11  13
BRANCH  10  16
ATOM     16  O   UNL     1      -1.230  11.705  21.873  0.00  0.00    +0.000 OA
BRANCH  16  17
ATOM     17  C   UNL     1      -1.858  11.330  23.114  0.00  0.00    +0.000 C 
BRANCH  17  18
ATOM     18  C   UNL     1      -3.089  12.157  23.449  0.00  0.00    +0.000 C 
ATOM     19  O   UNL     1      -3.887  11.868  24.321  0.00  0.00    +0.000 OA
BRANCH  18  20
ATOM     20  O   UNL     1      -3.208  13.270  22.687  0.00  0.00    +0.000 OA
ATOM     21  H   UNL     1      -3.068  14.065  23.243  0.00  0.00    +0.000 HD
ENDBRANCH  18  20
ENDBRANCH  17  18
ENDBRANCH  16  17
ENDBRANCH  10  16
ENDBRANCH   3   7
BRANCH   1  23
ATOM     22  C   UNL     1       2.130   3.831  21.629  0.00  0.00    +0.000 C 
ATOM     23  C   UNL     1       2.048   3.794  20.102  0.00  0.00    +0.000 C 
ATOM     24  C   UNL     1       0.671   3.260  19.644  0.00  0.00    +0.000 C 
ENDBRANCH   1  23
BRANCH   6  25
ATOM     25  O   UNL     1       3.443   4.235  17.511  0.00  0.00    +0.000 OA
BRANCH  25  26
ATOM     26  C   UNL     1       4.841   4.405  17.194  0.00  0.00    +0.000 C 
BRANCH  26  27
ATOM     27  C   UNL     1       5.833   4.373  18.369  0.00  0.00    +0.000 C 
BRANCH  27  28
ATOM     28  N   UNL     1       7.126   5.025  18.007  0.00  0.00    +0.000 NA
ATOM     29  C   UNL     1       7.016   5.894  16.832  0.00  0.00    +0.000 C 
ATOM     30  C   UNL     1       7.666   5.796  19.127  0.00  0.00    +0.000 C 
ENDBRANCH  27  28
ENDBRANCH  26  27
ENDBRANCH  25  26
ENDBRANCH   6  25
TORSDOF 11
ENDMDL
MODEL 5
REMARK VINA RESULT:      -7.0      2.839      8.681
REMARK  Name = 
REMARK  17 active torsions:
REMARK  status: ('A' for Active; 'I' for Inactive)
REMARK    1  A    between atoms: C_1  and  C_2
REMARK    2  A    between atoms: C_2  and  C_3
REMARK    3  A    between atoms: C_2  and  C_4
REMARK    4  A    between atoms: C_6  and  C_7
REMARK    5  A    between atoms: C_10  and  O_11
REMARK    6  A    between atoms: O_11  and  C_12
REMARK    7  A    between atoms: C_12  and  C_13
REMARK    8  A    between atoms: C_13  and  O_15
REMARK    9  A    between atoms: C_16  and  C_17
REMARK   10  A    between atoms: C_17  and  C_18
REMARK   11  A    between atoms: C_17  and  C_19
REMARK   12  A    between atoms: C_23  and  O_24
REMARK   13  A    between atoms: O_24  and  C_25
REMARK   14  A    between atoms: C_25  and  C_26
REMARK   15  A    between atoms: C_26  and  N_27
REMARK   16  A    between atoms: N_27  and  C_28
REMARK   17  A    between atoms: N_27  and  C_29
REMARK                            x       y       z     vdW  Elec       q    Type
REMARK                         _______ _______ _______ _____ _____    ______ ____
ROOT
ATOM      1  C   UNL     1       4.030   4.540  17.845  0.00  0.00    +0.000 A 
ATOM      2  C   UNL     1       3.174   5.531  18.394  0.00  0.00    +0.000 A 
ATOM      3  C   UNL     1       3.316   6.906  18.140  0.00  0.00    +0.000 A 
ATOM      4  C   UNL     1       4.427   7.294  17.401  0.00  0.00    +0.000 A 
ATOM      5  C   UNL     1       5.336   6.349  16.923  0.00  0.00    +0.000 A 
ATOM      6  C   UNL     1       5.173   4.969  17.150  0.00  0.00    +0.000 A 
ENDROOT
BRANCH   3   7
ATOM      7  C   UNL     1       2.264   7.887  18.484  0.00  0.00    +0.000 A 
ATOM      8  C   UNL     1       1.759   8.755  17.512  0.00  0.00    +0.000 A 
ATOM      9  C   UNL     1       0.937   9.827  17.860  0.00  0.00    +0.000 A 
ATOM     10  C   UNL     1       0.619  10.104  19.199  0.00  0.00    +0.000 A 
ATOM     11  C   UNL     1       1.003   9.184  20.190  0.00  0.00    +0.000 A 
ATOM     12  C   UNL     1       1.821   8.089  19.794  0.00  0.00    +0.000 A 
BRANCH  11  13
ATOM     13  C   UNL     1       0.705   9.261  21.683  0.00  0.00    +0.000 C 
ATOM     14  C   UNL     1      -0.507   8.406  22.063  0.00  0.00    +0.000 C 
ATOM     15  C   UNL     1       1.879   8.993  22.628  0.00  0.00    +0.000 C 
ENDBRANCH  11  13
BRANCH  10  16
ATOM     16  O   UNL     1      -0.016  11.274  19.563  0.00  0.00    +0.000 OA
BRANCH  16  17
ATOM     17  C   UNL     1       0.624  12.464  19.063  0.00  0.00    +0.000 C 
BRANCH  17  18
ATOM     18  C   UNL     1      -0.331  13.426  18.376  0.00  0.00    +0.000 C 
ATOM     19  O   UNL     1      -0.457  14.597  18.685  0.00  0.00    +0.000 OA
BRANCH  18  20
ATOM     20  O   UNL     1      -1.027  12.857  17.363  0.00  0.00    +0.000 OA
ATOM     21  H   UNL     1      -1.917  12.595  17.683  0.00  0.00    +0.000 HD
ENDBRANCH  18  20
ENDBRANCH  17  18
ENDBRANCH  16  17
ENDBRANCH  10  16
ENDBRANCH   3   7
BRANCH   1  23
ATOM     22  C   UNL     1       4.053   2.491  19.337  0.00  0.00    +0.000 C 
ATOM     23  C   UNL     1       3.615   3.076  17.993  0.00  0.00    +0.000 C 
ATOM     24  C   UNL     1       2.093   2.887  17.789  0.00  0.00    +0.000 C 
ENDBRANCH   1  23
BRANCH   6  25
ATOM     25  O   UNL     1       6.119   4.046  16.712  0.00  0.00    +0.000 OA
BRANCH  25  26
ATOM     26  C   UNL     1       6.617   4.375  15.399  0.00  0.00    +0.000 C 
BRANCH  26  27
ATOM     27  C   UNL     1       5.643   4.209  14.220  0.00  0.00    +0.000 C 
BRANCH  27  28
ATOM     28  N   UNL     1       6.329   3.635  13.024  0.00  0.00    +0.000 NA
ATOM     29  C   UNL     1       5.391   3.187  11.991  0.00  0.00    +0.000 C 
ATOM     30  C   UNL     1       7.270   4.591  12.439  0.00  0.00    +0.000 C 
ENDBRANCH  27  28
ENDBRANCH  26  27
ENDBRANCH  25  26
ENDBRANCH   6  25
TORSDOF 11
ENDMDL
MODEL 6
REMARK VINA RESULT:      -7.0      2.066      2.758
REMARK  Name = 
REMARK  17 active torsions:
REMARK  status: ('A' for Active; 'I' for Inactive)
REMARK    1  A    between atoms: C_1  and  C_2
REMARK    2  A    between atoms: C_2  and  C_3
REMARK    3  A    between atoms: C_2  and  C_4
REMARK    4  A    between atoms: C_6  and  C_7
REMARK    5  A    between atoms: C_10  and  O_11
REMARK    6  A    between atoms: O_11  and  C_12
REMARK    7  A    between atoms: C_12  and  C_13
REMARK    8  A    between atoms: C_13  and  O_15
REMARK    9  A    between atoms: C_16  and  C_17
REMARK   10  A    between atoms: C_17  and  C_18
REMARK   11  A    between atoms: C_17  and  C_19
REMARK   12  A    between atoms: C_23  and  O_24
REMARK   13  A    between atoms: O_24  and  C_25
REMARK   14  A    between atoms: C_25  and  C_26
REMARK   15  A    between atoms: C_26  and  N_27
REMARK   16  A    between atoms: N_27  and  C_28
REMARK   17  A    between atoms: N_27  and  C_29
REMARK                            x       y       z     vdW  Elec       q    Type
REMARK                         _______ _______ _______ _____ _____    ______ ____
ROOT
ATOM      1  C   UNL     1       1.266   8.608  20.265  0.00  0.00    +0.000 A 
ATOM      2  C   UNL     1       1.972   7.534  19.662  0.00  0.00    +0.000 A 
ATOM      3  C   UNL     1       2.540   7.603  18.378  0.00  0.00    +0.000 A 
ATOM      4  C   UNL     1       2.283   8.753  17.642  0.00  0.00    +0.000 A 
ATOM      5  C   UNL     1       1.517   9.790  18.175  0.00  0.00    +0.000 A 
ATOM      6  C   UNL     1       0.979   9.733  19.475  0.00  0.00    +0.000 A 
ENDROOT
BRANCH   3   7
ATOM      7  C   UNL     1       3.500   6.594  17.882  0.00  0.00    +0.000 A 
ATOM      8  C   UNL     1       4.510   6.956  16.987  0.00  0.00    +0.000 A 
ATOM      9  C   UNL     1       5.280   5.990  16.339  0.00  0.00    +0.000 A 
ATOM     10  C   UNL     1       5.046   4.619  16.525  0.00  0.00    +0.000 A 
ATOM     11  C   UNL     1       4.127   4.217  17.510  0.00  0.00    +0.000 A 
ATOM     12  C   UNL     1       3.377   5.231  18.168  0.00  0.00    +0.000 A 
BRANCH  11  13
ATOM     13  C   UNL     1       3.776   2.789  17.914  0.00  0.00    +0.000 C 
ATOM     14  C   UNL     1       4.268   2.463  19.327  0.00  0.00    +0.000 C 
ATOM     15  C   UNL     1       2.315   2.369  17.735  0.00  0.00    +0.000 C 
ENDBRANCH  11  13
BRANCH  10  16
ATOM     16  O   UNL     1       5.660   3.668  15.736  0.00  0.00    +0.000 OA
BRANCH  16  17
ATOM     17  C   UNL     1       6.635   4.209  14.824  0.00  0.00    +0.000 C 
BRANCH  17  18
ATOM     18  C   UNL     1       6.272   4.019  13.360  0.00  0.00    +0.000 C 
ATOM     19  O   UNL     1       5.198   3.598  12.974  0.00  0.00    +0.000 OA
BRANCH  18  20
ATOM     20  O   UNL     1       7.263   4.384  12.513  0.00  0.00    +0.000 OA
ATOM     21  H   UNL     1       6.929   4.369  11.590  0.00  0.00    +0.000 HD
ENDBRANCH  18  20
ENDBRANCH  17  18
ENDBRANCH  16  17
ENDBRANCH  10  16
ENDBRANCH   3   7
BRANCH   1  23
ATOM     22  C   UNL     1       1.653   9.547  22.588  0.00  0.00    +0.000 C 
ATOM     23  C   UNL     1       0.925   8.493  21.752  0.00  0.00    +0.000 C 
ATOM     24  C   UNL     1      -0.600   8.562  21.998  0.00  0.00    +0.000 C 
ENDBRANCH   1  23
BRANCH   6  25
ATOM     25  O   UNL     1       0.170  10.753  19.970  0.00  0.00    +0.000 OA
BRANCH  25  26
ATOM     26  C   UNL     1       0.575  12.044  19.469  0.00  0.00    +0.000 C 
BRANCH  26  27
ATOM     27  C   UNL     1       1.455  12.907  20.388  0.00  0.00    +0.000 C 
BRANCH  27  28
ATOM     28  N   UNL     1       2.714  13.324  19.702  0.00  0.00    +0.000 NA
ATOM     29  C   UNL     1       2.579  13.369  18.243  0.00  0.00    +0.000 C 
ATOM     30  C   UNL     1       3.177  14.626  20.183  0.00  0.00    +0.000 C 
ENDBRANCH  27  28
ENDBRANCH  26  27
ENDBRANCH  25  26
ENDBRANCH   6  25
TORSDOF 11
ENDMDL
MODEL 7
REMARK VINA RESULT:      -7.0      3.221      9.506
REMARK  Name = 
REMARK  17 active torsions:
REMARK  status: ('A' for Active; 'I' for Inactive)
REMARK    1  A    between atoms: C_1  and  C_2
REMARK    2  A    between atoms: C_2  and  C_3
REMARK    3  A    between atoms: C_2  and  C_4
REMARK    4  A    between atoms: C_6  and  C_7
REMARK    5  A    between atoms: C_10  and  O_11
REMARK    6  A    between atoms: O_11  and  C_12
REMARK    7  A    between atoms: C_12  and  C_13
REMARK    8  A    between atoms: C_13  and  O_15
REMARK    9  A    between atoms: C_16  and  C_17
REMARK   10  A    between atoms: C_17  and  C_18
REMARK   11  A    between atoms: C_17  and  C_19
REMARK   12  A    between atoms: C_23  and  O_24
REMARK   13  A    between atoms: O_24  and  C_25
REMARK   14  A    between atoms: C_25  and  C_26
REMARK   15  A    between atoms: C_26  and  N_27
REMARK   16  A    between atoms: N_27  and  C_28
REMARK   17  A    between atoms: N_27  and  C_29
REMARK                            x       y       z     vdW  Elec       q    Type
REMARK                         _______ _______ _______ _____ _____    ______ ____
ROOT
ATOM      1  C   UNL     1       1.995   5.060  20.066  0.00  0.00    +0.000 A 
ATOM      2  C   UNL     1       1.575   6.291  20.636  0.00  0.00    +0.000 A 
ATOM      3  C   UNL     1       1.800   7.541  20.036  0.00  0.00    +0.000 A 
ATOM      4  C   UNL     1       2.576   7.550  18.883  0.00  0.00    +0.000 A 
ATOM      5  C   UNL     1       3.080   6.364  18.348  0.00  0.00    +0.000 A 
ATOM      6  C   UNL     1       2.822   5.109  18.932  0.00  0.00    +0.000 A 
ENDROOT
BRANCH   3   7
ATOM      7  C   UNL     1       1.120   8.773  20.492  0.00  0.00    +0.000 A 
ATOM      8  C   UNL     1       0.677   8.891  21.811  0.00  0.00    +0.000 A 
ATOM      9  C   UNL     1      -0.156   9.940  22.201  0.00  0.00    +0.000 A 
ATOM     10  C   UNL     1      -0.616  10.894  21.279  0.00  0.00    +0.000 A 
ATOM     11  C   UNL     1      -0.092  10.881  19.974  0.00  0.00    +0.000 A 
ATOM     12  C   UNL     1       0.774   9.809  19.619  0.00  0.00    +0.000 A 
BRANCH  11  13
ATOM     13  C   UNL     1      -0.405  11.858  18.847  0.00  0.00    +0.000 C 
ATOM     14  C   UNL     1      -1.835  11.682  18.325  0.00  0.00    +0.000 C 
ATOM     15  C   UNL     1      -0.102  13.333  19.118  0.00  0.00    +0.000 C 
ENDBRANCH  11  13
BRANCH  10  16
ATOM     16  O   UNL     1      -1.598  11.805  21.611  0.00  0.00    +0.000 OA
BRANCH  16  17
ATOM     17  C   UNL     1      -1.666  12.099  23.020  0.00  0.00    +0.000 C 
BRANCH  17  18
ATOM     18  C   UNL     1      -3.035  12.576  23.477  0.00  0.00    +0.000 C 
ATOM     19  O   UNL     1      -3.822  11.889  24.101  0.00  0.00    +0.000 OA
BRANCH  18  20
ATOM     20  O   UNL     1      -3.295  13.860  23.135  0.00  0.00    +0.000 OA
ATOM     21  H   UNL     1      -3.910  14.257  23.788  0.00  0.00    +0.000 HD
ENDBRANCH  18  20
ENDBRANCH  17  18
ENDBRANCH  16  17
ENDBRANCH  10  16
ENDBRANCH   3   7
BRANCH   1  23
ATOM     22  C   UNL     1       0.857   2.837  19.638  0.00  0.00    +0.000 C 
ATOM     23  C   UNL     1       1.466   3.768  20.688  0.00  0.00    +0.000 C 
ATOM     24  C   UNL     1       2.558   3.031  21.499  0.00  0.00    +0.000 C 
ENDBRANCH   1  23
BRANCH   6  25
ATOM     25  O   UNL     1       3.379   3.942  18.415  0.00  0.00    +0.000 OA
BRANCH  25  26
ATOM     26  C   UNL     1       4.741   4.146  17.986  0.00  0.00    +0.000 C 
BRANCH  26  27
ATOM     27  C   UNL     1       5.031   3.995  16.483  0.00  0.00    +0.000 C 
BRANCH  27  28
ATOM     28  N   UNL     1       6.496   4.054  16.202  0.00  0.00    +0.000 NA
ATOM     29  C   UNL     1       6.810   4.783  14.970  0.00  0.00    +0.000 C 
ATOM     30  C   UNL     1       7.228   4.655  17.317  0.00  0.00    +0.000 C 
ENDBRANCH  27  28
ENDBRANCH  26  27
ENDBRANCH  25  26
ENDBRANCH   6  25
TORSDOF 11
ENDMDL
MODEL 8
REMARK VINA RESULT:      -7.0      2.673      4.133
REMARK  Name = 
REMARK  17 active torsions:
REMARK  status: ('A' for Active; 'I' for Inactive)
REMARK    1  A    between atoms: C_1  and  C_2
REMARK    2  A    between atoms: C_2  and  C_3
REMARK    3  A    between atoms: C_2  and  C_4
REMARK    4  A    between atoms: C_6  and  C_7
REMARK    5  A    between atoms: C_10  and  O_11
REMARK    6  A    between atoms: O_11  and  C_12
REMARK    7  A    between atoms: C_12  and  C_13
REMARK    8  A    between atoms: C_13  and  O_15
REMARK    9  A    between atoms: C_16  and  C_17
REMARK   10  A    between atoms: C_17  and  C_18
REMARK   11  A    between atoms: C_17  and  C_19
REMARK   12  A    between atoms: C_23  and  O_24
REMARK   13  A    between atoms: O_24  and  C_25
REMARK   14  A    between atoms: C_25  and  C_26
REMARK   15  A    between atoms: C_26  and  N_27
REMARK   16  A    between atoms: N_27  and  C_28
REMARK   17  A    between atoms: N_27  and  C_29
REMARK                            x       y       z     vdW  Elec       q    Type
REMARK                         _______ _______ _______ _____ _____    ______ ____
ROOT
ATOM      1  C   UNL     1      -0.421  10.955  20.173  0.00  0.00    +0.000 A 
ATOM      2  C   UNL     1       0.417   9.900  19.724  0.00  0.00    +0.000 A 
ATOM      3  C   UNL     1       1.035   8.979  20.587  0.00  0.00    +0.000 A 
ATOM      4  C   UNL     1       0.890   9.206  21.950  0.00  0.00    +0.000 A 
ATOM      5  C   UNL     1       0.146  10.287  22.423  0.00  0.00    +0.000 A 
ATOM      6  C   UNL     1      -0.501  11.188  21.556  0.00  0.00    +0.000 A 
ENDROOT
BRANCH   3   7
ATOM      7  C   UNL     1       1.666   7.735  20.096  0.00  0.00    +0.000 A 
ATOM      8  C   UNL     1       2.465   7.750  18.950  0.00  0.00    +0.000 A 
ATOM      9  C   UNL     1       2.884   6.563  18.349  0.00  0.00    +0.000 A 
ATOM     10  C   UNL     1       2.488   5.310  18.841  0.00  0.00    +0.000 A 
ATOM     11  C   UNL     1       1.792   5.252  20.061  0.00  0.00    +0.000 A 
ATOM     12  C   UNL     1       1.401   6.483  20.659  0.00  0.00    +0.000 A 
BRANCH  11  13
ATOM     13  C   UNL     1       1.329   4.001  20.799  0.00  0.00    +0.000 C 
ATOM     14  C   UNL     1       0.620   3.020  19.860  0.00  0.00    +0.000 C 
ATOM     15  C   UNL     1       2.379   3.281  21.648  0.00  0.00    +0.000 C 
ENDBRANCH  11  13
BRANCH  10  16
ATOM     16  O   UNL     1       2.725   4.148  18.135  0.00  0.00    +0.000 OA
BRANCH  16  17
ATOM     17  C   UNL     1       4.082   4.017  17.669  0.00  0.00    +0.000 C 
BRANCH  17  18
ATOM     18  C   UNL     1       5.097   3.849  18.787  0.00  0.00    +0.000 C 
ATOM     19  O   UNL     1       5.864   4.723  19.147  0.00  0.00    +0.000 OA
BRANCH  18  20
ATOM     20  O   UNL     1       5.057   2.626  19.366  0.00  0.00    +0.000 OA
ATOM     21  H   UNL     1       5.519   1.976  18.794  0.00  0.00    +0.000 HD
ENDBRANCH  18  20
ENDBRANCH  17  18
ENDBRANCH  16  17
ENDBRANCH  10  16
ENDBRANCH   3   7
BRANCH   1  23
ATOM     22  C   UNL     1      -0.431  12.880  18.524  0.00  0.00    +0.000 C 
ATOM     23  C   UNL     1      -1.228  11.721  19.125  0.00  0.00    +0.000 C 
ATOM     24  C   UNL     1      -1.753  10.787  18.009  0.00  0.00    +0.000 C 
ENDBRANCH   1  23
BRANCH   6  25
ATOM     25  O   UNL     1      -1.194  12.293  22.045  0.00  0.00    +0.000 OA
BRANCH  25  26
ATOM     26  C   UNL     1      -2.540  11.948  22.433  0.00  0.00    +0.000 C 
BRANCH  26  27
ATOM     27  C   UNL     1      -3.523  13.109  22.656  0.00  0.00    +0.000 C 
BRANCH  27  28
ATOM     28  N   UNL     1      -4.937  12.629  22.680  0.00  0.00    +0.000 NA
ATOM     29  C   UNL     1      -5.788  13.409  23.585  0.00  0.00    +0.000 C 
ATOM     30  C   UNL     1      -5.525  12.635  21.341  0.00  0.00    +0.000 C 
ENDBRANCH  27  28
ENDBRANCH  26  27
ENDBRANCH  25  26
ENDBRANCH   6  25
TORSDOF 11
ENDMDL
MODEL 9
REMARK VINA RESULT:      -7.0      2.859      8.467
REMARK  Name = 
REMARK  17 active torsions:
REMARK  status: ('A' for Active; 'I' for Inactive)
REMARK    1  A    between atoms: C_1  and  C_2
REMARK    2  A    between atoms: C_2  and  C_3
REMARK    3  A    between atoms: C_2  and  C_4
REMARK    4  A    between atoms: C_6  and  C_7
REMARK    5  A    between atoms: C_10  and  O_11
REMARK    6  A    between atoms: O_11  and  C_12
REMARK    7  A    between atoms: C_12  and  C_13
REMARK    8  A    between atoms: C_13  and  O_15
REMARK    9  A    between atoms: C_16  and  C_17
REMARK   10  A    between atoms: C_17  and  C_18
REMARK   11  A    between atoms: C_17  and  C_19
REMARK   12  A    between atoms: C_23  and  O_24
REMARK   13  A    between atoms: O_24  and  C_25
REMARK   14  A    between atoms: C_25  and  C_26
REMARK   15  A    between atoms: C_26  and  N_27
REMARK   16  A    between atoms: N_27  and  C_28
REMARK   17  A    between atoms: N_27  and  C_29
REMARK                            x       y       z     vdW  Elec       q    Type
REMARK                         _______ _______ _______ _____ _____    ______ ____
ROOT
ATOM      1  C   UNL     1       4.529   5.819  18.097  0.00  0.00    +0.000 A 
ATOM      2  C   UNL     1       3.606   6.889  17.965  0.00  0.00    +0.000 A 
ATOM      3  C   UNL     1       2.628   7.194  18.927  0.00  0.00    +0.000 A 
ATOM      4  C   UNL     1       2.510   6.316  19.998  0.00  0.00    +0.000 A 
ATOM      5  C   UNL     1       3.345   5.204  20.109  0.00  0.00    +0.000 A 
ATOM      6  C   UNL     1       4.347   4.921  19.161  0.00  0.00    +0.000 A 
ENDROOT
BRANCH   3   7
ATOM      7  C   UNL     1       1.870   8.464  18.911  0.00  0.00    +0.000 A 
ATOM      8  C   UNL     1       2.128   9.432  17.938  0.00  0.00    +0.000 A 
ATOM      9  C   UNL     1       1.588  10.714  18.035  0.00  0.00    +0.000 A 
ATOM     10  C   UNL     1       0.801  11.098  19.132  0.00  0.00    +0.000 A 
ATOM     11  C   UNL     1       0.416  10.118  20.064  0.00  0.00    +0.000 A 
ATOM     12  C   UNL     1       0.967   8.815  19.919  0.00  0.00    +0.000 A 
BRANCH  11  13
ATOM     13  C   UNL     1      -0.481  10.308  21.281  0.00  0.00    +0.000 C 
ATOM     14  C   UNL     1      -0.403   9.113  22.236  0.00  0.00    +0.000 C 
ATOM     15  C   UNL     1      -0.326  11.626  22.045  0.00  0.00    +0.000 C 
ENDBRANCH  11  13
BRANCH  10  16
ATOM     16  O   UNL     1       0.440  12.414  19.337  0.00  0.00    +0.000 OA
BRANCH  16  17
ATOM     17  C   UNL     1      -0.413  12.951  18.308  0.00  0.00    +0.000 C 
BRANCH  17  18
ATOM     18  C   UNL     1      -1.760  12.254  18.208  0.00  0.00    +0.000 C 
ATOM     19  O   UNL     1      -2.070  11.495  17.309  0.00  0.00    +0.000 OA
BRANCH  18  20
ATOM     20  O   UNL     1      -2.590  12.547  19.237  0.00  0.00    +0.000 OA
ATOM     21  H   UNL     1      -2.633  13.520  19.359  0.00  0.00    +0.000 HD
ENDBRANCH  18  20
ENDBRANCH  17  18
ENDBRANCH  16  17
ENDBRANCH  10  16
ENDBRANCH   3   7
BRANCH   1  23
ATOM     22  C   UNL     1       5.275   6.181  15.701  0.00  0.00    +0.000 C 
ATOM     23  C   UNL     1       5.695   5.756  17.110  0.00  0.00    +0.000 C 
ATOM     24  C   UNL     1       6.903   6.592  17.593  0.00  0.00    +0.000 C 
ENDBRANCH   1  23
BRANCH   6  25
ATOM     25  O   UNL     1       5.134   3.776  19.259  0.00  0.00    +0.000 OA
BRANCH  25  26
ATOM     26  C   UNL     1       4.342   2.609  19.562  0.00  0.00    +0.000 C 
BRANCH  26  27
ATOM     27  C   UNL     1       3.694   1.876  18.375  0.00  0.00    +0.000 C 
BRANCH  27  28
ATOM     28  N   UNL     1       2.210   2.037  18.381  0.00  0.00    +0.000 NA
ATOM     29  C   UNL     1       1.656   2.164  19.732  0.00  0.00    +0.000 C 
ATOM     30  C   UNL     1       1.795   3.189  17.580  0.00  0.00    +0.000 C 
ENDBRANCH  27  28
ENDBRANCH  26  27
ENDBRANCH  25  26
ENDBRANCH   6  25
TORSDOF 11
ENDMDL
