MODEL 1
REMARK VINA RESULT:      -5.3      0.000      0.000
REMARK  Name = 
REMARK  9 active torsions:
REMARK  status: ('A' for Active; 'I' for Inactive)
REMARK    1  A    between atoms: C_1  and  C_2
REMARK    2  A    between atoms: C_2  and  C_3
REMARK    3  A    between atoms: C_3  and  C_4
REMARK    4  A    between atoms: C_4  and  C_5
REMARK    5  A    between atoms: C_5  and  C_6
REMARK    6  A    between atoms: C_6  and  C_7
REMARK    7  A    between atoms: C_7  and  C_8
REMARK    8  A    between atoms: C_8  and  N_9
REMARK    9  A    between atoms: N_12  and  C_13
REMARK                            x       y       z     vdW  Elec       q    Type
REMARK                         _______ _______ _______ _____ _____    ______ ____
ROOT
ATOM      1  C   UNL     1       5.325   4.147  15.016  0.00  0.00    +0.000 C 
ENDROOT
BRANCH   1   2
ATOM      2  C   UNL     1       6.544   4.286  14.108  0.00  0.00    +0.000 C 
BRANCH   2   3
ATOM      3  C   UNL     1       6.343   3.650  12.731  0.00  0.00    +0.000 C 
BRANCH   3   4
ATOM      4  C   UNL     1       4.893   3.794  12.283  0.00  0.00    +0.000 C 
BRANCH   4   5
ATOM      5  C   UNL     1       4.564   2.873  11.109  0.00  0.00    +0.000 C 
BRANCH   5   7
ATOM      6  C   UNL     1       3.006   4.234   9.661  0.00  0.00    +0.000 C 
ATOM      7  C   UNL     1       3.120   3.101  10.660  0.00  0.00    +0.000 C 
ENDBRANCH   5   7
ENDBRANCH   4   5
ENDBRANCH   3   4
ENDBRANCH   2   3
ENDBRANCH   1   2
BRANCH   1   8
ATOM      8  C   UNL     1       5.145   5.347  15.939  0.00  0.00    +0.000 C 
BRANCH   8   9
ATOM      9  N   UNL     1       4.691   4.928  17.263  0.00  0.00    +0.000 N 
ATOM     10  C   UNL     1       4.743   5.679  18.423  0.00  0.00    +0.000 A 
ATOM     11  C   UNL     1       4.268   4.885  19.428  0.00  0.00    +0.000 A 
ATOM     12  N   UNL     1       3.936   3.669  18.848  0.00  0.00    +0.000 N 
ATOM     13  C   UNL     1       3.409   2.500  19.537  0.00  0.00    +0.000 C 
ATOM     14  C   UNL     1       4.191   3.713  17.535  0.00  0.00    +0.000 A 
ENDBRANCH   8   9
ENDBRANCH   1   8
TORSDOF 7
ENDMDL
MODEL 2
REMARK VINA RESULT:      -5.3      3.270      6.190
REMARK  Name = 
REMARK  9 active torsions:
REMARK  status: ('A' for Active; 'I' for Inactive)
REMARK    1  A    between atoms: C_1  and  C_2
REMARK    2  A    between atoms: C_2  and  C_3
REMARK    3  A    between atoms: C_3  and  C_4
REMARK    4  A    between atoms: C_4  and  C_5
REMARK    5  A    between atoms: C_5  and  C_6
REMARK    6  A    between atoms: C_6  and  C_7
REMARK    7  A    between atoms: C_7  and  C_8
REMARK    8  A    between atoms: C_8  and  N_9
REMARK    9  A    between atoms: N_12  and  C_13
REMARK                            x       y       z     vdW  Elec       q    Type
REMARK                         _______ _______ _______ _____ _____    ______ ____
ROOT
ATOM      1  C   UNL     1       2.799   5.534  20.011  0.00  0.00    +0.000 C 
ENDROOT
BRANCH   1   2
ATOM      2  C   UNL     1       1.467   4.832  20.262  0.00  0.00    +0.000 C 
BRANCH   2   3
ATOM      3  C   UNL     1       1.602   3.580  21.132  0.00  0.00    +0.000 C 
BRANCH   3   4
ATOM      4  C   UNL     1       1.689   2.333  20.260  0.00  0.00    +0.000 C 
BRANCH   4   5
ATOM      5  C   UNL     1       1.172   2.588  18.845  0.00  0.00    +0.000 C 
BRANCH   5   7
ATOM      6  C   UNL     1       3.532   1.763  18.492  0.00  0.00    +0.000 C 
ATOM      7  C   UNL     1       2.265   2.261  17.827  0.00  0.00    +0.000 C 
ENDBRANCH   5   7
ENDBRANCH   4   5
ENDBRANCH   3   4
ENDBRANCH   2   3
ENDBRANCH   1   2
BRANCH   1   8
ATOM      8  C   UNL     1       3.028   5.840  18.535  0.00  0.00    +0.000 C 
BRANCH   8   9
ATOM      9  N   UNL     1       4.321   5.328  18.086  0.00  0.00    +0.000 N 
ATOM     10  C   UNL     1       5.422   5.072  18.882  0.00  0.00    +0.000 A 
ATOM     11  C   UNL     1       6.423   4.660  18.048  0.00  0.00    +0.000 A 
ATOM     12  N   UNL     1       5.899   4.674  16.763  0.00  0.00    +0.000 N 
ATOM     13  C   UNL     1       6.608   4.332  15.539  0.00  0.00    +0.000 C 
ATOM     14  C   UNL     1       4.622   5.074  16.804  0.00  0.00    +0.000 A 
ENDBRANCH   8   9
ENDBRANCH   1   8
TORSDOF 7
ENDMDL
MODEL 3
REMARK VINA RESULT:      -5.3      1.669      2.255
REMARK  Name = 
REMARK  9 active torsions:
REMARK  status: ('A' for Active; 'I' for Inactive)
REMARK    1  A    between atoms: C_1  and  C_2
REMARK    2  A    between atoms: C_2  and  C_3
REMARK    3  A    between atoms: C_3  and  C_4
REMARK    4  A    between atoms: C_4  and  C_5
REMARK    5  A    between atoms: C_5  and  C_6
REMARK    6  A    between atoms: C_6  and  C_7
REMARK    7  A    between atoms: C_7  and  C_8
REMARK    8  A    between atoms: C_8  and  N_9
REMARK    9  A    between atoms: N_12  and  C_13
REMARK                            x       y       z     vdW  Elec       q    Type
REMARK                         _______ _______ _______ _____ _____    ______ ____
ROOT
ATOM      1  C   UNL     1       5.792   4.037  16.258  0.00  0.00    +0.000 C 
ENDROOT
BRANCH   1   2
ATOM      2  C   UNL     1       6.907   4.877  15.643  0.00  0.00    +0.000 C 
BRANCH   2   3
ATOM      3  C   UNL     1       6.857   4.917  14.114  0.00  0.00    +0.000 C 
BRANCH   3   4
ATOM      4  C   UNL     1       6.115   3.700  13.574  0.00  0.00    +0.000 C 
BRANCH   4   5
ATOM      5  C   UNL     1       6.435   3.444  12.102  0.00  0.00    +0.000 C 
BRANCH   5   7
ATOM      6  C   UNL     1       6.323   1.114  11.135  0.00  0.00    +0.000 C 
ATOM      7  C   UNL     1       5.533   2.335  11.560  0.00  0.00    +0.000 C 
ENDBRANCH   5   7
ENDBRANCH   4   5
ENDBRANCH   3   4
ENDBRANCH   2   3
ENDBRANCH   1   2
BRANCH   1   8
ATOM      8  C   UNL     1       4.639   4.888  16.780  0.00  0.00    +0.000 C 
BRANCH   8   9
ATOM      9  N   UNL     1       3.845   4.153  17.762  0.00  0.00    +0.000 N 
ATOM     10  C   UNL     1       4.276   3.714  19.000  0.00  0.00    +0.000 A 
ATOM     11  C   UNL     1       3.233   3.031  19.560  0.00  0.00    +0.000 A 
ATOM     12  N   UNL     1       2.192   3.077  18.643  0.00  0.00    +0.000 N 
ATOM     13  C   UNL     1       0.881   2.463  18.795  0.00  0.00    +0.000 C 
ATOM     14  C   UNL     1       2.576   3.767  17.562  0.00  0.00    +0.000 A 
ENDBRANCH   8   9
ENDBRANCH   1   8
TORSDOF 7
ENDMDL
MODEL 4
REMARK VINA RESULT:      -5.2      1.573      2.813
REMARK  Name = 
REMARK  9 active torsions:
REMARK  status: ('A' for Active; 'I' for Inactive)
REMARK    1  A    between atoms: C_1  and  C_2
REMARK    2  A    between atoms: C_2  and  C_3
REMARK    3  A    between atoms: C_3  and  C_4
REMARK    4  A    between atoms: C_4  and  C_5
REMARK    5  A    between atoms: C_5  and  C_6
REMARK    6  A    between atoms: C_6  and  C_7
REMARK    7  A    between atoms: C_7  and  C_8
REMARK    8  A    between atoms: C_8  and  N_9
REMARK    9  A    between atoms: N_12  and  C_13
REMARK                            x       y       z     vdW  Elec       q    Type
REMARK                         _______ _______ _______ _____ _____    ______ ____
ROOT
ATOM      1  C   UNL     1       5.005   5.539  17.383  0.00  0.00    +0.000 C 
ENDROOT
BRANCH   1   2
ATOM      2  C   UNL     1       5.253   5.247  15.906  0.00  0.00    +0.000 C 
BRANCH   2   3
ATOM      3  C   UNL     1       6.740   5.168  15.550  0.00  0.00    +0.000 C 
BRANCH   3   4
ATOM      4  C   UNL     1       6.921   4.643  14.131  0.00  0.00    +0.000 C 
BRANCH   4   5
ATOM      5  C   UNL     1       5.798   3.687  13.728  0.00  0.00    +0.000 C 
BRANCH   5   7
ATOM      6  C   UNL     1       4.530   3.224  11.594  0.00  0.00    +0.000 C 
ATOM      7  C   UNL     1       5.895   3.374  12.235  0.00  0.00    +0.000 C 
ENDBRANCH   5   7
ENDBRANCH   4   5
ENDBRANCH   3   4
ENDBRANCH   2   3
ENDBRANCH   1   2
BRANCH   1   8
ATOM      8  C   UNL     1       3.559   5.932  17.665  0.00  0.00    +0.000 C 
BRANCH   8   9
ATOM      9  N   UNL     1       2.811   4.810  18.231  0.00  0.00    +0.000 N 
ATOM     10  C   UNL     1       2.205   3.790  17.524  0.00  0.00    +0.000 A 
ATOM     11  C   UNL     1       1.577   2.994  18.440  0.00  0.00    +0.000 A 
ATOM     12  N   UNL     1       1.823   3.555  19.685  0.00  0.00    +0.000 N 
ATOM     13  C   UNL     1       1.334   3.063  20.965  0.00  0.00    +0.000 C 
ATOM     14  C   UNL     1       2.579   4.651  19.543  0.00  0.00    +0.000 A 
ENDBRANCH   8   9
ENDBRANCH   1   8
TORSDOF 7
ENDMDL
MODEL 5
REMARK VINA RESULT:      -5.1      1.234      2.184
REMARK  Name = 
REMARK  9 active torsions:
REMARK  status: ('A' for Active; 'I' for Inactive)
REMARK    1  A    between atoms: C_1  and  C_2
REMARK    2  A    between atoms: C_2  and  C_3
REMARK    3  A    between atoms: C_3  and  C_4
REMARK    4  A    between atoms: C_4  and  C_5
REMARK    5  A    between atoms: C_5  and  C_6
REMARK    6  A    between atoms: C_6  and  C_7
REMARK    7  A    between atoms: C_7  and  C_8
REMARK    8  A    between atoms: C_8  and  N_9
REMARK    9  A    between atoms: N_12  and  C_13
REMARK                            x       y       z     vdW  Elec       q    Type
REMARK                         _______ _______ _______ _____ _____    ______ ____
ROOT
ATOM      1  C   UNL     1       5.757   5.824  16.902  0.00  0.00    +0.000 C 
ENDROOT
BRANCH   1   2
ATOM      2  C   UNL     1       5.697   5.735  15.380  0.00  0.00    +0.000 C 
BRANCH   2   3
ATOM      3  C   UNL     1       6.344   4.464  14.826  0.00  0.00    +0.000 C 
BRANCH   3   4
ATOM      4  C   UNL     1       5.486   3.869  13.715  0.00  0.00    +0.000 C 
BRANCH   4   5
ATOM      5  C   UNL     1       6.322   3.465  12.502  0.00  0.00    +0.000 C 
BRANCH   5   7
ATOM      6  C   UNL     1       4.122   3.279  11.278  0.00  0.00    +0.000 C 
ATOM      7  C   UNL     1       5.471   2.640  11.537  0.00  0.00    +0.000 C 
ENDBRANCH   5   7
ENDBRANCH   4   5
ENDBRANCH   3   4
ENDBRANCH   2   3
ENDBRANCH   1   2
BRANCH   1   8
ATOM      8  C   UNL     1       4.425   6.242  17.515  0.00  0.00    +0.000 C 
BRANCH   8   9
ATOM      9  N   UNL     1       3.890   5.190  18.377  0.00  0.00    +0.000 N 
ATOM     10  C   UNL     1       3.836   3.840  18.086  0.00  0.00    +0.000 A 
ATOM     11  C   UNL     1       3.214   3.234  19.141  0.00  0.00    +0.000 A 
ATOM     12  N   UNL     1       2.909   4.237  20.050  0.00  0.00    +0.000 N 
ATOM     13  C   UNL     1       2.219   4.070  21.321  0.00  0.00    +0.000 C 
ATOM     14  C   UNL     1       3.331   5.416  19.577  0.00  0.00    +0.000 A 
ENDBRANCH   8   9
ENDBRANCH   1   8
TORSDOF 7
ENDMDL
MODEL 6
REMARK VINA RESULT:      -5.1      4.777      7.563
REMARK  Name = 
REMARK  9 active torsions:
REMARK  status: ('A' for Active; 'I' for Inactive)
REMARK    1  A    between atoms: C_1  and  C_2
REMARK    2  A    between atoms: C_2  and  C_3
REMARK    3  A    between atoms: C_3  and  C_4
REMARK    4  A    between atoms: C_4  and  C_5
REMARK    5  A    between atoms: C_5  and  C_6
REMARK    6  A    between atoms: C_6  and  C_7
REMARK    7  A    between atoms: C_7  and  C_8
REMARK    8  A    between atoms: C_8  and  N_9
REMARK    9  A    between atoms: N_12  and  C_13
REMARK                            x       y       z     vdW  Elec       q    Type
REMARK                         _______ _______ _______ _____ _____    ______ ____
ROOT
ATOM      1  C   UNL     1       7.462   6.820  17.735  0.00  0.00    +0.000 C 
ENDROOT
BRANCH   1   2
ATOM      2  C   UNL     1       8.345   7.806  18.496  0.00  0.00    +0.000 C 
BRANCH   2   3
ATOM      3  C   UNL     1       8.219   9.243  17.985  0.00  0.00    +0.000 C 
BRANCH   3   4
ATOM      4  C   UNL     1       9.133  10.172  18.776  0.00  0.00    +0.000 C 
BRANCH   4   5
ATOM      5  C   UNL     1       9.371  11.494  18.048  0.00  0.00    +0.000 C 
BRANCH   5   7
ATOM      6  C   UNL     1      11.623  11.604  19.184  0.00  0.00    +0.000 C 
ATOM      7  C   UNL     1      10.871  11.728  17.874  0.00  0.00    +0.000 C 
ENDBRANCH   5   7
ENDBRANCH   4   5
ENDBRANCH   3   4
ENDBRANCH   2   3
ENDBRANCH   1   2
BRANCH   1   8
ATOM      8  C   UNL     1       7.232   5.527  18.509  0.00  0.00    +0.000 C 
BRANCH   8   9
ATOM      9  N   UNL     1       6.085   4.793  17.977  0.00  0.00    +0.000 N 
ATOM     10  C   UNL     1       5.681   4.750  16.656  0.00  0.00    +0.000 A 
ATOM     11  C   UNL     1       4.542   3.997  16.616  0.00  0.00    +0.000 A 
ATOM     12  N   UNL     1       4.285   3.599  17.920  0.00  0.00    +0.000 N 
ATOM     13  C   UNL     1       3.158   2.796  18.372  0.00  0.00    +0.000 C 
ATOM     14  C   UNL     1       5.233   4.083  18.733  0.00  0.00    +0.000 A 
ENDBRANCH   8   9
ENDBRANCH   1   8
TORSDOF 7
ENDMDL
MODEL 7
REMARK VINA RESULT:      -5.1      1.032      1.374
REMARK  Name = 
REMARK  9 active torsions:
REMARK  status: ('A' for Active; 'I' for Inactive)
REMARK    1  A    between atoms: C_1  and  C_2
REMARK    2  A    between atoms: C_2  and  C_3
REMARK    3  A    between atoms: C_3  and  C_4
REMARK    4  A    between atoms: C_4  and  C_5
REMARK    5  A    between atoms: C_5  and  C_6
REMARK    6  A    between atoms: C_6  and  C_7
REMARK    7  A    between atoms: C_7  and  C_8
REMARK    8  A    between atoms: C_8  and  N_9
REMARK    9  A    between atoms: N_12  and  C_13
REMARK                            x       y       z     vdW  Elec       q    Type
REMARK                         _______ _______ _______ _____ _____    ______ ____
ROOT
ATOM      1  C   UNL     1       5.498   5.335  16.184  0.00  0.00    +0.000 C 
ENDROOT
BRANCH   1   2
ATOM      2  C   UNL     1       5.888   5.282  14.709  0.00  0.00    +0.000 C 
BRANCH   2   3
ATOM      3  C   UNL     1       5.416   4.006  14.008  0.00  0.00    +0.000 C 
BRANCH   3   4
ATOM      4  C   UNL     1       6.397   3.606  12.913  0.00  0.00    +0.000 C 
BRANCH   4   5
ATOM      5  C   UNL     1       5.679   3.148  11.643  0.00  0.00    +0.000 C 
BRANCH   5   7
ATOM      6  C   UNL     1       3.472   3.446  10.454  0.00  0.00    +0.000 C 
ATOM      7  C   UNL     1       4.173   3.361  11.795  0.00  0.00    +0.000 C 
ENDBRANCH   5   7
ENDBRANCH   4   5
ENDBRANCH   3   4
ENDBRANCH   2   3
ENDBRANCH   1   2
BRANCH   1   8
ATOM      8  C   UNL     1       4.887   4.027  16.673  0.00  0.00    +0.000 C 
BRANCH   8   9
ATOM      9  N   UNL     1       4.228   4.206  17.966  0.00  0.00    +0.000 N 
ATOM     10  C   UNL     1       4.036   5.403  18.629  0.00  0.00    +0.000 A 
ATOM     11  C   UNL     1       3.432   5.102  19.817  0.00  0.00    +0.000 A 
ATOM     12  N   UNL     1       3.270   3.724  19.842  0.00  0.00    +0.000 N 
ATOM     13  C   UNL     1       2.690   2.943  20.924  0.00  0.00    +0.000 C 
ATOM     14  C   UNL     1       3.751   3.196  18.709  0.00  0.00    +0.000 A 
ENDBRANCH   8   9
ENDBRANCH   1   8
TORSDOF 7
ENDMDL
MODEL 8
REMARK VINA RESULT:      -5.0      1.204      1.620
REMARK  Name = 
REMARK  9 active torsions:
REMARK  status: ('A' for Active; 'I' for Inactive)
REMARK    1  A    between atoms: C_1  and  C_2
REMARK    2  A    between atoms: C_2  and  C_3
REMARK    3  A    between atoms: C_3  and  C_4
REMARK    4  A    between atoms: C_4  and  C_5
REMARK    5  A    between atoms: C_5  and  C_6
REMARK    6  A    between atoms: C_6  and  C_7
REMARK    7  A    between atoms: C_7  and  C_8
REMARK    8  A    between atoms: C_8  and  N_9
REMARK    9  A    between atoms: N_12  and  C_13
REMARK                            x       y       z     vdW  Elec       q    Type
REMARK                         _______ _______ _______ _____ _____    ______ ____
ROOT
ATOM      1  C   UNL     1       5.756   4.539  14.446  0.00  0.00    +0.000 C 
ENDROOT
BRANCH   1   2
ATOM      2  C   UNL     1       6.912   4.819  13.490  0.00  0.00    +0.000 C 
BRANCH   2   3
ATOM      3  C   UNL     1       6.874   3.951  12.231  0.00  0.00    +0.000 C 
BRANCH   3   4
ATOM      4  C   UNL     1       5.894   2.796  12.409  0.00  0.00    +0.000 C 
BRANCH   4   5
ATOM      5  C   UNL     1       5.023   2.591  11.170  0.00  0.00    +0.000 C 
BRANCH   5   7
ATOM      6  C   UNL     1       3.200   3.827   9.934  0.00  0.00    +0.000 C 
ATOM      7  C   UNL     1       3.748   3.428  11.289  0.00  0.00    +0.000 C 
ENDBRANCH   5   7
ENDBRANCH   4   5
ENDBRANCH   3   4
ENDBRANCH   2   3
ENDBRANCH   1   2
BRANCH   1   8
ATOM      8  C   UNL     1       5.549   5.662  15.456  0.00  0.00    +0.000 C 
BRANCH   8   9
ATOM      9  N   UNL     1       4.706   5.222  16.566  0.00  0.00    +0.000 N 
ATOM     10  C   UNL     1       4.318   3.923  16.836  0.00  0.00    +0.000 A 
ATOM     11  C   UNL     1       3.496   3.976  17.927  0.00  0.00    +0.000 A 
ATOM     12  N   UNL     1       3.410   5.311  18.293  0.00  0.00    +0.000 N 
ATOM     13  C   UNL     1       2.625   5.855  19.391  0.00  0.00    +0.000 C 
ATOM     14  C   UNL     1       4.154   6.053  17.464  0.00  0.00    +0.000 A 
ENDBRANCH   8   9
ENDBRANCH   1   8
TORSDOF 7
ENDMDL
MODEL 9
REMARK VINA RESULT:      -5.0      5.128      7.258
REMARK  Name = 
REMARK  9 active torsions:
REMARK  status: ('A' for Active; 'I' for Inactive)
REMARK    1  A    between atoms: C_1  and  C_2
REMARK    2  A    between atoms: C_2  and  C_3
REMARK    3  A    between atoms: C_3  and  C_4
REMARK    4  A    between atoms: C_4  and  C_5
REMARK    5  A    between atoms: C_5  and  C_6
REMARK    6  A    between atoms: C_6  and  C_7
REMARK    7  A    between atoms: C_7  and  C_8
REMARK    8  A    between atoms: C_8  and  N_9
REMARK    9  A    between atoms: N_12  and  C_13
REMARK                            x       y       z     vdW  Elec       q    Type
REMARK                         _______ _______ _______ _____ _____    ______ ____
ROOT
ATOM      1  C   UNL     1       2.793   6.246  18.888  0.00  0.00    +0.000 C 
ENDROOT
BRANCH   1   2
ATOM      2  C   UNL     1       2.909   5.166  17.815  0.00  0.00    +0.000 C 
BRANCH   2   3
ATOM      3  C   UNL     1       1.642   4.321  17.674  0.00  0.00    +0.000 C 
BRANCH   3   4
ATOM      4  C   UNL     1       1.819   2.974  18.367  0.00  0.00    +0.000 C 
BRANCH   4   5
ATOM      5  C   UNL     1       0.762   2.745  19.446  0.00  0.00    +0.000 C 
BRANCH   5   7
ATOM      6  C   UNL     1       2.110   2.766  21.581  0.00  0.00    +0.000 C 
ATOM      7  C   UNL     1       1.131   3.525  20.708  0.00  0.00    +0.000 C 
ENDBRANCH   5   7
ENDBRANCH   4   5
ENDBRANCH   3   4
ENDBRANCH   2   3
ENDBRANCH   1   2
BRANCH   1   8
ATOM      8  C   UNL     1       2.552   7.631  18.297  0.00  0.00    +0.000 C 
BRANCH   8   9
ATOM      9  N   UNL     1       1.764   8.460  19.207  0.00  0.00    +0.000 N 
ATOM     10  C   UNL     1       1.127   9.645  18.891  0.00  0.00    +0.000 A 
ATOM     11  C   UNL     1       0.559  10.107  20.045  0.00  0.00    +0.000 A 
ATOM     12  N   UNL     1       0.867   9.184  21.035  0.00  0.00    +0.000 N 
ATOM     13  C   UNL     1       0.491   9.266  22.438  0.00  0.00    +0.000 C 
ATOM     14  C   UNL     1       1.591   8.188  20.510  0.00  0.00    +0.000 A 
ENDBRANCH   8   9
ENDBRANCH   1   8
TORSDOF 7
ENDMDL
