MODEL 1
REMARK VINA RESULT:      -6.8      0.000      0.000
REMARK  Name = 
REMARK  5 active torsions:
REMARK  status: ('A' for Active; 'I' for Inactive)
REMARK    1  A    between atoms: O_1  and  C_2
REMARK    2  A    between atoms: C_7  and  C_8
REMARK    3  A    between atoms: C_8  and  N_10
REMARK    4  A    between atoms: N_10  and  C_11
REMARK    5  A    between atoms: C_11  and  C_12
REMARK                            x       y       z     vdW  Elec       q    Type
REMARK                         _______ _______ _______ _____ _____    ______ ____
ROOT
ATOM      1  N   UNL     1       4.444   3.374  17.054  0.00  0.00    +0.000 N 
ATOM      2  H   UNL     1       4.808   2.535  17.501  0.00  0.00    +0.000 HD
ENDROOT
BRANCH   1   3
ATOM      3  C   UNL     1       5.364   4.161  16.367  0.00  0.00    +0.000 C 
ATOM      4  S   UNL     1       5.479   4.092  14.678  0.00  0.00    +0.000 S 
BRANCH   3  10
ATOM      5  C   UNL     1       6.498   4.838  18.591  0.00  0.00    +0.000 A 
ATOM      6  C   UNL     1       7.321   5.698  19.338  0.00  0.00    +0.000 A 
ATOM      7  C   UNL     1       7.908   6.809  18.738  0.00  0.00    +0.000 A 
ATOM      8  C   UNL     1       7.679   7.063  17.393  0.00  0.00    +0.000 A 
ATOM      9  C   UNL     1       6.860   6.204  16.647  0.00  0.00    +0.000 A 
ATOM     10  C   UNL     1       6.249   5.070  17.223  0.00  0.00    +0.000 A 
BRANCH   5  11
ATOM     11  O   UNL     1       5.948   3.761  19.242  0.00  0.00    +0.000 OA
ATOM     12  H   UNL     1       6.132   2.956  18.728  0.00  0.00    +0.000 HD
ENDBRANCH   5  11
ENDBRANCH   3  10
ENDBRANCH   1   3
BRANCH   1  13
ATOM     13  C   UNL     1       3.019   3.633  17.181  0.00  0.00    +0.000 C 
BRANCH  13  14
ATOM     14  C   UNL     1       2.709   4.751  18.147  0.00  0.00    +0.000 A 
ATOM     15  C   UNL     1       2.395   4.459  19.481  0.00  0.00    +0.000 A 
ATOM     16  C   UNL     1       2.068   5.479  20.377  0.00  0.00    +0.000 A 
ATOM     17  C   UNL     1       2.057   6.810  19.952  0.00  0.00    +0.000 A 
ATOM     18 CL   UNL     1       1.645   8.021  21.116  0.00  0.00    +0.000 Cl
ATOM     19  C   UNL     1       2.375   7.117  18.626  0.00  0.00    +0.000 A 
ATOM     20 CL   UNL     1       2.366   8.739  18.027  0.00  0.00    +0.000 Cl
ATOM     21  C   UNL     1       2.703   6.090  17.730  0.00  0.00    +0.000 A 
ENDBRANCH  13  14
ENDBRANCH   1  13
TORSDOF 5
ENDMDL
MODEL 2
REMARK VINA RESULT:      -6.8      1.193      1.565
REMARK  Name = 
REMARK  5 active torsions:
REMARK  status: ('A' for Active; 'I' for Inactive)
REMARK    1  A    between atoms: O_1  and  C_2
REMARK    2  A    between atoms: C_7  and  C_8
REMARK    3  A    between atoms: C_8  and  N_10
REMARK    4  A    between atoms: N_10  and  C_11
REMARK    5  A    between atoms: C_11  and  C_12
REMARK                            x       y       z     vdW  Elec       q    Type
REMARK                         _______ _______ _______ _____ _____    ______ ____
ROOT
ATOM      1  N   UNL     1       4.939   3.389  17.378  0.00  0.00    +0.000 N 
ATOM      2  H   UNL     1       5.378   2.702  17.988  0.00  0.00    +0.000 HD
ENDROOT
BRANCH   1   3
ATOM      3  C   UNL     1       5.789   4.129  16.563  0.00  0.00    +0.000 C 
ATOM      4  S   UNL     1       5.924   3.789  14.909  0.00  0.00    +0.000 S 
BRANCH   3  10
ATOM      5  C   UNL     1       6.527   6.594  16.832  0.00  0.00    +0.000 A 
ATOM      6  C   UNL     1       7.268   7.589  17.492  0.00  0.00    +0.000 A 
ATOM      7  C   UNL     1       8.079   7.261  18.575  0.00  0.00    +0.000 A 
ATOM      8  C   UNL     1       8.152   5.943  19.003  0.00  0.00    +0.000 A 
ATOM      9  C   UNL     1       7.412   4.952  18.347  0.00  0.00    +0.000 A 
ATOM     10  C   UNL     1       6.580   5.247  17.247  0.00  0.00    +0.000 A 
BRANCH   5  11
ATOM     11  O   UNL     1       5.747   6.981  15.770  0.00  0.00    +0.000 OA
ATOM     12  H   UNL     1       5.839   6.327  15.057  0.00  0.00    +0.000 HD
ENDBRANCH   5  11
ENDBRANCH   3  10
ENDBRANCH   1   3
BRANCH   1  13
ATOM     13  C   UNL     1       3.490   3.497  17.431  0.00  0.00    +0.000 C 
BRANCH  13  14
ATOM     14  C   UNL     1       3.017   4.633  18.305  0.00  0.00    +0.000 A 
ATOM     15  C   UNL     1       2.578   4.379  19.610  0.00  0.00    +0.000 A 
ATOM     16  C   UNL     1       2.101   5.415  20.418  0.00  0.00    +0.000 A 
ATOM     17  C   UNL     1       2.063   6.724  19.930  0.00  0.00    +0.000 A 
ATOM     18 CL   UNL     1       1.463   7.956  20.984  0.00  0.00    +0.000 Cl
ATOM     19  C   UNL     1       2.505   6.993  18.632  0.00  0.00    +0.000 A 
ATOM     20 CL   UNL     1       2.472   8.585  17.958  0.00  0.00    +0.000 Cl
ATOM     21  C   UNL     1       2.983   5.951  17.825  0.00  0.00    +0.000 A 
ENDBRANCH  13  14
ENDBRANCH   1  13
TORSDOF 5
ENDMDL
MODEL 3
REMARK VINA RESULT:      -6.8      1.797      2.410
REMARK  Name = 
REMARK  5 active torsions:
REMARK  status: ('A' for Active; 'I' for Inactive)
REMARK    1  A    between atoms: O_1  and  C_2
REMARK    2  A    between atoms: C_7  and  C_8
REMARK    3  A    between atoms: C_8  and  N_10
REMARK    4  A    between atoms: N_10  and  C_11
REMARK    5  A    between atoms: C_11  and  C_12
REMARK                            x       y       z     vdW  Elec       q    Type
REMARK                         _______ _______ _______ _____ _____    ______ ____
ROOT
ATOM      1  N   UNL     1       4.660   4.915  16.259  0.00  0.00    +0.000 N 
ATOM      2  H   UNL     1       4.047   5.713  16.415  0.00  0.00    +0.000 HD
ENDROOT
BRANCH   1   3
ATOM      3  C   UNL     1       5.979   5.200  15.924  0.00  0.00    +0.000 C 
ATOM      4  S   UNL     1       6.617   4.734  14.425  0.00  0.00    +0.000 S 
BRANCH   3  10
ATOM      5  C   UNL     1       7.217   5.353  18.190  0.00  0.00    +0.000 A 
ATOM      6  C   UNL     1       7.973   6.073  19.131  0.00  0.00    +0.000 A 
ATOM      7  C   UNL     1       8.326   7.397  18.885  0.00  0.00    +0.000 A 
ATOM      8  C   UNL     1       7.928   8.005  17.703  0.00  0.00    +0.000 A 
ATOM      9  C   UNL     1       7.176   7.287  16.764  0.00  0.00    +0.000 A 
ATOM     10  C   UNL     1       6.801   5.944  16.980  0.00  0.00    +0.000 A 
BRANCH   5  11
ATOM     11  O   UNL     1       6.900   4.051  18.492  0.00  0.00    +0.000 OA
ATOM     12  H   UNL     1       7.510   3.731  19.179  0.00  0.00    +0.000 HD
ENDBRANCH   5  11
ENDBRANCH   3  10
ENDBRANCH   1   3
BRANCH   1  13
ATOM     13  C   UNL     1       4.081   3.591  16.417  0.00  0.00    +0.000 C 
BRANCH  13  14
ATOM     14  C   UNL     1       3.397   3.403  17.749  0.00  0.00    +0.000 A 
ATOM     15  C   UNL     1       3.137   2.113  18.230  0.00  0.00    +0.000 A 
ATOM     16  C   UNL     1       2.471   1.923  19.443  0.00  0.00    +0.000 A 
ATOM     17  C   UNL     1       2.060   3.025  20.198  0.00  0.00    +0.000 A 
ATOM     18 CL   UNL     1       1.244   2.716  21.690  0.00  0.00    +0.000 Cl
ATOM     19  C   UNL     1       2.319   4.318  19.735  0.00  0.00    +0.000 A 
ATOM     20 CL   UNL     1       1.827   5.726  20.608  0.00  0.00    +0.000 Cl
ATOM     21  C   UNL     1       2.989   4.504  18.517  0.00  0.00    +0.000 A 
ENDBRANCH  13  14
ENDBRANCH   1  13
TORSDOF 5
ENDMDL
MODEL 4
REMARK VINA RESULT:      -6.8      3.406      4.452
REMARK  Name = 
REMARK  5 active torsions:
REMARK  status: ('A' for Active; 'I' for Inactive)
REMARK    1  A    between atoms: O_1  and  C_2
REMARK    2  A    between atoms: C_7  and  C_8
REMARK    3  A    between atoms: C_8  and  N_10
REMARK    4  A    between atoms: N_10  and  C_11
REMARK    5  A    between atoms: C_11  and  C_12
REMARK                            x       y       z     vdW  Elec       q    Type
REMARK                         _______ _______ _______ _____ _____    ______ ____
ROOT
ATOM      1  N   UNL     1       5.186   6.187  15.949  0.00  0.00    +0.000 N 
ATOM      2  H   UNL     1       4.690   6.501  15.116  0.00  0.00    +0.000 HD
ENDROOT
BRANCH   1   3
ATOM      3  C   UNL     1       6.208   5.265  15.754  0.00  0.00    +0.000 C 
ATOM      4  S   UNL     1       7.251   4.839  17.019  0.00  0.00    +0.000 S 
BRANCH   3  10
ATOM      5  C   UNL     1       7.408   4.951  13.484  0.00  0.00    +0.000 A 
ATOM      6  C   UNL     1       7.479   4.383  12.200  0.00  0.00    +0.000 A 
ATOM      7  C   UNL     1       6.473   3.534  11.749  0.00  0.00    +0.000 A 
ATOM      8  C   UNL     1       5.396   3.245  12.576  0.00  0.00    +0.000 A 
ATOM      9  C   UNL     1       5.327   3.809  13.857  0.00  0.00    +0.000 A 
ATOM     10  C   UNL     1       6.328   4.674  14.346  0.00  0.00    +0.000 A 
BRANCH   5  11
ATOM     11  O   UNL     1       8.432   5.782  13.868  0.00  0.00    +0.000 OA
ATOM     12  H   UNL     1       9.225   5.562  13.351  0.00  0.00    +0.000 HD
ENDBRANCH   5  11
ENDBRANCH   3  10
ENDBRANCH   1   3
BRANCH   1  13
ATOM     13  C   UNL     1       4.769   6.751  17.223  0.00  0.00    +0.000 C 
BRANCH  13  14
ATOM     14  C   UNL     1       3.762   5.890  17.945  0.00  0.00    +0.000 A 
ATOM     15  C   UNL     1       3.091   6.387  19.070  0.00  0.00    +0.000 A 
ATOM     16  C   UNL     1       2.183   5.590  19.771  0.00  0.00    +0.000 A 
ATOM     17  C   UNL     1       1.930   4.281  19.352  0.00  0.00    +0.000 A 
ATOM     18 CL   UNL     1       0.794   3.352  20.266  0.00  0.00    +0.000 Cl
ATOM     19  C   UNL     1       2.586   3.774  18.227  0.00  0.00    +0.000 A 
ATOM     20 CL   UNL     1       2.332   2.160  17.662  0.00  0.00    +0.000 Cl
ATOM     21  C   UNL     1       3.495   4.578  17.526  0.00  0.00    +0.000 A 
ENDBRANCH  13  14
ENDBRANCH   1  13
TORSDOF 5
ENDMDL
MODEL 5
REMARK VINA RESULT:      -6.7      3.762      6.261
REMARK  Name = 
REMARK  5 active torsions:
REMARK  status: ('A' for Active; 'I' for Inactive)
REMARK    1  A    between atoms: O_1  and  C_2
REMARK    2  A    between atoms: C_7  and  C_8
REMARK    3  A    between atoms: C_8  and  N_10
REMARK    4  A    between atoms: N_10  and  C_11
REMARK    5  A    between atoms: C_11  and  C_12
REMARK                            x       y       z     vdW  Elec       q    Type
REMARK                         _______ _______ _______ _____ _____    ______ ____
ROOT
ATOM      1  N   UNL     1       4.524   5.672  18.372  0.00  0.00    +0.000 N 
ATOM      2  H   UNL     1       5.181   6.443  18.474  0.00  0.00    +0.000 HD
ENDROOT
BRANCH   1   3
ATOM      3  C   UNL     1       3.197   5.940  18.694  0.00  0.00    +0.000 C 
ATOM      4  S   UNL     1       2.490   7.430  18.307  0.00  0.00    +0.000 S 
BRANCH   3  10
ATOM      5  C   UNL     1       1.525   3.967  18.755  0.00  0.00    +0.000 A 
ATOM      6  C   UNL     1       0.849   2.950  19.451  0.00  0.00    +0.000 A 
ATOM      7  C   UNL     1       1.064   2.768  20.814  0.00  0.00    +0.000 A 
ATOM      8  C   UNL     1       1.954   3.596  21.486  0.00  0.00    +0.000 A 
ATOM      9  C   UNL     1       2.629   4.608  20.791  0.00  0.00    +0.000 A 
ATOM     10  C   UNL     1       2.435   4.821  19.410  0.00  0.00    +0.000 A 
BRANCH   5  11
ATOM     11  O   UNL     1       1.268   4.096  17.412  0.00  0.00    +0.000 OA
ATOM     12  H   UNL     1       0.324   3.924  17.255  0.00  0.00    +0.000 HD
ENDBRANCH   5  11
ENDBRANCH   3  10
ENDBRANCH   1   3
BRANCH   1  13
ATOM     13  C   UNL     1       5.053   4.405  17.895  0.00  0.00    +0.000 C 
BRANCH  13  14
ATOM     14  C   UNL     1       5.734   4.519  16.553  0.00  0.00    +0.000 A 
ATOM     15  C   UNL     1       6.998   5.115  16.456  0.00  0.00    +0.000 A 
ATOM     16  C   UNL     1       7.625   5.263  15.216  0.00  0.00    +0.000 A 
ATOM     17  C   UNL     1       6.996   4.809  14.054  0.00  0.00    +0.000 A 
ATOM     18 CL   UNL     1       7.830   5.023  12.555  0.00  0.00    +0.000 Cl
ATOM     19  C   UNL     1       5.738   4.206  14.136  0.00  0.00    +0.000 A 
ATOM     20 CL   UNL     1       4.895   3.635  12.738  0.00  0.00    +0.000 Cl
ATOM     21  C   UNL     1       5.113   4.058  15.382  0.00  0.00    +0.000 A 
ENDBRANCH  13  14
ENDBRANCH   1  13
TORSDOF 5
ENDMDL
MODEL 6
REMARK VINA RESULT:      -6.6      1.935      3.072
REMARK  Name = 
REMARK  5 active torsions:
REMARK  status: ('A' for Active; 'I' for Inactive)
REMARK    1  A    between atoms: O_1  and  C_2
REMARK    2  A    between atoms: C_7  and  C_8
REMARK    3  A    between atoms: C_8  and  N_10
REMARK    4  A    between atoms: N_10  and  C_11
REMARK    5  A    between atoms: C_11  and  C_12
REMARK                            x       y       z     vdW  Elec       q    Type
REMARK                         _______ _______ _______ _____ _____    ______ ____
ROOT
ATOM      1  N   UNL     1       2.815   4.455  18.784  0.00  0.00    +0.000 N 
ATOM      2  H   UNL     1       1.868   4.427  18.410  0.00  0.00    +0.000 HD
ENDROOT
BRANCH   1   3
ATOM      3  C   UNL     1       3.717   3.533  18.264  0.00  0.00    +0.000 C 
ATOM      4  S   UNL     1       3.523   1.873  18.542  0.00  0.00    +0.000 S 
BRANCH   3  10
ATOM      5  C   UNL     1       6.100   4.509  18.014  0.00  0.00    +0.000 A 
ATOM      6  C   UNL     1       7.138   5.028  17.222  0.00  0.00    +0.000 A 
ATOM      7  C   UNL     1       6.974   5.162  15.846  0.00  0.00    +0.000 A 
ATOM      8  C   UNL     1       5.778   4.776  15.257  0.00  0.00    +0.000 A 
ATOM      9  C   UNL     1       4.744   4.257  16.047  0.00  0.00    +0.000 A 
ATOM     10  C   UNL     1       4.875   4.107  17.443  0.00  0.00    +0.000 A 
BRANCH   5  11
ATOM     11  O   UNL     1       6.324   4.404  19.366  0.00  0.00    +0.000 OA
ATOM     12  H   UNL     1       5.500   4.123  19.799  0.00  0.00    +0.000 HD
ENDBRANCH   5  11
ENDBRANCH   3  10
ENDBRANCH   1   3
BRANCH   1  13
ATOM     13  C   UNL     1       3.100   5.457  19.799  0.00  0.00    +0.000 C 
BRANCH  13  14
ATOM     14  C   UNL     1       2.477   6.797  19.493  0.00  0.00    +0.000 A 
ATOM     15  C   UNL     1       2.616   7.362  18.219  0.00  0.00    +0.000 A 
ATOM     16  C   UNL     1       2.079   8.619  17.932  0.00  0.00    +0.000 A 
ATOM     17  C   UNL     1       1.386   9.328  18.918  0.00  0.00    +0.000 A 
ATOM     18 CL   UNL     1       0.745  10.876  18.492  0.00  0.00    +0.000 Cl
ATOM     19  C   UNL     1       1.233   8.773  20.192  0.00  0.00    +0.000 A 
ATOM     20 CL   UNL     1       0.402   9.600  21.463  0.00  0.00    +0.000 Cl
ATOM     21  C   UNL     1       1.773   7.511  20.475  0.00  0.00    +0.000 A 
ENDBRANCH  13  14
ENDBRANCH   1  13
TORSDOF 5
ENDMDL
MODEL 7
REMARK VINA RESULT:      -6.6      3.664      5.211
REMARK  Name = 
REMARK  5 active torsions:
REMARK  status: ('A' for Active; 'I' for Inactive)
REMARK    1  A    between atoms: O_1  and  C_2
REMARK    2  A    between atoms: C_7  and  C_8
REMARK    3  A    between atoms: C_8  and  N_10
REMARK    4  A    between atoms: N_10  and  C_11
REMARK    5  A    between atoms: C_11  and  C_12
REMARK                            x       y       z     vdW  Elec       q    Type
REMARK                         _______ _______ _______ _____ _____    ______ ____
ROOT
ATOM      1  N   UNL     1       1.950   7.152  18.037  0.00  0.00    +0.000 N 
ATOM      2  H   UNL     1       1.058   6.942  17.594  0.00  0.00    +0.000 HD
ENDROOT
BRANCH   1   3
ATOM      3  C   UNL     1       2.804   6.076  18.258  0.00  0.00    +0.000 C 
ATOM      4  S   UNL     1       4.358   6.046  17.586  0.00  0.00    +0.000 S 
BRANCH   3  10
ATOM      5  C   UNL     1       1.467   3.891  18.617  0.00  0.00    +0.000 A 
ATOM      6  C   UNL     1       0.986   2.869  19.453  0.00  0.00    +0.000 A 
ATOM      7  C   UNL     1       1.275   2.877  20.814  0.00  0.00    +0.000 A 
ATOM      8  C   UNL     1       2.046   3.902  21.346  0.00  0.00    +0.000 A 
ATOM      9  C   UNL     1       2.528   4.920  20.512  0.00  0.00    +0.000 A 
ATOM     10  C   UNL     1       2.254   4.944  19.129  0.00  0.00    +0.000 A 
BRANCH   5  11
ATOM     11  O   UNL     1       1.145   3.826  17.284  0.00  0.00    +0.000 OA
ATOM     12  H   UNL     1       0.841   4.701  16.991  0.00  0.00    +0.000 HD
ENDBRANCH   5  11
ENDBRANCH   3  10
ENDBRANCH   1   3
BRANCH   1  13
ATOM     13  C   UNL     1       2.217   8.543  18.370  0.00  0.00    +0.000 C 
BRANCH  13  14
ATOM     14  C   UNL     1       1.410   9.031  19.548  0.00  0.00    +0.000 A 
ATOM     15  C   UNL     1       1.547   8.412  20.797  0.00  0.00    +0.000 A 
ATOM     16  C   UNL     1       0.779   8.828  21.888  0.00  0.00    +0.000 A 
ATOM     17  C   UNL     1      -0.134   9.876  21.745  0.00  0.00    +0.000 A 
ATOM     18 CL   UNL     1      -1.049  10.339  23.137  0.00  0.00    +0.000 Cl
ATOM     19  C   UNL     1      -0.276  10.507  20.506  0.00  0.00    +0.000 A 
ATOM     20 CL   UNL     1      -1.397  11.800  20.253  0.00  0.00    +0.000 Cl
ATOM     21  C   UNL     1       0.497  10.088  19.414  0.00  0.00    +0.000 A 
ENDBRANCH  13  14
ENDBRANCH   1  13
TORSDOF 5
ENDMDL
MODEL 8
REMARK VINA RESULT:      -6.6      2.555      2.903
REMARK  Name = 
REMARK  5 active torsions:
REMARK  status: ('A' for Active; 'I' for Inactive)
REMARK    1  A    between atoms: O_1  and  C_2
REMARK    2  A    between atoms: C_7  and  C_8
REMARK    3  A    between atoms: C_8  and  N_10
REMARK    4  A    between atoms: N_10  and  C_11
REMARK    5  A    between atoms: C_11  and  C_12
REMARK                            x       y       z     vdW  Elec       q    Type
REMARK                         _______ _______ _______ _____ _____    ______ ____
ROOT
ATOM      1  N   UNL     1       5.013   4.179  16.175  0.00  0.00    +0.000 N 
ATOM      2  H   UNL     1       5.023   3.161  16.151  0.00  0.00    +0.000 HD
ENDROOT
BRANCH   1   3
ATOM      3  C   UNL     1       6.166   4.823  15.739  0.00  0.00    +0.000 C 
ATOM      4  S   UNL     1       6.732   4.617  14.155  0.00  0.00    +0.000 S 
BRANCH   3  10
ATOM      5  C   UNL     1       7.505   5.200  17.920  0.00  0.00    +0.000 A 
ATOM      6  C   UNL     1       8.149   6.051  18.834  0.00  0.00    +0.000 A 
ATOM      7  C   UNL     1       8.174   7.426  18.619  0.00  0.00    +0.000 A 
ATOM      8  C   UNL     1       7.561   7.955  17.492  0.00  0.00    +0.000 A 
ATOM      9  C   UNL     1       6.922   7.107  16.579  0.00  0.00    +0.000 A 
ATOM     10  C   UNL     1       6.876   5.709  16.765  0.00  0.00    +0.000 A 
BRANCH   5  11
ATOM     11  O   UNL     1       7.514   3.853  18.190  0.00  0.00    +0.000 OA
ATOM     12  H   UNL     1       6.632   3.590  18.502  0.00  0.00    +0.000 HD
ENDBRANCH   5  11
ENDBRANCH   3  10
ENDBRANCH   1   3
BRANCH   1  13
ATOM     13  C   UNL     1       3.798   4.821  16.651  0.00  0.00    +0.000 C 
BRANCH  13  14
ATOM     14  C   UNL     1       3.263   4.201  17.919  0.00  0.00    +0.000 A 
ATOM     15  C   UNL     1       1.955   4.476  18.337  0.00  0.00    +0.000 A 
ATOM     16  C   UNL     1       1.458   3.940  19.528  0.00  0.00    +0.000 A 
ATOM     17  C   UNL     1       2.264   3.114  20.316  0.00  0.00    +0.000 A 
ATOM     18 CL   UNL     1       1.583   2.484  21.775  0.00  0.00    +0.000 Cl
ATOM     19  C   UNL     1       3.569   2.824  19.907  0.00  0.00    +0.000 A 
ATOM     20 CL   UNL     1       4.626   1.822  20.838  0.00  0.00    +0.000 Cl
ATOM     21  C   UNL     1       4.063   3.363  18.711  0.00  0.00    +0.000 A 
ENDBRANCH  13  14
ENDBRANCH   1  13
TORSDOF 5
ENDMDL
MODEL 9
REMARK VINA RESULT:      -6.6      2.339      3.461
REMARK  Name = 
REMARK  5 active torsions:
REMARK  status: ('A' for Active; 'I' for Inactive)
REMARK    1  A    between atoms: O_1  and  C_2
REMARK    2  A    between atoms: C_7  and  C_8
REMARK    3  A    between atoms: C_8  and  N_10
REMARK    4  A    between atoms: N_10  and  C_11
REMARK    5  A    between atoms: C_11  and  C_12
REMARK                            x       y       z     vdW  Elec       q    Type
REMARK                         _______ _______ _______ _____ _____    ______ ____
ROOT
ATOM      1  N   UNL     1       2.912   5.367  18.837  0.00  0.00    +0.000 N 
ATOM      2  H   UNL     1       1.997   5.241  19.266  0.00  0.00    +0.000 HD
ENDROOT
BRANCH   1   3
ATOM      3  C   UNL     1       3.774   4.276  18.880  0.00  0.00    +0.000 C 
ATOM      4  S   UNL     1       3.483   2.977  19.927  0.00  0.00    +0.000 S 
BRANCH   3  10
ATOM      5  C   UNL     1       6.266   4.728  18.354  0.00  0.00    +0.000 A 
ATOM      6  C   UNL     1       7.346   4.759  17.456  0.00  0.00    +0.000 A 
ATOM      7  C   UNL     1       7.164   4.396  16.124  0.00  0.00    +0.000 A 
ATOM      8  C   UNL     1       5.908   4.000  15.686  0.00  0.00    +0.000 A 
ATOM      9  C   UNL     1       4.832   3.968  16.582  0.00  0.00    +0.000 A 
ATOM     10  C   UNL     1       4.979   4.329  17.938  0.00  0.00    +0.000 A 
BRANCH   5  11
ATOM     11  O   UNL     1       6.510   5.099  19.654  0.00  0.00    +0.000 OA
ATOM     12  H   UNL     1       7.196   4.517  20.023  0.00  0.00    +0.000 HD
ENDBRANCH   5  11
ENDBRANCH   3  10
ENDBRANCH   1   3
BRANCH   1  13
ATOM     13  C   UNL     1       3.191   6.660  18.232  0.00  0.00    +0.000 C 
BRANCH  13  14
ATOM     14  C   UNL     1       2.273   7.751  18.725  0.00  0.00    +0.000 A 
ATOM     15  C   UNL     1       1.791   8.719  17.835  0.00  0.00    +0.000 A 
ATOM     16  C   UNL     1       0.971   9.757  18.283  0.00  0.00    +0.000 A 
ATOM     17  C   UNL     1       0.616   9.838  19.632  0.00  0.00    +0.000 A 
ATOM     18 CL   UNL     1      -0.403  11.148  20.117  0.00  0.00    +0.000 Cl
ATOM     19  C   UNL     1       1.084   8.875  20.531  0.00  0.00    +0.000 A 
ATOM     20 CL   UNL     1       0.698   8.922  22.216  0.00  0.00    +0.000 Cl
ATOM     21  C   UNL     1       1.905   7.834  20.077  0.00  0.00    +0.000 A 
ENDBRANCH  13  14
ENDBRANCH   1  13
TORSDOF 5
ENDMDL
