MODEL 1
REMARK VINA RESULT:      -6.7      0.000      0.000
REMARK  Name = 
REMARK  8 active torsions:
REMARK  status: ('A' for Active; 'I' for Inactive)
REMARK    1  A    between atoms: C_1  and  O_2
REMARK    2  A    between atoms: O_2  and  C_3
REMARK    3  A    between atoms: C_6  and  C_7
REMARK    4  A    between atoms: N_13  and  C_14
REMARK    5  A    between atoms: C_17  and  C_18
REMARK    6  A    between atoms: C_25  and  C_26
REMARK    7  A    between atoms: C_29  and  O_30
REMARK    8  A    between atoms: O_30  and  C_31
REMARK                            x       y       z     vdW  Elec       q    Type
REMARK                         _______ _______ _______ _____ _____    ______ ____
ROOT
ATOM      1  C   UNL     1      -1.485  12.424  21.020  0.00  0.00    +0.000 C 
ATOM      2  C   UNL     1      -1.275  11.427  22.175  0.00  0.00    +0.000 C 
ATOM      3  C   UNL     1      -0.050  10.562  21.902  0.00  0.00    +0.000 C 
ATOM      4  O   UNL     1       0.702  10.235  22.819  0.00  0.00    +0.000 OA
ATOM      5  N   UNL     1       0.111  10.140  20.574  0.00  0.00    +0.000 N 
ATOM      6  C   UNL     1       1.357   9.427  20.317  0.00  0.00    +0.000 C 
ATOM      7  N   UNL     1       1.360   8.690  19.062  0.00  0.00    +0.000 N 
ATOM      8  C   UNL     1       0.999   9.478  17.905  0.00  0.00    +0.000 C 
ATOM      9  S   UNL     1      -0.773   9.707  18.043  0.00  0.00    +0.000 S 
ATOM     10  C   UNL     1      -0.797  10.519  19.587  0.00  0.00    +0.000 C 
ATOM     11  C   UNL     1      -1.650  11.558  19.799  0.00  0.00    +0.000 C 
ENDROOT
BRANCH   7  12
ATOM     12  C   UNL     1       2.286   7.685  18.845  0.00  0.00    +0.000 A 
ATOM     13  C   UNL     1       2.423   6.673  19.809  0.00  0.00    +0.000 A 
ATOM     14  C   UNL     1       3.346   5.638  19.663  0.00  0.00    +0.000 A 
ATOM     15  C   UNL     1       4.168   5.577  18.535  0.00  0.00    +0.000 A 
ATOM     16  C   UNL     1       5.121   4.432  18.379  0.00  0.00    +0.000 C 
ATOM     17  C   UNL     1       4.056   6.596  17.576  0.00  0.00    +0.000 A 
ATOM     18 CL   UNL     1       5.057   6.617  16.166  0.00  0.00    +0.000 Cl
ATOM     19  C   UNL     1       3.128   7.633  17.731  0.00  0.00    +0.000 A 
ENDBRANCH   7  12
BRANCH   1  23
ATOM     20  C   UNL     1       1.353  15.697  20.766  0.00  0.00    +0.000 A 
ATOM     21  C   UNL     1       1.139  14.860  19.653  0.00  0.00    +0.000 A 
ATOM     22  C   UNL     1       0.299  13.737  19.725  0.00  0.00    +0.000 A 
ATOM     23  C   UNL     1      -0.264  13.365  20.945  0.00  0.00    +0.000 A 
ATOM     24  C   UNL     1       0.177  14.064  22.077  0.00  0.00    +0.000 A 
ATOM     25  C   UNL     1       0.888  15.271  22.009  0.00  0.00    +0.000 A 
BRANCH  20  27
ATOM     26  C   UNL     1       3.419  16.853  20.683  0.00  0.00    +0.000 C 
ATOM     27  O   UNL     1       1.988  16.908  20.659  0.00  0.00    +0.000 OA
ENDBRANCH  20  27
BRANCH  25  28
ATOM     28  O   UNL     1       0.917  15.846  23.241  0.00  0.00    +0.000 OA
ATOM     29  C   UNL     1      -0.245  16.382  23.836  0.00  0.00    +0.000 C 
ENDBRANCH  25  28
ENDBRANCH   1  23
BRANCH  11  30
ATOM     30  C   UNL     1      -2.757  11.730  18.770  0.00  0.00    +0.000 C 
ATOM     31  N   UNL     1      -3.674  11.872  17.918  0.00  0.00    +0.000 NA
ENDBRANCH  11  30
TORSDOF 5
ENDMDL
MODEL 2
REMARK VINA RESULT:      -6.7      1.091      1.981
REMARK  Name = 
REMARK  8 active torsions:
REMARK  status: ('A' for Active; 'I' for Inactive)
REMARK    1  A    between atoms: C_1  and  O_2
REMARK    2  A    between atoms: O_2  and  C_3
REMARK    3  A    between atoms: C_6  and  C_7
REMARK    4  A    between atoms: N_13  and  C_14
REMARK    5  A    between atoms: C_17  and  C_18
REMARK    6  A    between atoms: C_25  and  C_26
REMARK    7  A    between atoms: C_29  and  O_30
REMARK    8  A    between atoms: O_30  and  C_31
REMARK                            x       y       z     vdW  Elec       q    Type
REMARK                         _______ _______ _______ _____ _____    ______ ____
ROOT
ATOM      1  C   UNL     1      -1.694  12.565  20.879  0.00  0.00    +0.000 C 
ATOM      2  C   UNL     1      -1.472  11.606  22.063  0.00  0.00    +0.000 C 
ATOM      3  C   UNL     1      -0.229  10.758  21.821  0.00  0.00    +0.000 C 
ATOM      4  O   UNL     1       0.524  10.471  22.750  0.00  0.00    +0.000 OA
ATOM      5  N   UNL     1      -0.053  10.301  20.506  0.00  0.00    +0.000 N 
ATOM      6  C   UNL     1       1.208   9.605  20.276  0.00  0.00    +0.000 C 
ATOM      7  N   UNL     1       1.232   8.833  19.042  0.00  0.00    +0.000 N 
ATOM      8  C   UNL     1       0.862   9.580  17.861  0.00  0.00    +0.000 C 
ATOM      9  S   UNL     1      -0.915   9.779  17.984  0.00  0.00    +0.000 S 
ATOM     10  C   UNL     1      -0.963  10.634  19.505  0.00  0.00    +0.000 C 
ATOM     11  C   UNL     1      -1.837  11.662  19.683  0.00  0.00    +0.000 C 
ENDROOT
BRANCH   7  12
ATOM     12  C   UNL     1       2.178   7.840  18.858  0.00  0.00    +0.000 A 
ATOM     13  C   UNL     1       2.331   6.861  19.853  0.00  0.00    +0.000 A 
ATOM     14  C   UNL     1       3.275   5.840  19.741  0.00  0.00    +0.000 A 
ATOM     15  C   UNL     1       4.102   5.762  18.617  0.00  0.00    +0.000 A 
ATOM     16  C   UNL     1       5.078   4.631  18.500  0.00  0.00    +0.000 C 
ATOM     17  C   UNL     1       3.974   6.748  17.629  0.00  0.00    +0.000 A 
ATOM     18 CL   UNL     1       4.980   6.747  16.222  0.00  0.00    +0.000 Cl
ATOM     19  C   UNL     1       3.026   7.772  17.749  0.00  0.00    +0.000 A 
ENDBRANCH   7  12
BRANCH   1  23
ATOM     20  C   UNL     1       2.160  14.550  20.687  0.00  0.00    +0.000 A 
ATOM     21  C   UNL     1       1.374  14.644  21.852  0.00  0.00    +0.000 A 
ATOM     22  C   UNL     1       0.084  14.094  21.919  0.00  0.00    +0.000 A 
ATOM     23  C   UNL     1      -0.491  13.527  20.783  0.00  0.00    +0.000 A 
ATOM     24  C   UNL     1       0.213  13.683  19.580  0.00  0.00    +0.000 A 
ATOM     25  C   UNL     1       1.554  14.088  19.520  0.00  0.00    +0.000 A 
BRANCH  20  27
ATOM     26  C   UNL     1       3.778  16.236  20.295  0.00  0.00    +0.000 C 
ATOM     27  O   UNL     1       3.490  14.884  20.672  0.00  0.00    +0.000 OA
ENDBRANCH  20  27
BRANCH  25  28
ATOM     28  O   UNL     1       2.035  13.866  18.268  0.00  0.00    +0.000 OA
ATOM     29  C   UNL     1       2.741  12.687  17.943  0.00  0.00    +0.000 C 
ENDBRANCH  25  28
ENDBRANCH   1  23
BRANCH  11  30
ATOM     30  C   UNL     1      -2.941  11.783  18.644  0.00  0.00    +0.000 C 
ATOM     31  N   UNL     1      -3.856  11.884  17.784  0.00  0.00    +0.000 NA
ENDBRANCH  11  30
TORSDOF 5
ENDMDL
MODEL 3
REMARK VINA RESULT:      -6.5      0.964      1.288
REMARK  Name = 
REMARK  8 active torsions:
REMARK  status: ('A' for Active; 'I' for Inactive)
REMARK    1  A    between atoms: C_1  and  O_2
REMARK    2  A    between atoms: O_2  and  C_3
REMARK    3  A    between atoms: C_6  and  C_7
REMARK    4  A    between atoms: N_13  and  C_14
REMARK    5  A    between atoms: C_17  and  C_18
REMARK    6  A    between atoms: C_25  and  C_26
REMARK    7  A    between atoms: C_29  and  O_30
REMARK    8  A    between atoms: O_30  and  C_31
REMARK                            x       y       z     vdW  Elec       q    Type
REMARK                         _______ _______ _______ _____ _____    ______ ____
ROOT
ATOM      1  C   UNL     1      -1.371  12.399  20.926  0.00  0.00    +0.000 C 
ATOM      2  C   UNL     1      -1.188  11.403  22.086  0.00  0.00    +0.000 C 
ATOM      3  C   UNL     1       0.028  10.520  21.828  0.00  0.00    +0.000 C 
ATOM      4  O   UNL     1       0.765  10.184  22.754  0.00  0.00    +0.000 OA
ATOM      5  N   UNL     1       0.198  10.093  20.503  0.00  0.00    +0.000 N 
ATOM      6  C   UNL     1       1.435   9.362  20.261  0.00  0.00    +0.000 C 
ATOM      7  N   UNL     1       1.442   8.622  19.007  0.00  0.00    +0.000 N 
ATOM      8  C   UNL     1       1.105   9.412  17.845  0.00  0.00    +0.000 C 
ATOM      9  S   UNL     1      -0.665   9.667  17.963  0.00  0.00    +0.000 S 
ATOM     10  C   UNL     1      -0.695  10.483  19.506  0.00  0.00    +0.000 C 
ATOM     11  C   UNL     1      -1.535  11.534  19.706  0.00  0.00    +0.000 C 
ENDROOT
BRANCH   7  12
ATOM     12  C   UNL     1       2.356   7.603  18.802  0.00  0.00    +0.000 A 
ATOM     13  C   UNL     1       3.281   7.726  17.753  0.00  0.00    +0.000 A 
ATOM     14  C   UNL     1       4.219   6.732  17.480  0.00  0.00    +0.000 A 
ATOM     15  C   UNL     1       4.267   5.571  18.256  0.00  0.00    +0.000 A 
ATOM     16  C   UNL     1       5.312   4.537  17.970  0.00  0.00    +0.000 C 
ATOM     17  C   UNL     1       3.332   5.426  19.292  0.00  0.00    +0.000 A 
ATOM     18 CL   UNL     1       3.297   4.008  20.281  0.00  0.00    +0.000 Cl
ATOM     19  C   UNL     1       2.390   6.429  19.559  0.00  0.00    +0.000 A 
ENDBRANCH   7  12
BRANCH   1  23
ATOM     20  C   UNL     1       1.515  15.632  20.692  0.00  0.00    +0.000 A 
ATOM     21  C   UNL     1       1.305  14.791  19.582  0.00  0.00    +0.000 A 
ATOM     22  C   UNL     1       0.449  13.680  19.649  0.00  0.00    +0.000 A 
ATOM     23  C   UNL     1      -0.136  13.323  20.863  0.00  0.00    +0.000 A 
ATOM     24  C   UNL     1       0.299  14.024  21.997  0.00  0.00    +0.000 A 
ATOM     25  C   UNL     1       1.027  15.220  21.931  0.00  0.00    +0.000 A 
BRANCH  20  27
ATOM     26  C   UNL     1       3.376  16.809  19.817  0.00  0.00    +0.000 C 
ATOM     27  O   UNL     1       2.169  16.833  20.587  0.00  0.00    +0.000 OA
ENDBRANCH  20  27
BRANCH  25  28
ATOM     28  O   UNL     1       1.047  15.803  23.159  0.00  0.00    +0.000 OA
ATOM     29  C   UNL     1      -0.125  16.320  23.753  0.00  0.00    +0.000 C 
ENDBRANCH  25  28
ENDBRANCH   1  23
BRANCH  11  30
ATOM     30  C   UNL     1      -2.628  11.719  18.665  0.00  0.00    +0.000 C 
ATOM     31  N   UNL     1      -3.534  11.873  17.802  0.00  0.00    +0.000 NA
ENDBRANCH  11  30
TORSDOF 5
ENDMDL
MODEL 4
REMARK VINA RESULT:      -6.4      1.477      2.353
REMARK  Name = 
REMARK  8 active torsions:
REMARK  status: ('A' for Active; 'I' for Inactive)
REMARK    1  A    between atoms: C_1  and  O_2
REMARK    2  A    between atoms: O_2  and  C_3
REMARK    3  A    between atoms: C_6  and  C_7
REMARK    4  A    between atoms: N_13  and  C_14
REMARK    5  A    between atoms: C_17  and  C_18
REMARK    6  A    between atoms: C_25  and  C_26
REMARK    7  A    between atoms: C_29  and  O_30
REMARK    8  A    between atoms: O_30  and  C_31
REMARK                            x       y       z     vdW  Elec       q    Type
REMARK                         _______ _______ _______ _____ _____    ______ ____
ROOT
ATOM      1  C   UNL     1      -1.953  12.810  21.099  0.00  0.00    +0.000 C 
ATOM      2  C   UNL     1      -1.692  11.853  22.277  0.00  0.00    +0.000 C 
ATOM      3  C   UNL     1      -0.449  11.015  22.002  0.00  0.00    +0.000 C 
ATOM      4  O   UNL     1       0.330  10.734  22.912  0.00  0.00    +0.000 OA
ATOM      5  N   UNL     1      -0.303  10.560  20.683  0.00  0.00    +0.000 N 
ATOM      6  C   UNL     1       0.957   9.875  20.420  0.00  0.00    +0.000 C 
ATOM      7  N   UNL     1       0.955   9.103  19.185  0.00  0.00    +0.000 N 
ATOM      8  C   UNL     1       0.549   9.848  18.015  0.00  0.00    +0.000 C 
ATOM      9  S   UNL     1      -1.226  10.032  18.184  0.00  0.00    +0.000 S 
ATOM     10  C   UNL     1      -1.242  10.886  19.706  0.00  0.00    +0.000 C 
ATOM     11  C   UNL     1      -2.119  11.906  19.907  0.00  0.00    +0.000 C 
ENDROOT
BRANCH   7  12
ATOM     12  C   UNL     1       1.904   8.117  18.977  0.00  0.00    +0.000 A 
ATOM     13  C   UNL     1       2.789   8.250  17.895  0.00  0.00    +0.000 A 
ATOM     14  C   UNL     1       3.760   7.288  17.616  0.00  0.00    +0.000 A 
ATOM     15  C   UNL     1       3.881   6.152  18.420  0.00  0.00    +0.000 A 
ATOM     16  C   UNL     1       4.959   5.155  18.127  0.00  0.00    +0.000 C 
ATOM     17  C   UNL     1       2.987   5.997  19.490  0.00  0.00    +0.000 A 
ATOM     18 CL   UNL     1       3.044   4.606  20.516  0.00  0.00    +0.000 Cl
ATOM     19  C   UNL     1       2.013   6.967  19.762  0.00  0.00    +0.000 A 
ENDBRANCH   7  12
BRANCH   1  23
ATOM     20  C   UNL     1       1.879  14.827  20.809  0.00  0.00    +0.000 A 
ATOM     21  C   UNL     1       1.122  14.915  21.994  0.00  0.00    +0.000 A 
ATOM     22  C   UNL     1      -0.162  14.355  22.094  0.00  0.00    +0.000 A 
ATOM     23  C   UNL     1      -0.761  13.782  20.972  0.00  0.00    +0.000 A 
ATOM     24  C   UNL     1      -0.089  13.943  19.753  0.00  0.00    +0.000 A 
ATOM     25  C   UNL     1       1.247  14.360  19.658  0.00  0.00    +0.000 A 
BRANCH  20  27
ATOM     26  C   UNL     1       3.943  14.945  21.967  0.00  0.00    +0.000 C 
ATOM     27  O   UNL     1       3.205  15.173  20.760  0.00  0.00    +0.000 OA
ENDBRANCH  20  27
BRANCH  25  28
ATOM     28  O   UNL     1       1.698  14.141  18.394  0.00  0.00    +0.000 OA
ATOM     29  C   UNL     1       2.493  13.019  18.074  0.00  0.00    +0.000 C 
ENDBRANCH  25  28
ENDBRANCH   1  23
BRANCH  11  30
ATOM     30  C   UNL     1      -3.250  12.019  18.897  0.00  0.00    +0.000 C 
ATOM     31  N   UNL     1      -4.188  12.113  18.060  0.00  0.00    +0.000 NA
ENDBRANCH  11  30
TORSDOF 5
ENDMDL
MODEL 5
REMARK VINA RESULT:      -6.3      3.082      5.057
REMARK  Name = 
REMARK  8 active torsions:
REMARK  status: ('A' for Active; 'I' for Inactive)
REMARK    1  A    between atoms: C_1  and  O_2
REMARK    2  A    between atoms: O_2  and  C_3
REMARK    3  A    between atoms: C_6  and  C_7
REMARK    4  A    between atoms: N_13  and  C_14
REMARK    5  A    between atoms: C_17  and  C_18
REMARK    6  A    between atoms: C_25  and  C_26
REMARK    7  A    between atoms: C_29  and  O_30
REMARK    8  A    between atoms: O_30  and  C_31
REMARK                            x       y       z     vdW  Elec       q    Type
REMARK                         _______ _______ _______ _____ _____    ______ ____
ROOT
ATOM      1  C   UNL     1      -0.988  12.981  20.340  0.00  0.00    +0.000 C 
ATOM      2  C   UNL     1       0.490  13.164  19.950  0.00  0.00    +0.000 C 
ATOM      3  C   UNL     1       1.070  11.841  19.465  0.00  0.00    +0.000 C 
ATOM      4  O   UNL     1       1.871  11.814  18.532  0.00  0.00    +0.000 OA
ATOM      5  N   UNL     1       0.670  10.704  20.182  0.00  0.00    +0.000 N 
ATOM      6  C   UNL     1       1.134   9.443  19.617  0.00  0.00    +0.000 C 
ATOM      7  N   UNL     1       1.032   8.317  20.535  0.00  0.00    +0.000 N 
ATOM      8  C   UNL     1      -0.278   8.140  21.119  0.00  0.00    +0.000 C 
ATOM      9  S   UNL     1      -0.420   9.452  22.332  0.00  0.00    +0.000 S 
ATOM     10  C   UNL     1      -0.216  10.808  21.253  0.00  0.00    +0.000 C 
ATOM     11  C   UNL     1      -0.968  11.930  21.418  0.00  0.00    +0.000 C 
ENDROOT
BRANCH   7  12
ATOM     12  C   UNL     1       1.754   7.160  20.304  0.00  0.00    +0.000 A 
ATOM     13  C   UNL     1       2.697   7.148  19.264  0.00  0.00    +0.000 A 
ATOM     14  C   UNL     1       3.449   6.012  18.965  0.00  0.00    +0.000 A 
ATOM     15  C   UNL     1       3.284   4.840  19.707  0.00  0.00    +0.000 A 
ATOM     16  C   UNL     1       4.133   3.646  19.396  0.00  0.00    +0.000 C 
ATOM     17  C   UNL     1       2.327   4.833  20.734  0.00  0.00    +0.000 A 
ATOM     18 CL   UNL     1       2.034   3.415  21.680  0.00  0.00    +0.000 Cl
ATOM     19  C   UNL     1       1.574   5.977  21.027  0.00  0.00    +0.000 A 
ENDBRANCH   7  12
BRANCH   1  23
ATOM     20  C   UNL     1      -3.053  10.993  17.080  0.00  0.00    +0.000 A 
ATOM     21  C   UNL     1      -1.815  11.626  16.852  0.00  0.00    +0.000 A 
ATOM     22  C   UNL     1      -1.162  12.357  17.857  0.00  0.00    +0.000 A 
ATOM     23  C   UNL     1      -1.786  12.560  19.087  0.00  0.00    +0.000 A 
ATOM     24  C   UNL     1      -3.120  12.141  19.189  0.00  0.00    +0.000 A 
ATOM     25  C   UNL     1      -3.731  11.285  18.263  0.00  0.00    +0.000 A 
BRANCH  20  27
ATOM     26  C   UNL     1      -3.092  10.190  14.852  0.00  0.00    +0.000 C 
ATOM     27  O   UNL     1      -3.596  10.103  16.190  0.00  0.00    +0.000 OA
ENDBRANCH  20  27
BRANCH  25  28
ATOM     28  O   UNL     1      -4.907  10.833  18.776  0.00  0.00    +0.000 OA
ATOM     29  C   UNL     1      -6.145  11.128  18.164  0.00  0.00    +0.000 C 
ENDBRANCH  25  28
ENDBRANCH   1  23
BRANCH  11  30
ATOM     30  C   UNL     1      -1.710  12.045  22.740  0.00  0.00    +0.000 C 
ATOM     31  N   UNL     1      -2.326  12.139  23.836  0.00  0.00    +0.000 NA
ENDBRANCH  11  30
TORSDOF 5
ENDMDL
MODEL 6
REMARK VINA RESULT:      -6.3      1.771      2.012
REMARK  Name = 
REMARK  8 active torsions:
REMARK  status: ('A' for Active; 'I' for Inactive)
REMARK    1  A    between atoms: C_1  and  O_2
REMARK    2  A    between atoms: O_2  and  C_3
REMARK    3  A    between atoms: C_6  and  C_7
REMARK    4  A    between atoms: N_13  and  C_14
REMARK    5  A    between atoms: C_17  and  C_18
REMARK    6  A    between atoms: C_25  and  C_26
REMARK    7  A    between atoms: C_29  and  O_30
REMARK    8  A    between atoms: O_30  and  C_31
REMARK                            x       y       z     vdW  Elec       q    Type
REMARK                         _______ _______ _______ _____ _____    ______ ____
ROOT
ATOM      1  C   UNL     1      -0.583  12.395  20.428  0.00  0.00    +0.000 C 
ATOM      2  C   UNL     1      -0.817  11.540  21.687  0.00  0.00    +0.000 C 
ATOM      3  C   UNL     1       0.207  10.412  21.748  0.00  0.00    +0.000 C 
ATOM      4  O   UNL     1       0.687  10.062  22.825  0.00  0.00    +0.000 OA
ATOM      5  N   UNL     1       0.502   9.793  20.524  0.00  0.00    +0.000 N 
ATOM      6  C   UNL     1       1.577   8.810  20.592  0.00  0.00    +0.000 C 
ATOM      7  N   UNL     1       1.636   7.928  19.436  0.00  0.00    +0.000 N 
ATOM      8  C   UNL     1       1.678   8.612  18.164  0.00  0.00    +0.000 C 
ATOM      9  S   UNL     1       0.009   9.219  17.916  0.00  0.00    +0.000 S 
ATOM     10  C   UNL     1      -0.104  10.217  19.343  0.00  0.00    +0.000 C 
ATOM     11  C   UNL     1      -0.721  11.428  19.282  0.00  0.00    +0.000 C 
ENDROOT
BRANCH   7  12
ATOM     12  C   UNL     1       2.331   6.733  19.504  0.00  0.00    +0.000 A 
ATOM     13  C   UNL     1       3.383   6.512  18.601  0.00  0.00    +0.000 A 
ATOM     14  C   UNL     1       4.116   5.325  18.602  0.00  0.00    +0.000 A 
ATOM     15  C   UNL     1       3.820   4.312  19.518  0.00  0.00    +0.000 A 
ATOM     16  C   UNL     1       4.649   3.064  19.528  0.00  0.00    +0.000 C 
ATOM     17  C   UNL     1       2.755   4.513  20.409  0.00  0.00    +0.000 A 
ATOM     18 CL   UNL     1       2.299   3.299  21.553  0.00  0.00    +0.000 Cl
ATOM     19  C   UNL     1       2.022   5.706  20.400  0.00  0.00    +0.000 A 
ENDBRANCH   7  12
BRANCH   1  23
ATOM     20  C   UNL     1       2.933  14.940  20.424  0.00  0.00    +0.000 A 
ATOM     21  C   UNL     1       2.753  13.982  19.407  0.00  0.00    +0.000 A 
ATOM     22  C   UNL     1       1.677  13.080  19.424  0.00  0.00    +0.000 A 
ATOM     23  C   UNL     1       0.814  13.046  20.518  0.00  0.00    +0.000 A 
ATOM     24  C   UNL     1       1.174  13.829  21.624  0.00  0.00    +0.000 A 
ATOM     25  C   UNL     1       2.146  14.838  21.570  0.00  0.00    +0.000 A 
BRANCH  20  27
ATOM     26  C   UNL     1       4.357  16.185  18.998  0.00  0.00    +0.000 C 
ATOM     27  O   UNL     1       3.841  15.962  20.315  0.00  0.00    +0.000 OA
ENDBRANCH  20  27
BRANCH  25  28
ATOM     28  O   UNL     1       2.065  15.601  22.693  0.00  0.00    +0.000 OA
ATOM     29  C   UNL     1       1.349  16.818  22.712  0.00  0.00    +0.000 C 
ENDBRANCH  25  28
ENDBRANCH   1  23
BRANCH  11  30
ATOM     30  C   UNL     1      -1.557  11.687  18.038  0.00  0.00    +0.000 C 
ATOM     31  N   UNL     1      -2.250  11.901  17.008  0.00  0.00    +0.000 NA
ENDBRANCH  11  30
TORSDOF 5
ENDMDL
MODEL 7
REMARK VINA RESULT:      -6.2      1.376      1.458
REMARK  Name = 
REMARK  8 active torsions:
REMARK  status: ('A' for Active; 'I' for Inactive)
REMARK    1  A    between atoms: C_1  and  O_2
REMARK    2  A    between atoms: O_2  and  C_3
REMARK    3  A    between atoms: C_6  and  C_7
REMARK    4  A    between atoms: N_13  and  C_14
REMARK    5  A    between atoms: C_17  and  C_18
REMARK    6  A    between atoms: C_25  and  C_26
REMARK    7  A    between atoms: C_29  and  O_30
REMARK    8  A    between atoms: O_30  and  C_31
REMARK                            x       y       z     vdW  Elec       q    Type
REMARK                         _______ _______ _______ _____ _____    ______ ____
ROOT
ATOM      1  C   UNL     1      -0.493  12.305  20.435  0.00  0.00    +0.000 C 
ATOM      2  C   UNL     1      -0.708  11.412  21.671  0.00  0.00    +0.000 C 
ATOM      3  C   UNL     1       0.323  10.289  21.690  0.00  0.00    +0.000 C 
ATOM      4  O   UNL     1       0.816   9.910  22.751  0.00  0.00    +0.000 OA
ATOM      5  N   UNL     1       0.609   9.707  20.446  0.00  0.00    +0.000 N 
ATOM      6  C   UNL     1       1.690   8.730  20.474  0.00  0.00    +0.000 C 
ATOM      7  N   UNL     1       1.742   7.881  19.292  0.00  0.00    +0.000 N 
ATOM      8  C   UNL     1       1.767   8.603  18.040  0.00  0.00    +0.000 C 
ATOM      9  S   UNL     1       0.093   9.206  17.827  0.00  0.00    +0.000 S 
ATOM     10  C   UNL     1      -0.012  10.162  19.284  0.00  0.00    +0.000 C 
ATOM     11  C   UNL     1      -0.637  11.370  19.264  0.00  0.00    +0.000 C 
ENDROOT
BRANCH   7  12
ATOM     12  C   UNL     1       2.445   6.690  19.318  0.00  0.00    +0.000 A 
ATOM     13  C   UNL     1       2.120   5.736  20.296  0.00  0.00    +0.000 A 
ATOM     14  C   UNL     1       2.797   4.520  20.391  0.00  0.00    +0.000 A 
ATOM     15  C   UNL     1       3.828   4.213  19.500  0.00  0.00    +0.000 A 
ATOM     16  C   UNL     1       4.511   2.883  19.594  0.00  0.00    +0.000 C 
ATOM     17  C   UNL     1       4.177   5.169  18.534  0.00  0.00    +0.000 A 
ATOM     18 CL   UNL     1       5.463   4.886  17.412  0.00  0.00    +0.000 Cl
ATOM     19  C   UNL     1       3.494   6.389  18.446  0.00  0.00    +0.000 A 
ENDBRANCH   7  12
BRANCH   1  23
ATOM     20  C   UNL     1       3.017  14.857  20.422  0.00  0.00    +0.000 A 
ATOM     21  C   UNL     1       2.854  13.875  19.426  0.00  0.00    +0.000 A 
ATOM     22  C   UNL     1       1.780  12.971  19.449  0.00  0.00    +0.000 A 
ATOM     23  C   UNL     1       0.901  12.961  20.531  0.00  0.00    +0.000 A 
ATOM     24  C   UNL     1       1.243  13.771  21.623  0.00  0.00    +0.000 A 
ATOM     25  C   UNL     1       2.213  14.781  21.558  0.00  0.00    +0.000 A 
BRANCH  20  27
ATOM     26  C   UNL     1       4.199  16.301  18.961  0.00  0.00    +0.000 C 
ATOM     27  O   UNL     1       3.925  15.879  20.302  0.00  0.00    +0.000 OA
ENDBRANCH  20  27
BRANCH  25  28
ATOM     28  O   UNL     1       2.114  15.571  22.661  0.00  0.00    +0.000 OA
ATOM     29  C   UNL     1       1.329  16.744  22.664  0.00  0.00    +0.000 C 
ENDBRANCH  25  28
ENDBRANCH   1  23
BRANCH  11  30
ATOM     30  C   UNL     1      -1.486  11.659  18.037  0.00  0.00    +0.000 C 
ATOM     31  N   UNL     1      -2.190  11.899  17.019  0.00  0.00    +0.000 NA
ENDBRANCH  11  30
TORSDOF 5
ENDMDL
MODEL 8
REMARK VINA RESULT:      -6.1      1.390      1.634
REMARK  Name = 
REMARK  8 active torsions:
REMARK  status: ('A' for Active; 'I' for Inactive)
REMARK    1  A    between atoms: C_1  and  O_2
REMARK    2  A    between atoms: O_2  and  C_3
REMARK    3  A    between atoms: C_6  and  C_7
REMARK    4  A    between atoms: N_13  and  C_14
REMARK    5  A    between atoms: C_17  and  C_18
REMARK    6  A    between atoms: C_25  and  C_26
REMARK    7  A    between atoms: C_29  and  O_30
REMARK    8  A    between atoms: O_30  and  C_31
REMARK                            x       y       z     vdW  Elec       q    Type
REMARK                         _______ _______ _______ _____ _____    ______ ____
ROOT
ATOM      1  C   UNL     1      -2.076  12.847  20.580  0.00  0.00    +0.000 C 
ATOM      2  C   UNL     1      -1.771  12.009  21.836  0.00  0.00    +0.000 C 
ATOM      3  C   UNL     1      -0.502  11.191  21.622  0.00  0.00    +0.000 C 
ATOM      4  O   UNL     1       0.294  11.020  22.544  0.00  0.00    +0.000 OA
ATOM      5  N   UNL     1      -0.353  10.624  20.348  0.00  0.00    +0.000 N 
ATOM      6  C   UNL     1       0.926   9.960  20.132  0.00  0.00    +0.000 C 
ATOM      7  N   UNL     1       0.940   9.080  18.972  0.00  0.00    +0.000 N 
ATOM      8  C   UNL     1       0.497   9.702  17.745  0.00  0.00    +0.000 C 
ATOM      9  S   UNL     1      -1.281   9.842  17.918  0.00  0.00    +0.000 S 
ATOM     10  C   UNL     1      -1.312  10.829  19.357  0.00  0.00    +0.000 C 
ATOM     11  C   UNL     1      -2.221  11.834  19.476  0.00  0.00    +0.000 C 
ENDROOT
BRANCH   7  12
ATOM     12  C   UNL     1       1.919   8.112  18.841  0.00  0.00    +0.000 A 
ATOM     13  C   UNL     1       2.846   8.226  17.792  0.00  0.00    +0.000 A 
ATOM     14  C   UNL     1       3.850   7.279  17.592  0.00  0.00    +0.000 A 
ATOM     15  C   UNL     1       3.964   6.178  18.444  0.00  0.00    +0.000 A 
ATOM     16  C   UNL     1       5.077   5.197  18.234  0.00  0.00    +0.000 C 
ATOM     17  C   UNL     1       3.029   6.041  19.481  0.00  0.00    +0.000 A 
ATOM     18 CL   UNL     1       3.076   4.691  20.562  0.00  0.00    +0.000 Cl
ATOM     19  C   UNL     1       2.022   6.995  19.675  0.00  0.00    +0.000 A 
ENDBRANCH   7  12
BRANCH   1  23
ATOM     20  C   UNL     1       0.544  16.208  19.760  0.00  0.00    +0.000 A 
ATOM     21  C   UNL     1       0.427  15.160  18.827  0.00  0.00    +0.000 A 
ATOM     22  C   UNL     1      -0.338  14.013  19.096  0.00  0.00    +0.000 A 
ATOM     23  C   UNL     1      -0.919  13.842  20.352  0.00  0.00    +0.000 A 
ATOM     24  C   UNL     1      -0.567  14.777  21.336  0.00  0.00    +0.000 A 
ATOM     25  C   UNL     1       0.063  15.996  21.051  0.00  0.00    +0.000 A 
BRANCH  20  27
ATOM     26  C   UNL     1       1.851  17.441  18.216  0.00  0.00    +0.000 C 
ATOM     27  O   UNL     1       1.100  17.419  19.435  0.00  0.00    +0.000 OA
ENDBRANCH  20  27
BRANCH  25  28
ATOM     28  O   UNL     1       0.009  16.798  22.148  0.00  0.00    +0.000 OA
ATOM     29  C   UNL     1      -0.017  16.265  23.455  0.00  0.00    +0.000 C 
ENDBRANCH  25  28
ENDBRANCH   1  23
BRANCH  11  30
ATOM     30  C   UNL     1      -3.366  11.817  18.475  0.00  0.00    +0.000 C 
ATOM     31  N   UNL     1      -4.314  11.804  17.644  0.00  0.00    +0.000 NA
ENDBRANCH  11  30
TORSDOF 5
ENDMDL
MODEL 9
REMARK VINA RESULT:      -6.0      3.430      5.496
REMARK  Name = 
REMARK  8 active torsions:
REMARK  status: ('A' for Active; 'I' for Inactive)
REMARK    1  A    between atoms: C_1  and  O_2
REMARK    2  A    between atoms: O_2  and  C_3
REMARK    3  A    between atoms: C_6  and  C_7
REMARK    4  A    between atoms: N_13  and  C_14
REMARK    5  A    between atoms: C_17  and  C_18
REMARK    6  A    between atoms: C_25  and  C_26
REMARK    7  A    between atoms: C_29  and  O_30
REMARK    8  A    between atoms: O_30  and  C_31
REMARK                            x       y       z     vdW  Elec       q    Type
REMARK                         _______ _______ _______ _____ _____    ______ ____
ROOT
ATOM      1  C   UNL     1      -0.661  12.615  19.634  0.00  0.00    +0.000 C 
ATOM      2  C   UNL     1       0.545  12.527  18.680  0.00  0.00    +0.000 C 
ATOM      3  C   UNL     1       0.912  11.067  18.438  0.00  0.00    +0.000 C 
ATOM      4  O   UNL     1       1.287  10.692  17.328  0.00  0.00    +0.000 OA
ATOM      5  N   UNL     1       0.844  10.230  19.562  0.00  0.00    +0.000 N 
ATOM      6  C   UNL     1       1.072   8.819  19.274  0.00  0.00    +0.000 C 
ATOM      7  N   UNL     1       1.356   8.020  20.458  0.00  0.00    +0.000 N 
ATOM      8  C   UNL     1       0.381   8.152  21.516  0.00  0.00    +0.000 C 
ATOM      9  S   UNL     1       0.701   9.764  22.233  0.00  0.00    +0.000 S 
ATOM     10  C   UNL     1       0.444  10.727  20.801  0.00  0.00    +0.000 C 
ATOM     11  C   UNL     1      -0.203  11.920  20.888  0.00  0.00    +0.000 C 
ENDROOT
BRANCH   7  12
ATOM     12  C   UNL     1       1.951   6.777  20.334  0.00  0.00    +0.000 A 
ATOM     13  C   UNL     1       3.061   6.640  19.485  0.00  0.00    +0.000 A 
ATOM     14  C   UNL     1       3.700   5.414  19.301  0.00  0.00    +0.000 A 
ATOM     15  C   UNL     1       3.249   4.274  19.971  0.00  0.00    +0.000 A 
ATOM     16  C   UNL     1       3.978   2.978  19.791  0.00  0.00    +0.000 C 
ATOM     17  C   UNL     1       2.126   4.394  20.803  0.00  0.00    +0.000 A 
ATOM     18 CL   UNL     1       1.480   3.027  21.644  0.00  0.00    +0.000 Cl
ATOM     19  C   UNL     1       1.488   5.628  20.981  0.00  0.00    +0.000 A 
ENDBRANCH   7  12
BRANCH   1  23
ATOM     20  C   UNL     1      -4.229  11.501  17.428  0.00  0.00    +0.000 A 
ATOM     21  C   UNL     1      -4.276  11.630  18.829  0.00  0.00    +0.000 A 
ATOM     22  C   UNL     1      -3.124  11.898  19.586  0.00  0.00    +0.000 A 
ATOM     23  C   UNL     1      -1.877  11.939  18.965  0.00  0.00    +0.000 A 
ATOM     24  C   UNL     1      -1.835  11.550  17.619  0.00  0.00    +0.000 A 
ATOM     25  C   UNL     1      -2.978  11.428  16.816  0.00  0.00    +0.000 A 
BRANCH  20  27
ATOM     26  C   UNL     1      -6.336  12.469  16.940  0.00  0.00    +0.000 C 
ATOM     27  O   UNL     1      -5.363  11.456  16.657  0.00  0.00    +0.000 OA
ENDBRANCH  20  27
BRANCH  25  28
ATOM     28  O   UNL     1      -2.604  11.327  15.513  0.00  0.00    +0.000 OA
ATOM     29  C   UNL     1      -2.903  10.182  14.743  0.00  0.00    +0.000 C 
ENDBRANCH  25  28
ENDBRANCH   1  23
BRANCH  11  30
ATOM     30  C   UNL     1      -0.373  12.484  22.290  0.00  0.00    +0.000 C 
ATOM     31  N   UNL     1      -0.514  12.950  23.453  0.00  0.00    +0.000 NA
ENDBRANCH  11  30
TORSDOF 5
ENDMDL
