MODEL 1
REMARK VINA RESULT:      -7.6      0.000      0.000
REMARK  Name = 
REMARK  4 active torsions:
REMARK  status: ('A' for Active; 'I' for Inactive)
REMARK    1  A    between atoms: O_1  and  C_2
REMARK    2  A    between atoms: C_6  and  C_7
REMARK    3  A    between atoms: C_14  and  O_15
REMARK    4  A    between atoms: C_19  and  O_20
REMARK                            x       y       z     vdW  Elec       q    Type
REMARK                         _______ _______ _______ _____ _____    ______ ____
ROOT
ATOM      1  C   UNL     1       3.980   4.405  17.167  0.00  0.00    +0.000 A 
ATOM      2  C   UNL     1       3.127   5.351  17.699  0.00  0.00    +0.000 A 
ATOM      3  C   UNL     1       2.508   4.755  18.813  0.00  0.00    +0.000 A 
ATOM      4  C   UNL     1       1.835   5.231  19.939  0.00  0.00    +0.000 A 
ATOM      5 BR   UNL     1       1.945   7.060  20.413  0.00  0.00    +0.000 Br
ATOM      6  C   UNL     1       1.173   4.327  20.766  0.00  0.00    +0.000 A 
ATOM      7  C   UNL     1       1.141   2.969  20.439  0.00  0.00    +0.000 A 
ATOM      8  C   UNL     1       1.886   2.469  19.353  0.00  0.00    +0.000 A 
ATOM      9  C   UNL     1       2.636   3.385  18.603  0.00  0.00    +0.000 A 
ATOM     10  O   UNL     1       3.579   3.166  17.611  0.00  0.00    +0.000 OA
ENDROOT
BRANCH   1  15
ATOM     11  C   UNL     1       7.299   5.055  14.508  0.00  0.00    +0.000 A 
ATOM     12  C   UNL     1       7.378   5.492  15.819  0.00  0.00    +0.000 A 
ATOM     13  C   UNL     1       6.336   5.217  16.708  0.00  0.00    +0.000 A 
ATOM     14 BR   UNL     1       6.730   5.728  18.512  0.00  0.00    +0.000 Br
ATOM     15  C   UNL     1       5.150   4.555  16.283  0.00  0.00    +0.000 A 
ATOM     16  C   UNL     1       5.128   4.054  14.970  0.00  0.00    +0.000 A 
ATOM     17  C   UNL     1       6.195   4.311  14.097  0.00  0.00    +0.000 A 
BRANCH  11  18
ATOM     18  O   UNL     1       8.313   5.332  13.638  0.00  0.00    +0.000 OA
ATOM     19  H   UNL     1       8.468   4.562  13.060  0.00  0.00    +0.000 HD
ENDBRANCH  11  18
BRANCH  17  20
ATOM     20  O   UNL     1       6.164   3.865  12.808  0.00  0.00    +0.000 OA
ATOM     21  H   UNL     1       6.936   3.308  12.647  0.00  0.00    +0.000 HD
ENDBRANCH  17  20
ENDBRANCH   1  15
BRANCH   8  22
ATOM     22  O   UNL     1       1.842   1.135  19.049  0.00  0.00    +0.000 OA
ATOM     23  H   UNL     1       2.010   0.630  19.865  0.00  0.00    +0.000 HD
ENDBRANCH   8  22
TORSDOF 4
ENDMDL
MODEL 2
REMARK VINA RESULT:      -7.1      4.397      7.141
REMARK  Name = 
REMARK  4 active torsions:
REMARK  status: ('A' for Active; 'I' for Inactive)
REMARK    1  A    between atoms: O_1  and  C_2
REMARK    2  A    between atoms: C_6  and  C_7
REMARK    3  A    between atoms: C_14  and  O_15
REMARK    4  A    between atoms: C_19  and  O_20
REMARK                            x       y       z     vdW  Elec       q    Type
REMARK                         _______ _______ _______ _____ _____    ______ ____
ROOT
ATOM      1  C   UNL     1       1.914   6.798  20.299  0.00  0.00    +0.000 A 
ATOM      2  C   UNL     1       3.048   6.420  19.607  0.00  0.00    +0.000 A 
ATOM      3  C   UNL     1       2.836   5.097  19.177  0.00  0.00    +0.000 A 
ATOM      4  C   UNL     1       3.396   4.277  18.198  0.00  0.00    +0.000 A 
ATOM      5 BR   UNL     1       4.480   5.023  16.836  0.00  0.00    +0.000 Br
ATOM      6  C   UNL     1       3.062   2.926  18.171  0.00  0.00    +0.000 A 
ATOM      7  C   UNL     1       2.217   2.392  19.148  0.00  0.00    +0.000 A 
ATOM      8  C   UNL     1       1.581   3.226  20.088  0.00  0.00    +0.000 A 
ATOM      9  C   UNL     1       1.848   4.601  20.022  0.00  0.00    +0.000 A 
ATOM     10  O   UNL     1       1.248   5.659  20.687  0.00  0.00    +0.000 OA
ENDROOT
BRANCH   1  15
ATOM     11  C   UNL     1       0.608  10.769  21.317  0.00  0.00    +0.000 A 
ATOM     12  C   UNL     1       0.987  10.487  20.016  0.00  0.00    +0.000 A 
ATOM     13  C   UNL     1       1.339   9.182  19.661  0.00  0.00    +0.000 A 
ATOM     14 BR   UNL     1       1.633   8.965  17.780  0.00  0.00    +0.000 Br
ATOM     15  C   UNL     1       1.389   8.136  20.625  0.00  0.00    +0.000 A 
ATOM     16  C   UNL     1       0.926   8.431  21.920  0.00  0.00    +0.000 A 
ATOM     17  C   UNL     1       0.546   9.740  22.253  0.00  0.00    +0.000 A 
BRANCH  11  18
ATOM     18  O   UNL     1       0.274  12.045  21.664  0.00  0.00    +0.000 OA
ATOM     19  H   UNL     1       0.340  12.149  22.632  0.00  0.00    +0.000 HD
ENDBRANCH  11  18
BRANCH  17  20
ATOM     20  O   UNL     1       0.136  10.044  23.518  0.00  0.00    +0.000 OA
ATOM     21  H   UNL     1       0.143   9.241  24.055  0.00  0.00    +0.000 HD
ENDBRANCH  17  20
ENDBRANCH   1  15
BRANCH   8  22
ATOM     22  O   UNL     1       0.757   2.684  21.037  0.00  0.00    +0.000 OA
ATOM     23  H   UNL     1       1.217   2.714  21.895  0.00  0.00    +0.000 HD
ENDBRANCH   8  22
TORSDOF 4
ENDMDL
MODEL 3
REMARK VINA RESULT:      -7.1      4.588      7.423
REMARK  Name = 
REMARK  4 active torsions:
REMARK  status: ('A' for Active; 'I' for Inactive)
REMARK    1  A    between atoms: O_1  and  C_2
REMARK    2  A    between atoms: C_6  and  C_7
REMARK    3  A    between atoms: C_14  and  O_15
REMARK    4  A    between atoms: C_19  and  O_20
REMARK                            x       y       z     vdW  Elec       q    Type
REMARK                         _______ _______ _______ _____ _____    ______ ____
ROOT
ATOM      1  C   UNL     1       1.906   6.956  20.162  0.00  0.00    +0.000 A 
ATOM      2  C   UNL     1       1.431   5.666  20.296  0.00  0.00    +0.000 A 
ATOM      3  C   UNL     1       2.536   4.811  20.128  0.00  0.00    +0.000 A 
ATOM      4  C   UNL     1       2.813   3.484  20.458  0.00  0.00    +0.000 A 
ATOM      5 BR   UNL     1       1.706   2.553  21.680  0.00  0.00    +0.000 Br
ATOM      6  C   UNL     1       3.972   2.890  19.964  0.00  0.00    +0.000 A 
ATOM      7  C   UNL     1       4.814   3.601  19.104  0.00  0.00    +0.000 A 
ATOM      8  C   UNL     1       4.586   4.965  18.834  0.00  0.00    +0.000 A 
ATOM      9  C   UNL     1       3.474   5.570  19.436  0.00  0.00    +0.000 A 
ATOM     10  O   UNL     1       3.107   6.905  19.492  0.00  0.00    +0.000 OA
ENDROOT
BRANCH   1  15
ATOM     11  C   UNL     1       0.485  10.774  21.544  0.00  0.00    +0.000 A 
ATOM     12  C   UNL     1       0.803  10.607  20.207  0.00  0.00    +0.000 A 
ATOM     13  C   UNL     1       1.192   9.350  19.737  0.00  0.00    +0.000 A 
ATOM     14 BR   UNL     1       1.392   9.286  17.832  0.00  0.00    +0.000 Br
ATOM     15  C   UNL     1       1.341   8.240  20.615  0.00  0.00    +0.000 A 
ATOM     16  C   UNL     1       0.937   8.416  21.950  0.00  0.00    +0.000 A 
ATOM     17  C   UNL     1       0.519   9.677  22.401  0.00  0.00    +0.000 A 
BRANCH  11  18
ATOM     18  O   UNL     1       0.114  12.004  22.003  0.00  0.00    +0.000 OA
ATOM     19  H   UNL     1      -0.792  12.206  21.703  0.00  0.00    +0.000 HD
ENDBRANCH  11  18
BRANCH  17  20
ATOM     20  O   UNL     1       0.166   9.869  23.705  0.00  0.00    +0.000 OA
ATOM     21  H   UNL     1       0.965   9.943  24.242  0.00  0.00    +0.000 HD
ENDBRANCH  17  20
ENDBRANCH   1  15
BRANCH   8  22
ATOM     22  O   UNL     1       5.423   5.644  17.990  0.00  0.00    +0.000 OA
ATOM     23  H   UNL     1       6.115   5.030  17.687  0.00  0.00    +0.000 HD
ENDBRANCH   8  22
TORSDOF 4
ENDMDL
MODEL 4
REMARK VINA RESULT:      -7.0      3.538      5.755
REMARK  Name = 
REMARK  4 active torsions:
REMARK  status: ('A' for Active; 'I' for Inactive)
REMARK    1  A    between atoms: O_1  and  C_2
REMARK    2  A    between atoms: C_6  and  C_7
REMARK    3  A    between atoms: C_14  and  O_15
REMARK    4  A    between atoms: C_19  and  O_20
REMARK                            x       y       z     vdW  Elec       q    Type
REMARK                         _______ _______ _______ _____ _____    ______ ____
ROOT
ATOM      1  C   UNL     1       2.308   6.515  19.434  0.00  0.00    +0.000 A 
ATOM      2  C   UNL     1       1.970   7.166  20.604  0.00  0.00    +0.000 A 
ATOM      3  C   UNL     1       1.368   8.382  20.230  0.00  0.00    +0.000 A 
ATOM      4  C   UNL     1       0.537   9.306  20.863  0.00  0.00    +0.000 A 
ATOM      5 BR   UNL     1      -0.338   8.851  22.479  0.00  0.00    +0.000 Br
ATOM      6  C   UNL     1       0.275  10.523  20.238  0.00  0.00    +0.000 A 
ATOM      7  C   UNL     1       0.883  10.831  19.018  0.00  0.00    +0.000 A 
ATOM      8  C   UNL     1       1.655   9.872  18.332  0.00  0.00    +0.000 A 
ATOM      9  C   UNL     1       1.810   8.614  18.931  0.00  0.00    +0.000 A 
ATOM     10  O   UNL     1       2.355   7.446  18.422  0.00  0.00    +0.000 OA
ENDROOT
BRANCH   1  15
ATOM     11  C   UNL     1       3.075   2.402  18.431  0.00  0.00    +0.000 A 
ATOM     12  C   UNL     1       4.131   3.292  18.522  0.00  0.00    +0.000 A 
ATOM     13  C   UNL     1       3.898   4.610  18.922  0.00  0.00    +0.000 A 
ATOM     14 BR   UNL     1       5.509   5.617  19.178  0.00  0.00    +0.000 Br
ATOM     15  C   UNL     1       2.583   5.090  19.172  0.00  0.00    +0.000 A 
ATOM     16  C   UNL     1       1.538   4.150  19.148  0.00  0.00    +0.000 A 
ATOM     17  C   UNL     1       1.792   2.822  18.775  0.00  0.00    +0.000 A 
BRANCH  11  18
ATOM     18  O   UNL     1       3.303   1.118  18.031  0.00  0.00    +0.000 OA
ATOM     19  H   UNL     1       4.130   1.078  17.516  0.00  0.00    +0.000 HD
ENDBRANCH  11  18
BRANCH  17  20
ATOM     20  O   UNL     1       0.778   1.911  18.707  0.00  0.00    +0.000 OA
ATOM     21  H   UNL     1       0.188   2.039  19.461  0.00  0.00    +0.000 HD
ENDBRANCH  17  20
ENDBRANCH   1  15
BRANCH   8  22
ATOM     22  O   UNL     1       2.241  10.193  17.138  0.00  0.00    +0.000 OA
ATOM     23  H   UNL     1       1.632  10.769  16.643  0.00  0.00    +0.000 HD
ENDBRANCH   8  22
TORSDOF 4
ENDMDL
MODEL 5
REMARK VINA RESULT:      -7.0      3.928      6.587
REMARK  Name = 
REMARK  4 active torsions:
REMARK  status: ('A' for Active; 'I' for Inactive)
REMARK    1  A    between atoms: O_1  and  C_2
REMARK    2  A    between atoms: C_6  and  C_7
REMARK    3  A    between atoms: C_14  and  O_15
REMARK    4  A    between atoms: C_19  and  O_20
REMARK                            x       y       z     vdW  Elec       q    Type
REMARK                         _______ _______ _______ _____ _____    ______ ____
ROOT
ATOM      1  C   UNL     1       1.923   7.171  19.928  0.00  0.00    +0.000 A 
ATOM      2  C   UNL     1       1.657   7.898  21.072  0.00  0.00    +0.000 A 
ATOM      3  C   UNL     1       1.116   9.127  20.652  0.00  0.00    +0.000 A 
ATOM      4  C   UNL     1       0.359  10.129  21.259  0.00  0.00    +0.000 A 
ATOM      5 BR   UNL     1      -0.494   9.807  22.918  0.00  0.00    +0.000 Br
ATOM      6  C   UNL     1       0.149  11.327  20.580  0.00  0.00    +0.000 A 
ATOM      7  C   UNL     1       0.738  11.538  19.330  0.00  0.00    +0.000 A 
ATOM      8  C   UNL     1       1.433  10.503  18.674  0.00  0.00    +0.000 A 
ATOM      9  C   UNL     1       1.532   9.269  19.332  0.00  0.00    +0.000 A 
ATOM     10  O   UNL     1       1.994   8.046  18.869  0.00  0.00    +0.000 OA
ENDROOT
BRANCH   1  15
ATOM     11  C   UNL     1       2.271   2.945  19.200  0.00  0.00    +0.000 A 
ATOM     12  C   UNL     1       3.015   3.833  18.442  0.00  0.00    +0.000 A 
ATOM     13  C   UNL     1       2.965   5.201  18.724  0.00  0.00    +0.000 A 
ATOM     14 BR   UNL     1       4.216   6.228  17.699  0.00  0.00    +0.000 Br
ATOM     15  C   UNL     1       2.107   5.722  19.732  0.00  0.00    +0.000 A 
ATOM     16  C   UNL     1       1.421   4.795  20.537  0.00  0.00    +0.000 A 
ATOM     17  C   UNL     1       1.506   3.422  20.261  0.00  0.00    +0.000 A 
BRANCH  11  18
ATOM     18  O   UNL     1       2.313   1.611  18.918  0.00  0.00    +0.000 OA
ATOM     19  H   UNL     1       3.039   1.433  18.290  0.00  0.00    +0.000 HD
ENDBRANCH  11  18
BRANCH  17  20
ATOM     20  O   UNL     1       0.811   2.518  21.011  0.00  0.00    +0.000 OA
ATOM     21  H   UNL     1       0.075   2.172  20.488  0.00  0.00    +0.000 HD
ENDBRANCH  17  20
ENDBRANCH   1  15
BRANCH   8  22
ATOM     22  O   UNL     1       2.002  10.729  17.450  0.00  0.00    +0.000 OA
ATOM     23  H   UNL     1       2.932  10.981  17.587  0.00  0.00    +0.000 HD
ENDBRANCH   8  22
TORSDOF 4
ENDMDL
MODEL 6
REMARK VINA RESULT:      -6.9      3.725      5.842
REMARK  Name = 
REMARK  4 active torsions:
REMARK  status: ('A' for Active; 'I' for Inactive)
REMARK    1  A    between atoms: O_1  and  C_2
REMARK    2  A    between atoms: C_6  and  C_7
REMARK    3  A    between atoms: C_14  and  O_15
REMARK    4  A    between atoms: C_19  and  O_20
REMARK                            x       y       z     vdW  Elec       q    Type
REMARK                         _______ _______ _______ _____ _____    ______ ____
ROOT
ATOM      1  C   UNL     1       2.664   6.842  19.757  0.00  0.00    +0.000 A 
ATOM      2  C   UNL     1       2.120   7.483  20.853  0.00  0.00    +0.000 A 
ATOM      3  C   UNL     1       1.306   8.516  20.352  0.00  0.00    +0.000 A 
ATOM      4  C   UNL     1       0.260   9.283  20.865  0.00  0.00    +0.000 A 
ATOM      5 BR   UNL     1      -0.609   8.761  22.465  0.00  0.00    +0.000 Br
ATOM      6  C   UNL     1      -0.206  10.372  20.133  0.00  0.00    +0.000 A 
ATOM      7  C   UNL     1       0.406  10.720  18.926  0.00  0.00    +0.000 A 
ATOM      8  C   UNL     1       1.404   9.904  18.359  0.00  0.00    +0.000 A 
ATOM      9  C   UNL     1       1.776   8.749  19.063  0.00  0.00    +0.000 A 
ATOM     10  O   UNL     1       2.585   7.692  18.678  0.00  0.00    +0.000 OA
ENDROOT
BRANCH   1  15
ATOM     11  C   UNL     1       4.452   2.932  19.595  0.00  0.00    +0.000 A 
ATOM     12  C   UNL     1       3.142   3.067  20.020  0.00  0.00    +0.000 A 
ATOM     13  C   UNL     1       2.530   4.324  20.003  0.00  0.00    +0.000 A 
ATOM     14 BR   UNL     1       0.665   4.261  20.435  0.00  0.00    +0.000 Br
ATOM     15  C   UNL     1       3.245   5.494  19.623  0.00  0.00    +0.000 A 
ATOM     16  C   UNL     1       4.548   5.319  19.123  0.00  0.00    +0.000 A 
ATOM     17  C   UNL     1       5.137   4.047  19.118  0.00  0.00    +0.000 A 
BRANCH  11  18
ATOM     18  O   UNL     1       5.050   1.707  19.621  0.00  0.00    +0.000 OA
ATOM     19  H   UNL     1       5.887   1.741  19.122  0.00  0.00    +0.000 HD
ENDBRANCH  11  18
BRANCH  17  20
ATOM     20  O   UNL     1       6.416   3.874  18.673  0.00  0.00    +0.000 OA
ATOM     21  H   UNL     1       6.997   4.496  19.131  0.00  0.00    +0.000 HD
ENDBRANCH  17  20
ENDBRANCH   1  15
BRANCH   8  22
ATOM     22  O   UNL     1       1.990  10.261  17.176  0.00  0.00    +0.000 OA
ATOM     23  H   UNL     1       2.699  10.900  17.366  0.00  0.00    +0.000 HD
ENDBRANCH   8  22
TORSDOF 4
ENDMDL
MODEL 7
REMARK VINA RESULT:      -6.7      1.954      2.417
REMARK  Name = 
REMARK  4 active torsions:
REMARK  status: ('A' for Active; 'I' for Inactive)
REMARK    1  A    between atoms: O_1  and  C_2
REMARK    2  A    between atoms: C_6  and  C_7
REMARK    3  A    between atoms: C_14  and  O_15
REMARK    4  A    between atoms: C_19  and  O_20
REMARK                            x       y       z     vdW  Elec       q    Type
REMARK                         _______ _______ _______ _____ _____    ______ ____
ROOT
ATOM      1  C   UNL     1       4.564   4.601  17.647  0.00  0.00    +0.000 A 
ATOM      2  C   UNL     1       4.011   3.494  18.260  0.00  0.00    +0.000 A 
ATOM      3  C   UNL     1       2.871   3.944  18.951  0.00  0.00    +0.000 A 
ATOM      4  C   UNL     1       1.727   3.334  19.467  0.00  0.00    +0.000 A 
ATOM      5 BR   UNL     1       1.275   1.568  18.954  0.00  0.00    +0.000 Br
ATOM      6  C   UNL     1       0.868   4.075  20.274  0.00  0.00    +0.000 A 
ATOM      7  C   UNL     1       1.181   5.396  20.605  0.00  0.00    +0.000 A 
ATOM      8  C   UNL     1       2.286   6.045  20.022  0.00  0.00    +0.000 A 
ATOM      9  C   UNL     1       3.072   5.310  19.123  0.00  0.00    +0.000 A 
ATOM     10  O   UNL     1       4.094   5.726  18.284  0.00  0.00    +0.000 OA
ENDROOT
BRANCH   1  15
ATOM     11  C   UNL     1       7.138   5.098  14.236  0.00  0.00    +0.000 A 
ATOM     12  C   UNL     1       7.477   5.692  15.439  0.00  0.00    +0.000 A 
ATOM     13  C   UNL     1       6.686   5.472  16.570  0.00  0.00    +0.000 A 
ATOM     14 BR   UNL     1       7.435   6.214  18.170  0.00  0.00    +0.000 Br
ATOM     15  C   UNL     1       5.490   4.704  16.504  0.00  0.00    +0.000 A 
ATOM     16  C   UNL     1       5.210   4.050  15.291  0.00  0.00    +0.000 A 
ATOM     17  C   UNL     1       6.031   4.256  14.173  0.00  0.00    +0.000 A 
BRANCH  11  18
ATOM     18  O   UNL     1       7.906   5.321  13.130  0.00  0.00    +0.000 OA
ATOM     19  H   UNL     1       7.770   6.235  12.817  0.00  0.00    +0.000 HD
ENDBRANCH  11  18
BRANCH  17  20
ATOM     20  O   UNL     1       5.744   3.658  12.980  0.00  0.00    +0.000 OA
ATOM     21  H   UNL     1       5.010   3.043  13.102  0.00  0.00    +0.000 HD
ENDBRANCH  17  20
ENDBRANCH   1  15
BRANCH   8  22
ATOM     22  O   UNL     1       2.576   7.340  20.358  0.00  0.00    +0.000 OA
ATOM     23  H   UNL     1       3.487   7.533  20.074  0.00  0.00    +0.000 HD
ENDBRANCH   8  22
TORSDOF 4
ENDMDL
MODEL 8
REMARK VINA RESULT:      -6.7      3.508      5.484
REMARK  Name = 
REMARK  4 active torsions:
REMARK  status: ('A' for Active; 'I' for Inactive)
REMARK    1  A    between atoms: O_1  and  C_2
REMARK    2  A    between atoms: C_6  and  C_7
REMARK    3  A    between atoms: C_14  and  O_15
REMARK    4  A    between atoms: C_19  and  O_20
REMARK                            x       y       z     vdW  Elec       q    Type
REMARK                         _______ _______ _______ _____ _____    ______ ____
ROOT
ATOM      1  C   UNL     1       2.553   6.631  19.032  0.00  0.00    +0.000 A 
ATOM      2  C   UNL     1       2.151   7.146  20.249  0.00  0.00    +0.000 A 
ATOM      3  C   UNL     1       1.489   8.357  19.976  0.00  0.00    +0.000 A 
ATOM      4  C   UNL     1       0.592   9.168  20.671  0.00  0.00    +0.000 A 
ATOM      5 BR   UNL     1      -0.293   8.509  22.210  0.00  0.00    +0.000 Br
ATOM      6  C   UNL     1       0.274  10.423  20.159  0.00  0.00    +0.000 A 
ATOM      7  C   UNL     1       0.892  10.882  18.992  0.00  0.00    +0.000 A 
ATOM      8  C   UNL     1       1.733  10.040  18.240  0.00  0.00    +0.000 A 
ATOM      9  C   UNL     1       1.947   8.739  18.719  0.00  0.00    +0.000 A 
ATOM     10  O   UNL     1       2.570   7.658  18.116  0.00  0.00    +0.000 OA
ENDROOT
BRANCH   1  15
ATOM     11  C   UNL     1       3.791   2.627  18.063  0.00  0.00    +0.000 A 
ATOM     12  C   UNL     1       2.794   2.825  19.002  0.00  0.00    +0.000 A 
ATOM     13  C   UNL     1       2.334   4.118  19.266  0.00  0.00    +0.000 A 
ATOM     14 BR   UNL     1       0.822   4.155  20.442  0.00  0.00    +0.000 Br
ATOM     15  C   UNL     1       2.916   5.257  18.642  0.00  0.00    +0.000 A 
ATOM     16  C   UNL     1       3.871   5.023  17.637  0.00  0.00    +0.000 A 
ATOM     17  C   UNL     1       4.301   3.716  17.362  0.00  0.00    +0.000 A 
BRANCH  11  18
ATOM     18  O   UNL     1       4.246   1.365  17.813  0.00  0.00    +0.000 OA
ATOM     19  H   UNL     1       3.489   0.756  17.726  0.00  0.00    +0.000 HD
ENDBRANCH  11  18
BRANCH  17  20
ATOM     20  O   UNL     1       5.258   3.483  16.417  0.00  0.00    +0.000 OA
ATOM     21  H   UNL     1       6.130   3.636  16.805  0.00  0.00    +0.000 HD
ENDBRANCH  17  20
ENDBRANCH   1  15
BRANCH   8  22
ATOM     22  O   UNL     1       2.328  10.507  17.099  0.00  0.00    +0.000 OA
ATOM     23  H   UNL     1       2.247   9.824  16.410  0.00  0.00    +0.000 HD
ENDBRANCH   8  22
TORSDOF 4
ENDMDL
MODEL 9
REMARK VINA RESULT:      -6.6      1.075      1.087
REMARK  Name = 
REMARK  4 active torsions:
REMARK  status: ('A' for Active; 'I' for Inactive)
REMARK    1  A    between atoms: O_1  and  C_2
REMARK    2  A    between atoms: C_6  and  C_7
REMARK    3  A    between atoms: C_14  and  O_15
REMARK    4  A    between atoms: C_19  and  O_20
REMARK                            x       y       z     vdW  Elec       q    Type
REMARK                         _______ _______ _______ _____ _____    ______ ____
ROOT
ATOM      1  C   UNL     1       4.387   4.663  17.182  0.00  0.00    +0.000 A 
ATOM      2  C   UNL     1       3.349   5.532  17.456  0.00  0.00    +0.000 A 
ATOM      3  C   UNL     1       2.995   5.326  18.802  0.00  0.00    +0.000 A 
ATOM      4  C   UNL     1       2.300   6.061  19.762  0.00  0.00    +0.000 A 
ATOM      5 BR   UNL     1       1.944   7.900  19.481  0.00  0.00    +0.000 Br
ATOM      6  C   UNL     1       1.969   5.457  20.972  0.00  0.00    +0.000 A 
ATOM      7  C   UNL     1       2.283   4.113  21.194  0.00  0.00    +0.000 A 
ATOM      8  C   UNL     1       3.057   3.388  20.267  0.00  0.00    +0.000 A 
ATOM      9  C   UNL     1       3.474   4.056  19.107  0.00  0.00    +0.000 A 
ATOM     10  O   UNL     1       4.369   3.661  18.125  0.00  0.00    +0.000 OA
ENDROOT
BRANCH   1  15
ATOM     11  C   UNL     1       7.229   4.914  13.963  0.00  0.00    +0.000 A 
ATOM     12  C   UNL     1       7.413   5.685  15.097  0.00  0.00    +0.000 A 
ATOM     13  C   UNL     1       6.536   5.552  16.178  0.00  0.00    +0.000 A 
ATOM     14 BR   UNL     1       7.080   6.555  17.717  0.00  0.00    +0.000 Br
ATOM     15  C   UNL     1       5.406   4.690  16.118  0.00  0.00    +0.000 A 
ATOM     16  C   UNL     1       5.287   3.862  14.987  0.00  0.00    +0.000 A 
ATOM     17  C   UNL     1       6.193   3.985  13.924  0.00  0.00    +0.000 A 
BRANCH  11  18
ATOM     18  O   UNL     1       8.081   5.051  12.905  0.00  0.00    +0.000 OA
ATOM     19  H   UNL     1       7.732   5.724  12.291  0.00  0.00    +0.000 HD
ENDBRANCH  11  18
BRANCH  17  20
ATOM     20  O   UNL     1       6.061   3.215  12.804  0.00  0.00    +0.000 OA
ATOM     21  H   UNL     1       5.263   3.482  12.329  0.00  0.00    +0.000 HD
ENDBRANCH  17  20
ENDBRANCH   1  15
BRANCH   8  22
ATOM     22  O   UNL     1       3.354   2.074  20.504  0.00  0.00    +0.000 OA
ATOM     23  H   UNL     1       2.826   1.772  21.264  0.00  0.00    +0.000 HD
ENDBRANCH   8  22
TORSDOF 4
ENDMDL
