MODEL 1
REMARK VINA RESULT:      -6.5      0.000      0.000
REMARK  Name = 
REMARK  10 active torsions:
REMARK  status: ('A' for Active; 'I' for Inactive)
REMARK    1  A    between atoms: C_2  and  O_3
REMARK    2  A    between atoms: C_2  and  C_4
REMARK    3  A    between atoms: C_4  and  C_5
REMARK    4  A    between atoms: C_5  and  C_6
REMARK    5  A    between atoms: C_6  and  C_7
REMARK    6  A    between atoms: C_8  and  C_9
REMARK    7  A    between atoms: C_9  and  C_10
REMARK    8  A    between atoms: C_10  and  C_11
REMARK    9  A    between atoms: C_12  and  C_13
REMARK   10  A    between atoms: C_13  and  C_14
REMARK                            x       y       z     vdW  Elec       q    Type
REMARK                         _______ _______ _______ _____ _____    ______ ____
ROOT
ATOM      1  C   UNL     1       7.222   6.126  17.409  0.00  0.00    +0.000 C 
ENDROOT
BRANCH   1   3
ATOM      2  C   UNL     1       7.080   4.137  15.844  0.00  0.00    +0.000 C 
ATOM      3  C   UNL     1       7.403   4.679  17.027  0.00  0.00    +0.000 C 
BRANCH   2   4
ATOM      4  C   UNL     1       6.496   4.914  14.703  0.00  0.00    +0.000 C 
BRANCH   4   5
ATOM      5  C   UNL     1       5.505   4.092  13.886  0.00  0.00    +0.000 C 
BRANCH   5   6
ATOM      6  C   UNL     1       6.130   3.687  12.553  0.00  0.00    +0.000 C 
BRANCH   6   8
ATOM      7  O   UNL     1       4.092   3.216  11.320  0.00  0.00    +0.000 OA
ATOM      8  C   UNL     1       5.187   2.859  11.721  0.00  0.00    +0.000 C 
BRANCH   8   9
ATOM      9  O   UNL     1       5.691   1.630  11.452  0.00  0.00    +0.000 OA
ATOM     10  H   UNL     1       6.208   1.248  12.187  0.00  0.00    +0.000 HD
ENDBRANCH   8   9
ENDBRANCH   6   8
ENDBRANCH   5   6
ENDBRANCH   4   5
ENDBRANCH   2   4
ENDBRANCH   1   3
BRANCH   1  11
ATOM     11  C   UNL     1       6.004   6.339  18.310  0.00  0.00    +0.000 C 
BRANCH  11  12
ATOM     12  C   UNL     1       4.769   6.754  17.561  0.00  0.00    +0.000 C 
ATOM     13  C   UNL     1       3.788   5.913  17.192  0.00  0.00    +0.000 C 
BRANCH  13  14
ATOM     14  C   UNL     1       3.759   4.435  17.460  0.00  0.00    +0.000 C 
BRANCH  14  15
ATOM     15  C   UNL     1       2.829   4.085  18.596  0.00  0.00    +0.000 A 
ATOM     16  C   UNL     1       1.687   3.303  18.369  0.00  0.00    +0.000 A 
ATOM     17  C   UNL     1       0.820   2.995  19.419  0.00  0.00    +0.000 A 
ATOM     18  C   UNL     1       1.084   3.468  20.704  0.00  0.00    +0.000 A 
ATOM     19  C   UNL     1       2.215   4.248  20.940  0.00  0.00    +0.000 A 
ATOM     20  C   UNL     1       3.083   4.553  19.893  0.00  0.00    +0.000 A 
ENDBRANCH  14  15
ENDBRANCH  13  14
ENDBRANCH  11  12
ENDBRANCH   1  11
TORSDOF 10
ENDMDL
MODEL 2
REMARK VINA RESULT:      -6.5      1.385      1.597
REMARK  Name = 
REMARK  10 active torsions:
REMARK  status: ('A' for Active; 'I' for Inactive)
REMARK    1  A    between atoms: C_2  and  O_3
REMARK    2  A    between atoms: C_2  and  C_4
REMARK    3  A    between atoms: C_4  and  C_5
REMARK    4  A    between atoms: C_5  and  C_6
REMARK    5  A    between atoms: C_6  and  C_7
REMARK    6  A    between atoms: C_8  and  C_9
REMARK    7  A    between atoms: C_9  and  C_10
REMARK    8  A    between atoms: C_10  and  C_11
REMARK    9  A    between atoms: C_12  and  C_13
REMARK   10  A    between atoms: C_13  and  C_14
REMARK                            x       y       z     vdW  Elec       q    Type
REMARK                         _______ _______ _______ _____ _____    ______ ____
ROOT
ATOM      1  C   UNL     1       7.062   5.596  16.856  0.00  0.00    +0.000 C 
ENDROOT
BRANCH   1   3
ATOM      2  C   UNL     1       5.819   3.716  15.695  0.00  0.00    +0.000 C 
ATOM      3  C   UNL     1       6.409   4.239  16.779  0.00  0.00    +0.000 C 
BRANCH   2   4
ATOM      4  C   UNL     1       5.737   4.414  14.372  0.00  0.00    +0.000 C 
BRANCH   4   5
ATOM      5  C   UNL     1       6.998   4.228  13.536  0.00  0.00    +0.000 C 
BRANCH   5   6
ATOM      6  C   UNL     1       6.634   4.050  12.065  0.00  0.00    +0.000 C 
BRANCH   6   8
ATOM      7  O   UNL     1       4.370   3.265  11.672  0.00  0.00    +0.000 OA
ATOM      8  C   UNL     1       5.548   3.024  11.877  0.00  0.00    +0.000 C 
BRANCH   8   9
ATOM      9  O   UNL     1       6.024   1.758  11.961  0.00  0.00    +0.000 OA
ATOM     10  H   UNL     1       5.650   1.153  11.293  0.00  0.00    +0.000 HD
ENDBRANCH   8   9
ENDBRANCH   6   8
ENDBRANCH   5   6
ENDBRANCH   4   5
ENDBRANCH   2   4
ENDBRANCH   1   3
BRANCH   1  11
ATOM     11  C   UNL     1       6.251   6.581  17.700  0.00  0.00    +0.000 C 
BRANCH  11  12
ATOM     12  C   UNL     1       4.970   7.020  17.048  0.00  0.00    +0.000 C 
ATOM     13  C   UNL     1       3.746   6.796  17.554  0.00  0.00    +0.000 C 
BRANCH  13  14
ATOM     14  C   UNL     1       3.453   6.079  18.841  0.00  0.00    +0.000 C 
BRANCH  14  15
ATOM     15  C   UNL     1       3.384   4.582  18.651  0.00  0.00    +0.000 A 
ATOM     16  C   UNL     1       2.579   4.027  17.647  0.00  0.00    +0.000 A 
ATOM     17  C   UNL     1       2.504   2.642  17.485  0.00  0.00    +0.000 A 
ATOM     18  C   UNL     1       3.232   1.801  18.326  0.00  0.00    +0.000 A 
ATOM     19  C   UNL     1       4.035   2.343  19.328  0.00  0.00    +0.000 A 
ATOM     20  C   UNL     1       4.112   3.725  19.488  0.00  0.00    +0.000 A 
ENDBRANCH  14  15
ENDBRANCH  13  14
ENDBRANCH  11  12
ENDBRANCH   1  11
TORSDOF 10
ENDMDL
MODEL 3
REMARK VINA RESULT:      -6.3      3.092      6.483
REMARK  Name = 
REMARK  10 active torsions:
REMARK  status: ('A' for Active; 'I' for Inactive)
REMARK    1  A    between atoms: C_2  and  O_3
REMARK    2  A    between atoms: C_2  and  C_4
REMARK    3  A    between atoms: C_4  and  C_5
REMARK    4  A    between atoms: C_5  and  C_6
REMARK    5  A    between atoms: C_6  and  C_7
REMARK    6  A    between atoms: C_8  and  C_9
REMARK    7  A    between atoms: C_9  and  C_10
REMARK    8  A    between atoms: C_10  and  C_11
REMARK    9  A    between atoms: C_12  and  C_13
REMARK   10  A    between atoms: C_13  and  C_14
REMARK                            x       y       z     vdW  Elec       q    Type
REMARK                         _______ _______ _______ _____ _____    ______ ____
ROOT
ATOM      1  C   UNL     1       3.845   5.624  18.652  0.00  0.00    +0.000 C 
ENDROOT
BRANCH   1   3
ATOM      2  C   UNL     1       1.993   6.349  20.224  0.00  0.00    +0.000 C 
ATOM      3  C   UNL     1       2.814   6.583  19.189  0.00  0.00    +0.000 C 
BRANCH   2   4
ATOM      4  C   UNL     1       1.998   5.080  21.021  0.00  0.00    +0.000 C 
BRANCH   4   5
ATOM      5  C   UNL     1       0.988   4.063  20.501  0.00  0.00    +0.000 C 
BRANCH   5   6
ATOM      6  C   UNL     1       1.657   2.704  20.316  0.00  0.00    +0.000 C 
BRANCH   6   8
ATOM      7  O   UNL     1       0.253   2.231  18.392  0.00  0.00    +0.000 OA
ATOM      8  C   UNL     1       1.305   2.081  18.991  0.00  0.00    +0.000 C 
BRANCH   8   9
ATOM      9  O   UNL     1       2.308   1.308  18.510  0.00  0.00    +0.000 OA
ATOM     10  H   UNL     1       2.087   0.852  17.676  0.00  0.00    +0.000 HD
ENDBRANCH   8   9
ENDBRANCH   6   8
ENDBRANCH   5   6
ENDBRANCH   4   5
ENDBRANCH   2   4
ENDBRANCH   1   3
BRANCH   1  11
ATOM     11  C   UNL     1       3.364   4.905  17.389  0.00  0.00    +0.000 C 
BRANCH  11  12
ATOM     12  C   UNL     1       4.203   3.716  17.018  0.00  0.00    +0.000 C 
ATOM     13  C   UNL     1       5.347   3.784  16.316  0.00  0.00    +0.000 C 
BRANCH  13  14
ATOM     14  C   UNL     1       5.971   5.045  15.788  0.00  0.00    +0.000 C 
BRANCH  14  15
ATOM     15  C   UNL     1       6.780   5.759  16.845  0.00  0.00    +0.000 A 
ATOM     16  C   UNL     1       7.316   5.054  17.932  0.00  0.00    +0.000 A 
ATOM     17  C   UNL     1       8.048   5.721  18.916  0.00  0.00    +0.000 A 
ATOM     18  C   UNL     1       8.250   7.097  18.823  0.00  0.00    +0.000 A 
ATOM     19  C   UNL     1       7.721   7.808  17.748  0.00  0.00    +0.000 A 
ATOM     20  C   UNL     1       6.992   7.143  16.764  0.00  0.00    +0.000 A 
ENDBRANCH  14  15
ENDBRANCH  13  14
ENDBRANCH  11  12
ENDBRANCH   1  11
TORSDOF 10
ENDMDL
MODEL 4
REMARK VINA RESULT:      -6.3      2.010      3.198
REMARK  Name = 
REMARK  10 active torsions:
REMARK  status: ('A' for Active; 'I' for Inactive)
REMARK    1  A    between atoms: C_2  and  O_3
REMARK    2  A    between atoms: C_2  and  C_4
REMARK    3  A    between atoms: C_4  and  C_5
REMARK    4  A    between atoms: C_5  and  C_6
REMARK    5  A    between atoms: C_6  and  C_7
REMARK    6  A    between atoms: C_8  and  C_9
REMARK    7  A    between atoms: C_9  and  C_10
REMARK    8  A    between atoms: C_10  and  C_11
REMARK    9  A    between atoms: C_12  and  C_13
REMARK   10  A    between atoms: C_13  and  C_14
REMARK                            x       y       z     vdW  Elec       q    Type
REMARK                         _______ _______ _______ _____ _____    ______ ____
ROOT
ATOM      1  C   UNL     1       3.416   6.349  17.657  0.00  0.00    +0.000 C 
ENDROOT
BRANCH   1   3
ATOM      2  C   UNL     1       5.573   5.232  18.383  0.00  0.00    +0.000 C 
ATOM      3  C   UNL     1       4.622   6.163  18.543  0.00  0.00    +0.000 C 
BRANCH   2   4
ATOM      4  C   UNL     1       5.582   4.232  17.267  0.00  0.00    +0.000 C 
BRANCH   4   5
ATOM      5  C   UNL     1       6.624   4.557  16.203  0.00  0.00    +0.000 C 
BRANCH   5   6
ATOM      6  C   UNL     1       5.939   4.903  14.883  0.00  0.00    +0.000 C 
BRANCH   6   8
ATOM      7  O   UNL     1       6.662   3.949  12.771  0.00  0.00    +0.000 OA
ATOM      8  C   UNL     1       6.858   4.707  13.706  0.00  0.00    +0.000 C 
BRANCH   8   9
ATOM      9  O   UNL     1       7.967   5.481  13.790  0.00  0.00    +0.000 OA
ATOM     10  H   UNL     1       8.790   4.975  13.928  0.00  0.00    +0.000 HD
ENDBRANCH   8   9
ENDBRANCH   6   8
ENDBRANCH   5   6
ENDBRANCH   4   5
ENDBRANCH   2   4
ENDBRANCH   1   3
BRANCH   1  11
ATOM     11  C   UNL     1       2.221   6.925  18.419  0.00  0.00    +0.000 C 
BRANCH  11  12
ATOM     12  C   UNL     1       2.350   6.814  19.912  0.00  0.00    +0.000 C 
ATOM     13  C   UNL     1       1.836   5.812  20.646  0.00  0.00    +0.000 C 
BRANCH  13  14
ATOM     14  C   UNL     1       1.055   4.649  20.105  0.00  0.00    +0.000 C 
BRANCH  14  15
ATOM     15  C   UNL     1       1.954   3.590  19.514  0.00  0.00    +0.000 A 
ATOM     16  C   UNL     1       1.729   3.104  18.218  0.00  0.00    +0.000 A 
ATOM     17  C   UNL     1       2.552   2.113  17.681  0.00  0.00    +0.000 A 
ATOM     18  C   UNL     1       3.606   1.596  18.435  0.00  0.00    +0.000 A 
ATOM     19  C   UNL     1       3.837   2.070  19.725  0.00  0.00    +0.000 A 
ATOM     20  C   UNL     1       3.018   3.063  20.260  0.00  0.00    +0.000 A 
ENDBRANCH  14  15
ENDBRANCH  13  14
ENDBRANCH  11  12
ENDBRANCH   1  11
TORSDOF 10
ENDMDL
MODEL 5
REMARK VINA RESULT:      -6.2      4.342      6.875
REMARK  Name = 
REMARK  10 active torsions:
REMARK  status: ('A' for Active; 'I' for Inactive)
REMARK    1  A    between atoms: C_2  and  O_3
REMARK    2  A    between atoms: C_2  and  C_4
REMARK    3  A    between atoms: C_4  and  C_5
REMARK    4  A    between atoms: C_5  and  C_6
REMARK    5  A    between atoms: C_6  and  C_7
REMARK    6  A    between atoms: C_8  and  C_9
REMARK    7  A    between atoms: C_9  and  C_10
REMARK    8  A    between atoms: C_10  and  C_11
REMARK    9  A    between atoms: C_12  and  C_13
REMARK   10  A    between atoms: C_13  and  C_14
REMARK                            x       y       z     vdW  Elec       q    Type
REMARK                         _______ _______ _______ _____ _____    ______ ____
ROOT
ATOM      1  C   UNL     1       1.311   4.375  19.487  0.00  0.00    +0.000 C 
ENDROOT
BRANCH   1   3
ATOM      2  C   UNL     1       2.513   6.600  19.668  0.00  0.00    +0.000 C 
ATOM      3  C   UNL     1       1.962   5.514  20.230  0.00  0.00    +0.000 C 
BRANCH   2   4
ATOM      4  C   UNL     1       2.544   6.849  18.191  0.00  0.00    +0.000 C 
BRANCH   4   5
ATOM      5  C   UNL     1       2.723   8.325  17.853  0.00  0.00    +0.000 C 
BRANCH   5   6
ATOM      6  C   UNL     1       1.377   9.043  17.901  0.00  0.00    +0.000 C 
BRANCH   6   8
ATOM      7  O   UNL     1       1.975  11.366  18.281  0.00  0.00    +0.000 OA
ATOM      8  C   UNL     1       1.458  10.333  18.674  0.00  0.00    +0.000 C 
BRANCH   8   9
ATOM      9  O   UNL     1       0.880  10.232  19.895  0.00  0.00    +0.000 OA
ATOM     10  H   UNL     1       0.887  11.065  20.403  0.00  0.00    +0.000 HD
ENDBRANCH   8   9
ENDBRANCH   6   8
ENDBRANCH   5   6
ENDBRANCH   4   5
ENDBRANCH   2   4
ENDBRANCH   1   3
BRANCH   1  11
ATOM     11  C   UNL     1       1.546   3.027  20.171  0.00  0.00    +0.000 C 
BRANCH  11  12
ATOM     12  C   UNL     1       2.157   1.993  19.269  0.00  0.00    +0.000 C 
ATOM     13  C   UNL     1       3.471   1.898  19.006  0.00  0.00    +0.000 C 
BRANCH  13  14
ATOM     14  C   UNL     1       4.539   2.797  19.560  0.00  0.00    +0.000 C 
BRANCH  14  15
ATOM     15  C   UNL     1       4.940   3.871  18.577  0.00  0.00    +0.000 A 
ATOM     16  C   UNL     1       4.555   3.786  17.231  0.00  0.00    +0.000 A 
ATOM     17  C   UNL     1       4.943   4.771  16.321  0.00  0.00    +0.000 A 
ATOM     18  C   UNL     1       5.720   5.847  16.746  0.00  0.00    +0.000 A 
ATOM     19  C   UNL     1       6.110   5.940  18.081  0.00  0.00    +0.000 A 
ATOM     20  C   UNL     1       5.721   4.959  18.991  0.00  0.00    +0.000 A 
ENDBRANCH  14  15
ENDBRANCH  13  14
ENDBRANCH  11  12
ENDBRANCH   1  11
TORSDOF 10
ENDMDL
MODEL 6
REMARK VINA RESULT:      -6.2      2.336      4.709
REMARK  Name = 
REMARK  10 active torsions:
REMARK  status: ('A' for Active; 'I' for Inactive)
REMARK    1  A    between atoms: C_2  and  O_3
REMARK    2  A    between atoms: C_2  and  C_4
REMARK    3  A    between atoms: C_4  and  C_5
REMARK    4  A    between atoms: C_5  and  C_6
REMARK    5  A    between atoms: C_6  and  C_7
REMARK    6  A    between atoms: C_8  and  C_9
REMARK    7  A    between atoms: C_9  and  C_10
REMARK    8  A    between atoms: C_10  and  C_11
REMARK    9  A    between atoms: C_12  and  C_13
REMARK   10  A    between atoms: C_13  and  C_14
REMARK                            x       y       z     vdW  Elec       q    Type
REMARK                         _______ _______ _______ _____ _____    ______ ____
ROOT
ATOM      1  C   UNL     1       1.599   3.001  18.102  0.00  0.00    +0.000 C 
ENDROOT
BRANCH   1   3
ATOM      2  C   UNL     1       4.010   2.572  17.445  0.00  0.00    +0.000 C 
ATOM      3  C   UNL     1       2.904   2.245  18.129  0.00  0.00    +0.000 C 
BRANCH   2   4
ATOM      4  C   UNL     1       4.114   3.771  16.552  0.00  0.00    +0.000 C 
BRANCH   4   5
ATOM      5  C   UNL     1       5.333   3.711  15.638  0.00  0.00    +0.000 C 
BRANCH   5   6
ATOM      6  C   UNL     1       6.565   4.240  16.367  0.00  0.00    +0.000 C 
BRANCH   6   8
ATOM      7  O   UNL     1       7.572   5.237  14.395  0.00  0.00    +0.000 OA
ATOM      8  C   UNL     1       7.269   5.310  15.575  0.00  0.00    +0.000 C 
BRANCH   8   9
ATOM      9  O   UNL     1       7.546   6.402  16.327  0.00  0.00    +0.000 OA
ATOM     10  H   UNL     1       8.351   6.310  16.871  0.00  0.00    +0.000 HD
ENDBRANCH   8   9
ENDBRANCH   6   8
ENDBRANCH   5   6
ENDBRANCH   4   5
ENDBRANCH   2   4
ENDBRANCH   1   3
BRANCH   1  11
ATOM     11  C   UNL     1       0.837   2.888  19.424  0.00  0.00    +0.000 C 
BRANCH  11  12
ATOM     12  C   UNL     1       1.716   3.011  20.636  0.00  0.00    +0.000 C 
ATOM     13  C   UNL     1       2.080   4.178  21.194  0.00  0.00    +0.000 C 
BRANCH  13  14
ATOM     14  C   UNL     1       1.677   5.541  20.706  0.00  0.00    +0.000 C 
BRANCH  14  15
ATOM     15  C   UNL     1       2.632   6.074  19.665  0.00  0.00    +0.000 A 
ATOM     16  C   UNL     1       2.201   7.006  18.711  0.00  0.00    +0.000 A 
ATOM     17  C   UNL     1       3.083   7.484  17.740  0.00  0.00    +0.000 A 
ATOM     18  C   UNL     1       4.402   7.032  17.712  0.00  0.00    +0.000 A 
ATOM     19  C   UNL     1       4.841   6.104  18.654  0.00  0.00    +0.000 A 
ATOM     20  C   UNL     1       3.961   5.629  19.626  0.00  0.00    +0.000 A 
ENDBRANCH  14  15
ENDBRANCH  13  14
ENDBRANCH  11  12
ENDBRANCH   1  11
TORSDOF 10
ENDMDL
MODEL 7
REMARK VINA RESULT:      -6.1      4.462      5.713
REMARK  Name = 
REMARK  10 active torsions:
REMARK  status: ('A' for Active; 'I' for Inactive)
REMARK    1  A    between atoms: C_2  and  O_3
REMARK    2  A    between atoms: C_2  and  C_4
REMARK    3  A    between atoms: C_4  and  C_5
REMARK    4  A    between atoms: C_5  and  C_6
REMARK    5  A    between atoms: C_6  and  C_7
REMARK    6  A    between atoms: C_8  and  C_9
REMARK    7  A    between atoms: C_9  and  C_10
REMARK    8  A    between atoms: C_10  and  C_11
REMARK    9  A    between atoms: C_12  and  C_13
REMARK   10  A    between atoms: C_13  and  C_14
REMARK                            x       y       z     vdW  Elec       q    Type
REMARK                         _______ _______ _______ _____ _____    ______ ____
ROOT
ATOM      1  C   UNL     1       7.428   4.572  16.753  0.00  0.00    +0.000 C 
ENDROOT
BRANCH   1   3
ATOM      2  C   UNL     1       7.811   6.126  18.719  0.00  0.00    +0.000 C 
ATOM      3  C   UNL     1       7.642   4.897  18.210  0.00  0.00    +0.000 C 
BRANCH   2   4
ATOM      4  C   UNL     1       7.794   7.378  17.898  0.00  0.00    +0.000 C 
BRANCH   4   5
ATOM      5  C   UNL     1       8.583   8.510  18.546  0.00  0.00    +0.000 C 
BRANCH   5   6
ATOM      6  C   UNL     1       8.180   9.850  17.936  0.00  0.00    +0.000 C 
BRANCH   6   8
ATOM      7  O   UNL     1       9.298  11.991  17.685  0.00  0.00    +0.000 OA
ATOM      8  C   UNL     1       9.151  10.944  18.294  0.00  0.00    +0.000 C 
BRANCH   8   9
ATOM      9  O   UNL     1       9.875  10.641  19.398  0.00  0.00    +0.000 OA
ATOM     10  H   UNL     1      10.474   9.880  19.279  0.00  0.00    +0.000 HD
ENDBRANCH   8   9
ENDBRANCH   6   8
ENDBRANCH   5   6
ENDBRANCH   4   5
ENDBRANCH   2   4
ENDBRANCH   1   3
BRANCH   1  11
ATOM     11  C   UNL     1       5.958   4.297  16.430  0.00  0.00    +0.000 C 
BRANCH  11  12
ATOM     12  C   UNL     1       5.190   5.526  16.033  0.00  0.00    +0.000 C 
ATOM     13  C   UNL     1       4.425   6.246  16.870  0.00  0.00    +0.000 C 
BRANCH  13  14
ATOM     14  C   UNL     1       4.209   5.948  18.327  0.00  0.00    +0.000 C 
BRANCH  14  15
ATOM     15  C   UNL     1       3.366   4.713  18.532  0.00  0.00    +0.000 A 
ATOM     16  C   UNL     1       2.095   4.611  17.946  0.00  0.00    +0.000 A 
ATOM     17  C   UNL     1       1.311   3.475  18.152  0.00  0.00    +0.000 A 
ATOM     18  C   UNL     1       1.787   2.432  18.946  0.00  0.00    +0.000 A 
ATOM     19  C   UNL     1       3.047   2.524  19.535  0.00  0.00    +0.000 A 
ATOM     20  C   UNL     1       3.832   3.657  19.327  0.00  0.00    +0.000 A 
ENDBRANCH  14  15
ENDBRANCH  13  14
ENDBRANCH  11  12
ENDBRANCH   1  11
TORSDOF 10
ENDMDL
MODEL 8
REMARK VINA RESULT:      -6.1      0.910      1.525
REMARK  Name = 
REMARK  10 active torsions:
REMARK  status: ('A' for Active; 'I' for Inactive)
REMARK    1  A    between atoms: C_2  and  O_3
REMARK    2  A    between atoms: C_2  and  C_4
REMARK    3  A    between atoms: C_4  and  C_5
REMARK    4  A    between atoms: C_5  and  C_6
REMARK    5  A    between atoms: C_6  and  C_7
REMARK    6  A    between atoms: C_8  and  C_9
REMARK    7  A    between atoms: C_9  and  C_10
REMARK    8  A    between atoms: C_10  and  C_11
REMARK    9  A    between atoms: C_12  and  C_13
REMARK   10  A    between atoms: C_13  and  C_14
REMARK                            x       y       z     vdW  Elec       q    Type
REMARK                         _______ _______ _______ _____ _____    ______ ____
ROOT
ATOM      1  C   UNL     1       7.327   6.976  17.383  0.00  0.00    +0.000 C 
ENDROOT
BRANCH   1   3
ATOM      2  C   UNL     1       7.354   4.491  16.885  0.00  0.00    +0.000 C 
ATOM      3  C   UNL     1       7.419   5.516  17.747  0.00  0.00    +0.000 C 
BRANCH   2   4
ATOM      4  C   UNL     1       7.194   4.656  15.404  0.00  0.00    +0.000 C 
BRANCH   4   5
ATOM      5  C   UNL     1       6.180   3.681  14.816  0.00  0.00    +0.000 C 
BRANCH   5   6
ATOM      6  C   UNL     1       5.464   4.319  13.628  0.00  0.00    +0.000 C 
BRANCH   6   8
ATOM      7  O   UNL     1       4.450   3.281  11.681  0.00  0.00    +0.000 OA
ATOM      8  C   UNL     1       5.392   3.384  12.450  0.00  0.00    +0.000 C 
BRANCH   8   9
ATOM      9  O   UNL     1       6.516   2.639  12.320  0.00  0.00    +0.000 OA
ATOM     10  H   UNL     1       7.338   3.165  12.323  0.00  0.00    +0.000 HD
ENDBRANCH   8   9
ENDBRANCH   6   8
ENDBRANCH   5   6
ENDBRANCH   4   5
ENDBRANCH   2   4
ENDBRANCH   1   3
BRANCH   1  11
ATOM     11  C   UNL     1       5.917   7.536  17.589  0.00  0.00    +0.000 C 
BRANCH  11  12
ATOM     12  C   UNL     1       4.869   6.844  16.764  0.00  0.00    +0.000 C 
ATOM     13  C   UNL     1       3.755   6.287  17.266  0.00  0.00    +0.000 C 
BRANCH  13  14
ATOM     14  C   UNL     1       3.372   6.260  18.719  0.00  0.00    +0.000 C 
BRANCH  14  15
ATOM     15  C   UNL     1       2.465   5.097  19.043  0.00  0.00    +0.000 A 
ATOM     16  C   UNL     1       1.958   4.927  20.339  0.00  0.00    +0.000 A 
ATOM     17  C   UNL     1       1.134   3.841  20.639  0.00  0.00    +0.000 A 
ATOM     18  C   UNL     1       0.811   2.915  19.648  0.00  0.00    +0.000 A 
ATOM     19  C   UNL     1       1.311   3.073  18.356  0.00  0.00    +0.000 A 
ATOM     20  C   UNL     1       2.131   4.159  18.056  0.00  0.00    +0.000 A 
ENDBRANCH  14  15
ENDBRANCH  13  14
ENDBRANCH  11  12
ENDBRANCH   1  11
TORSDOF 10
ENDMDL
MODEL 9
REMARK VINA RESULT:      -6.1      2.139      3.768
REMARK  Name = 
REMARK  10 active torsions:
REMARK  status: ('A' for Active; 'I' for Inactive)
REMARK    1  A    between atoms: C_2  and  O_3
REMARK    2  A    between atoms: C_2  and  C_4
REMARK    3  A    between atoms: C_4  and  C_5
REMARK    4  A    between atoms: C_5  and  C_6
REMARK    5  A    between atoms: C_6  and  C_7
REMARK    6  A    between atoms: C_8  and  C_9
REMARK    7  A    between atoms: C_9  and  C_10
REMARK    8  A    between atoms: C_10  and  C_11
REMARK    9  A    between atoms: C_12  and  C_13
REMARK   10  A    between atoms: C_13  and  C_14
REMARK                            x       y       z     vdW  Elec       q    Type
REMARK                         _______ _______ _______ _____ _____    ______ ____
ROOT
ATOM      1  C   UNL     1       3.405   5.997  17.533  0.00  0.00    +0.000 C 
ENDROOT
BRANCH   1   3
ATOM      2  C   UNL     1       5.803   6.766  17.822  0.00  0.00    +0.000 C 
ATOM      3  C   UNL     1       4.575   6.921  17.308  0.00  0.00    +0.000 C 
BRANCH   2   4
ATOM      4  C   UNL     1       6.202   5.617  18.697  0.00  0.00    +0.000 C 
BRANCH   4   5
ATOM      5  C   UNL     1       6.440   4.336  17.905  0.00  0.00    +0.000 C 
BRANCH   5   6
ATOM      6  C   UNL     1       7.507   4.568  16.838  0.00  0.00    +0.000 C 
BRANCH   6   8
ATOM      7  O   UNL     1       5.993   3.820  15.093  0.00  0.00    +0.000 OA
ATOM      8  C   UNL     1       6.931   4.516  15.448  0.00  0.00    +0.000 C 
BRANCH   8   9
ATOM      9  O   UNL     1       7.579   5.346  14.596  0.00  0.00    +0.000 OA
ATOM     10  H   UNL     1       7.573   6.281  14.878  0.00  0.00    +0.000 HD
ENDBRANCH   8   9
ENDBRANCH   6   8
ENDBRANCH   5   6
ENDBRANCH   4   5
ENDBRANCH   2   4
ENDBRANCH   1   3
BRANCH   1  11
ATOM     11  C   UNL     1       2.247   6.693  18.250  0.00  0.00    +0.000 C 
BRANCH  11  12
ATOM     12  C   UNL     1       2.414   6.756  19.742  0.00  0.00    +0.000 C 
ATOM     13  C   UNL     1       1.921   5.846  20.600  0.00  0.00    +0.000 C 
BRANCH  13  14
ATOM     14  C   UNL     1       1.128   4.629  20.218  0.00  0.00    +0.000 C 
BRANCH  14  15
ATOM     15  C   UNL     1       1.995   3.565  19.588  0.00  0.00    +0.000 A 
ATOM     16  C   UNL     1       3.195   3.169  20.196  0.00  0.00    +0.000 A 
ATOM     17  C   UNL     1       4.002   2.197  19.602  0.00  0.00    +0.000 A 
ATOM     18  C   UNL     1       3.620   1.615  18.394  0.00  0.00    +0.000 A 
ATOM     19  C   UNL     1       2.430   2.002  17.780  0.00  0.00    +0.000 A 
ATOM     20  C   UNL     1       1.622   2.970  18.374  0.00  0.00    +0.000 A 
ENDBRANCH  14  15
ENDBRANCH  13  14
ENDBRANCH  11  12
ENDBRANCH   1  11
TORSDOF 10
ENDMDL
