MODEL 1
REMARK VINA RESULT:      -9.1      0.000      0.000
REMARK  Name = 
REMARK  8 active torsions:
REMARK  status: ('A' for Active; 'I' for Inactive)
REMARK    1  A    between atoms: C_1  and  O_2
REMARK    2  A    between atoms: O_2  and  C_3
REMARK    3  A    between atoms: C_8  and  N_9
REMARK    4  A    between atoms: N_9  and  C_10
REMARK    5  A    between atoms: C_16  and  C_17
REMARK    6  A    between atoms: N_19  and  C_20
REMARK    7  A    between atoms: C_23  and  N_24
REMARK    8  A    between atoms: C_27  and  C_28
REMARK                            x       y       z     vdW  Elec       q    Type
REMARK                         _______ _______ _______ _____ _____    ______ ____
ROOT
ATOM      1  C   UNL     1       4.181   4.626  19.325  0.00  0.00    +0.000 A 
ATOM      2  C   UNL     1       4.727   3.275  19.325  0.00  0.00    +0.000 A 
ATOM      3  C   UNL     1       4.135   2.297  20.012  0.00  0.00    +0.000 A 
ATOM      4  N   UNL     1       2.987   2.559  20.709  0.00  0.00    +0.000 N 
ATOM      5  C   UNL     1       2.350   3.780  20.702  0.00  0.00    +0.000 A 
ATOM      6  O   UNL     1       1.342   3.972  21.379  0.00  0.00    +0.000 OA
ATOM      7  C   UNL     1       2.962   4.857  19.874  0.00  0.00    +0.000 A 
ATOM      8  H   UNL     1       2.566   1.836  21.279  0.00  0.00    +0.000 HD
ENDROOT
BRANCH   7   9
ATOM      9  C   UNL     1       2.335   6.201  19.673  0.00  0.00    +0.000 C 
ATOM     10  O   UNL     1       2.233   6.642  18.524  0.00  0.00    +0.000 OA
ATOM     11  N   UNL     1       1.925   6.869  20.808  0.00  0.00    +0.000 N 
ATOM     12  H   UNL     1       2.153   6.448  21.707  0.00  0.00    +0.000 HD
BRANCH  11  13
ATOM     13  C   UNL     1       1.254   8.113  20.827  0.00  0.00    +0.000 A 
ATOM     14  C   UNL     1       1.372   9.056  19.808  0.00  0.00    +0.000 A 
ATOM     15  C   UNL     1       0.691  10.279  19.871  0.00  0.00    +0.000 A 
ATOM     16  C   UNL     1      -0.127  10.618  20.951  0.00  0.00    +0.000 A 
ATOM     17  C   UNL     1      -0.243   9.658  21.966  0.00  0.00    +0.000 A 
ATOM     18  C   UNL     1       0.418   8.416  21.903  0.00  0.00    +0.000 A 
BRANCH  16  19
ATOM     19  N   UNL     1      -0.799  11.826  21.005  0.00  0.00    +0.000 N 
ATOM     20  C   UNL     1      -1.097  12.486  22.276  0.00  0.00    +0.000 C 
ATOM     21  C   UNL     1      -2.606  12.567  22.498  0.00  0.00    +0.000 C 
ATOM     22  C   UNL     1      -3.298  13.235  21.302  0.00  0.00    +0.000 C 
ATOM     23  C   UNL     1      -4.810  13.290  21.506  0.00  0.00    +0.000 C 
ATOM     24  C   UNL     1      -2.941  12.485  20.010  0.00  0.00    +0.000 C 
ATOM     25  C   UNL     1      -1.423  12.395  19.811  0.00  0.00    +0.000 C 
ENDBRANCH  16  19
ENDBRANCH  11  13
ENDBRANCH   7   9
BRANCH   1  26
ATOM     26  N   UNL     1       4.999   5.587  18.731  0.00  0.00    +0.000 N 
ATOM     27  H   UNL     1       5.751   5.846  19.392  0.00  0.00    +0.000 HD
BRANCH  26  33
ATOM     28  C   UNL     1       6.994   4.853  17.319  0.00  0.00    +0.000 A 
ATOM     29  C   UNL     1       7.511   4.675  16.027  0.00  0.00    +0.000 A 
ATOM     30  C   UNL     1       6.738   4.954  14.901  0.00  0.00    +0.000 A 
ATOM     31  C   UNL     1       5.440   5.427  15.049  0.00  0.00    +0.000 A 
ATOM     32  C   UNL     1       4.914   5.618  16.324  0.00  0.00    +0.000 A 
ATOM     33  C   UNL     1       5.673   5.345  17.479  0.00  0.00    +0.000 A 
BRANCH  28  35
ATOM     34  C   UNL     1       8.083   5.780  19.227  0.00  0.00    +0.000 C 
ATOM     35  O   UNL     1       7.767   4.641  18.434  0.00  0.00    +0.000 OA
ENDBRANCH  28  35
ENDBRANCH  26  33
ENDBRANCH   1  26
TORSDOF 6
ENDMDL
MODEL 2
REMARK VINA RESULT:      -8.8      1.302      2.045
REMARK  Name = 
REMARK  8 active torsions:
REMARK  status: ('A' for Active; 'I' for Inactive)
REMARK    1  A    between atoms: C_1  and  O_2
REMARK    2  A    between atoms: O_2  and  C_3
REMARK    3  A    between atoms: C_8  and  N_9
REMARK    4  A    between atoms: N_9  and  C_10
REMARK    5  A    between atoms: C_16  and  C_17
REMARK    6  A    between atoms: N_19  and  C_20
REMARK    7  A    between atoms: C_23  and  N_24
REMARK    8  A    between atoms: C_27  and  C_28
REMARK                            x       y       z     vdW  Elec       q    Type
REMARK                         _______ _______ _______ _____ _____    ______ ____
ROOT
ATOM      1  C   UNL     1       4.073   3.656  18.811  0.00  0.00    +0.000 A 
ATOM      2  C   UNL     1       4.645   2.334  19.028  0.00  0.00    +0.000 A 
ATOM      3  C   UNL     1       4.360   1.637  20.129  0.00  0.00    +0.000 A 
ATOM      4  N   UNL     1       3.502   2.159  21.058  0.00  0.00    +0.000 N 
ATOM      5  C   UNL     1       2.848   3.362  20.904  0.00  0.00    +0.000 A 
ATOM      6  O   UNL     1       2.118   3.804  21.789  0.00  0.00    +0.000 OA
ATOM      7  C   UNL     1       3.100   4.111  19.640  0.00  0.00    +0.000 A 
ATOM      8  H   UNL     1       3.329   1.661  21.922  0.00  0.00    +0.000 HD
ENDROOT
BRANCH   7   9
ATOM      9  C   UNL     1       2.383   5.372  19.272  0.00  0.00    +0.000 C 
ATOM     10  O   UNL     1       1.748   5.407  18.214  0.00  0.00    +0.000 OA
ATOM     11  N   UNL     1       2.502   6.430  20.149  0.00  0.00    +0.000 N 
ATOM     12  H   UNL     1       3.136   6.314  20.939  0.00  0.00    +0.000 HD
BRANCH  11  13
ATOM     13  C   UNL     1       1.853   7.678  20.018  0.00  0.00    +0.000 A 
ATOM     14  C   UNL     1       1.905   8.444  18.855  0.00  0.00    +0.000 A 
ATOM     15  C   UNL     1       1.248   9.678  18.770  0.00  0.00    +0.000 A 
ATOM     16  C   UNL     1       0.522  10.207  19.839  0.00  0.00    +0.000 A 
ATOM     17  C   UNL     1       0.471   9.425  21.001  0.00  0.00    +0.000 A 
ATOM     18  C   UNL     1       1.108   8.171  21.090  0.00  0.00    +0.000 A 
BRANCH  16  19
ATOM     19  N   UNL     1      -0.126  11.426  19.748  0.00  0.00    +0.000 N 
ATOM     20  C   UNL     1      -0.205  12.344  20.884  0.00  0.00    +0.000 C 
ATOM     21  C   UNL     1      -1.655  12.527  21.326  0.00  0.00    +0.000 C 
ATOM     22  C   UNL     1      -2.535  12.962  20.145  0.00  0.00    +0.000 C 
ATOM     23  C   UNL     1      -3.991  13.117  20.577  0.00  0.00    +0.000 C 
ATOM     24  C   UNL     1      -2.401  11.950  18.998  0.00  0.00    +0.000 C 
ATOM     25  C   UNL     1      -0.938  11.761  18.578  0.00  0.00    +0.000 C 
ENDBRANCH  16  19
ENDBRANCH  11  13
ENDBRANCH   7   9
BRANCH   1  26
ATOM     26  N   UNL     1       4.602   4.351  17.723  0.00  0.00    +0.000 N 
ATOM     27  H   UNL     1       3.864   4.947  17.312  0.00  0.00    +0.000 HD
BRANCH  26  33
ATOM     28  C   UNL     1       6.247   6.103  16.869  0.00  0.00    +0.000 A 
ATOM     29  C   UNL     1       7.380   6.882  17.151  0.00  0.00    +0.000 A 
ATOM     30  C   UNL     1       8.005   6.813  18.396  0.00  0.00    +0.000 A 
ATOM     31  C   UNL     1       7.515   5.956  19.373  0.00  0.00    +0.000 A 
ATOM     32  C   UNL     1       6.396   5.169  19.106  0.00  0.00    +0.000 A 
ATOM     33  C   UNL     1       5.746   5.218  17.857  0.00  0.00    +0.000 A 
BRANCH  28  35
ATOM     34  C   UNL     1       6.177   5.208  14.660  0.00  0.00    +0.000 C 
ATOM     35  O   UNL     1       5.663   6.118  15.626  0.00  0.00    +0.000 OA
ENDBRANCH  28  35
ENDBRANCH  26  33
ENDBRANCH   1  26
TORSDOF 6
ENDMDL
MODEL 3
REMARK VINA RESULT:      -8.8      2.969      9.730
REMARK  Name = 
REMARK  8 active torsions:
REMARK  status: ('A' for Active; 'I' for Inactive)
REMARK    1  A    between atoms: C_1  and  O_2
REMARK    2  A    between atoms: O_2  and  C_3
REMARK    3  A    between atoms: C_8  and  N_9
REMARK    4  A    between atoms: N_9  and  C_10
REMARK    5  A    between atoms: C_16  and  C_17
REMARK    6  A    between atoms: N_19  and  C_20
REMARK    7  A    between atoms: C_23  and  N_24
REMARK    8  A    between atoms: C_27  and  C_28
REMARK                            x       y       z     vdW  Elec       q    Type
REMARK                         _______ _______ _______ _____ _____    ______ ____
ROOT
ATOM      1  C   UNL     1      -1.619  12.198  20.772  0.00  0.00    +0.000 A 
ATOM      2  C   UNL     1      -2.626  12.963  21.496  0.00  0.00    +0.000 A 
ATOM      3  C   UNL     1      -2.892  12.705  22.777  0.00  0.00    +0.000 A 
ATOM      4  N   UNL     1      -2.196  11.723  23.428  0.00  0.00    +0.000 N 
ATOM      5  C   UNL     1      -1.170  11.005  22.855  0.00  0.00    +0.000 A 
ATOM      6  O   UNL     1      -0.604  10.106  23.474  0.00  0.00    +0.000 OA
ATOM      7  C   UNL     1      -0.813  11.341  21.448  0.00  0.00    +0.000 A 
ATOM      8  H   UNL     1      -2.435  11.484  24.382  0.00  0.00    +0.000 HD
ENDROOT
BRANCH   7   9
ATOM      9  C   UNL     1       0.346  10.733  20.723  0.00  0.00    +0.000 C 
ATOM     10  O   UNL     1       1.300  11.454  20.416  0.00  0.00    +0.000 OA
ATOM     11  N   UNL     1       0.255   9.388  20.428  0.00  0.00    +0.000 N 
ATOM     12  H   UNL     1      -0.624   8.920  20.643  0.00  0.00    +0.000 HD
BRANCH  11  13
ATOM     13  C   UNL     1       1.265   8.616  19.811  0.00  0.00    +0.000 A 
ATOM     14  C   UNL     1       1.785   8.910  18.552  0.00  0.00    +0.000 A 
ATOM     15  C   UNL     1       2.784   8.114  17.977  0.00  0.00    +0.000 A 
ATOM     16  C   UNL     1       3.300   6.989  18.623  0.00  0.00    +0.000 A 
ATOM     17  C   UNL     1       2.774   6.707  19.892  0.00  0.00    +0.000 A 
ATOM     18  C   UNL     1       1.786   7.514  20.490  0.00  0.00    +0.000 A 
BRANCH  16  19
ATOM     19  N   UNL     1       4.288   6.209  18.050  0.00  0.00    +0.000 N 
ATOM     20  C   UNL     1       5.367   6.793  17.254  0.00  0.00    +0.000 C 
ATOM     21  C   UNL     1       5.286   6.314  15.807  0.00  0.00    +0.000 C 
ATOM     22  C   UNL     1       5.259   4.780  15.740  0.00  0.00    +0.000 C 
ATOM     23  C   UNL     1       5.147   4.297  14.296  0.00  0.00    +0.000 C 
ATOM     24  C   UNL     1       4.101   4.244  16.595  0.00  0.00    +0.000 C 
ATOM     25  C   UNL     1       4.185   4.749  18.041  0.00  0.00    +0.000 C 
ENDBRANCH  16  19
ENDBRANCH  11  13
ENDBRANCH   7   9
BRANCH   1  26
ATOM     26  N   UNL     1      -1.578  12.438  19.398  0.00  0.00    +0.000 N 
ATOM     27  H   UNL     1      -0.593  12.441  19.085  0.00  0.00    +0.000 HD
BRANCH  26  33
ATOM     28  C   UNL     1      -3.662  11.550  18.224  0.00  0.00    +0.000 A 
ATOM     29  C   UNL     1      -4.179  10.657  17.273  0.00  0.00    +0.000 A 
ATOM     30  C   UNL     1      -3.335   9.824  16.539  0.00  0.00    +0.000 A 
ATOM     31  C   UNL     1      -1.964   9.860  16.754  0.00  0.00    +0.000 A 
ATOM     32  C   UNL     1      -1.434  10.734  17.701  0.00  0.00    +0.000 A 
ATOM     33  C   UNL     1      -2.263  11.587  18.457  0.00  0.00    +0.000 A 
BRANCH  28  35
ATOM     34  C   UNL     1      -5.762  12.655  18.450  0.00  0.00    +0.000 C 
ATOM     35  O   UNL     1      -4.488  12.330  18.995  0.00  0.00    +0.000 OA
ENDBRANCH  28  35
ENDBRANCH  26  33
ENDBRANCH   1  26
TORSDOF 6
ENDMDL
MODEL 4
REMARK VINA RESULT:      -8.7      1.075      1.450
REMARK  Name = 
REMARK  8 active torsions:
REMARK  status: ('A' for Active; 'I' for Inactive)
REMARK    1  A    between atoms: C_1  and  O_2
REMARK    2  A    between atoms: O_2  and  C_3
REMARK    3  A    between atoms: C_8  and  N_9
REMARK    4  A    between atoms: N_9  and  C_10
REMARK    5  A    between atoms: C_16  and  C_17
REMARK    6  A    between atoms: N_19  and  C_20
REMARK    7  A    between atoms: C_23  and  N_24
REMARK    8  A    between atoms: C_27  and  C_28
REMARK                            x       y       z     vdW  Elec       q    Type
REMARK                         _______ _______ _______ _____ _____    ______ ____
ROOT
ATOM      1  C   UNL     1       4.330   4.527  19.229  0.00  0.00    +0.000 A 
ATOM      2  C   UNL     1       4.916   3.206  19.415  0.00  0.00    +0.000 A 
ATOM      3  C   UNL     1       4.324   2.297  20.191  0.00  0.00    +0.000 A 
ATOM      4  N   UNL     1       3.139   2.600  20.805  0.00  0.00    +0.000 N 
ATOM      5  C   UNL     1       2.466   3.788  20.624  0.00  0.00    +0.000 A 
ATOM      6  O   UNL     1       1.424   4.024  21.232  0.00  0.00    +0.000 OA
ATOM      7  C   UNL     1       3.081   4.779  19.696  0.00  0.00    +0.000 A 
ATOM      8  H   UNL     1       2.716   1.936  21.441  0.00  0.00    +0.000 HD
ENDROOT
BRANCH   7   9
ATOM      9  C   UNL     1       2.422   6.065  19.308  0.00  0.00    +0.000 C 
ATOM     10  O   UNL     1       2.176   6.269  18.115  0.00  0.00    +0.000 OA
ATOM     11  N   UNL     1       2.150   6.954  20.327  0.00  0.00    +0.000 N 
ATOM     12  H   UNL     1       2.490   6.717  21.258  0.00  0.00    +0.000 HD
BRANCH  11  13
ATOM     13  C   UNL     1       1.476   8.187  20.179  0.00  0.00    +0.000 A 
ATOM     14  C   UNL     1       0.604   8.697  21.139  0.00  0.00    +0.000 A 
ATOM     15  C   UNL     1      -0.046   9.923  20.949  0.00  0.00    +0.000 A 
ATOM     16  C   UNL     1       0.134  10.687  19.794  0.00  0.00    +0.000 A 
ATOM     17  C   UNL     1       1.019  10.167  18.839  0.00  0.00    +0.000 A 
ATOM     18  C   UNL     1       1.697   8.947  19.030  0.00  0.00    +0.000 A 
BRANCH  16  19
ATOM     19  N   UNL     1      -0.509  11.898  19.614  0.00  0.00    +0.000 N 
ATOM     20  C   UNL     1       0.098  13.163  20.027  0.00  0.00    +0.000 C 
ATOM     21  C   UNL     1      -0.726  13.817  21.134  0.00  0.00    +0.000 C 
ATOM     22  C   UNL     1      -2.191  13.972  20.705  0.00  0.00    +0.000 C 
ATOM     23  C   UNL     1      -3.025  14.598  21.821  0.00  0.00    +0.000 C 
ATOM     24  C   UNL     1      -2.757  12.606  20.290  0.00  0.00    +0.000 C 
ATOM     25  C   UNL     1      -1.909  11.952  19.193  0.00  0.00    +0.000 C 
ENDBRANCH  16  19
ENDBRANCH  11  13
ENDBRANCH   7   9
BRANCH   1  26
ATOM     26  N   UNL     1       5.143   5.438  18.555  0.00  0.00    +0.000 N 
ATOM     27  H   UNL     1       5.973   5.644  19.136  0.00  0.00    +0.000 HD
BRANCH  26  33
ATOM     28  C   UNL     1       6.968   5.490  16.773  0.00  0.00    +0.000 A 
ATOM     29  C   UNL     1       7.330   5.157  15.459  0.00  0.00    +0.000 A 
ATOM     30  C   UNL     1       6.441   4.491  14.616  0.00  0.00    +0.000 A 
ATOM     31  C   UNL     1       5.171   4.158  15.071  0.00  0.00    +0.000 A 
ATOM     32  C   UNL     1       4.791   4.489  16.370  0.00  0.00    +0.000 A 
ATOM     33  C   UNL     1       5.669   5.162  17.242  0.00  0.00    +0.000 A 
BRANCH  28  35
ATOM     34  C   UNL     1       7.696   7.618  17.562  0.00  0.00    +0.000 C 
ATOM     35  O   UNL     1       7.813   6.200  17.589  0.00  0.00    +0.000 OA
ENDBRANCH  28  35
ENDBRANCH  26  33
ENDBRANCH   1  26
TORSDOF 6
ENDMDL
MODEL 5
REMARK VINA RESULT:      -8.7      1.573      2.524
REMARK  Name = 
REMARK  8 active torsions:
REMARK  status: ('A' for Active; 'I' for Inactive)
REMARK    1  A    between atoms: C_1  and  O_2
REMARK    2  A    between atoms: O_2  and  C_3
REMARK    3  A    between atoms: C_8  and  N_9
REMARK    4  A    between atoms: N_9  and  C_10
REMARK    5  A    between atoms: C_16  and  C_17
REMARK    6  A    between atoms: N_19  and  C_20
REMARK    7  A    between atoms: C_23  and  N_24
REMARK    8  A    between atoms: C_27  and  C_28
REMARK                            x       y       z     vdW  Elec       q    Type
REMARK                         _______ _______ _______ _____ _____    ______ ____
ROOT
ATOM      1  C   UNL     1       4.104   3.729  18.746  0.00  0.00    +0.000 A 
ATOM      2  C   UNL     1       4.605   2.396  19.058  0.00  0.00    +0.000 A 
ATOM      3  C   UNL     1       4.236   1.770  20.176  0.00  0.00    +0.000 A 
ATOM      4  N   UNL     1       3.357   2.376  21.033  0.00  0.00    +0.000 N 
ATOM      5  C   UNL     1       2.767   3.596  20.785  0.00  0.00    +0.000 A 
ATOM      6  O   UNL     1       2.014   4.113  21.608  0.00  0.00    +0.000 OA
ATOM      7  C   UNL     1       3.113   4.267  19.500  0.00  0.00    +0.000 A 
ATOM      8  H   UNL     1       3.120   1.931  21.910  0.00  0.00    +0.000 HD
ENDROOT
BRANCH   7   9
ATOM      9  C   UNL     1       2.473   5.536  19.034  0.00  0.00    +0.000 C 
ATOM     10  O   UNL     1       1.923   5.552  17.928  0.00  0.00    +0.000 OA
ATOM     11  N   UNL     1       2.562   6.622  19.880  0.00  0.00    +0.000 N 
ATOM     12  H   UNL     1       3.127   6.515  20.721  0.00  0.00    +0.000 HD
BRANCH  11  13
ATOM     13  C   UNL     1       1.969   7.885  19.655  0.00  0.00    +0.000 A 
ATOM     14  C   UNL     1       1.244   8.569  20.629  0.00  0.00    +0.000 A 
ATOM     15  C   UNL     1       0.670   9.818  20.361  0.00  0.00    +0.000 A 
ATOM     16  C   UNL     1       0.784  10.435  19.112  0.00  0.00    +0.000 A 
ATOM     17  C   UNL     1       1.522   9.740  18.144  0.00  0.00    +0.000 A 
ATOM     18  C   UNL     1       2.123   8.494  18.409  0.00  0.00    +0.000 A 
BRANCH  16  19
ATOM     19  N   UNL     1       0.217  11.670  18.855  0.00  0.00    +0.000 N 
ATOM     20  C   UNL     1       0.914  12.918  19.166  0.00  0.00    +0.000 C 
ATOM     21  C   UNL     1       0.157  13.702  20.236  0.00  0.00    +0.000 C 
ATOM     22  C   UNL     1      -1.304  13.923  19.820  0.00  0.00    +0.000 C 
ATOM     23  C   UNL     1      -2.072  14.680  20.901  0.00  0.00    +0.000 C 
ATOM     24  C   UNL     1      -1.966  12.571  19.515  0.00  0.00    +0.000 C 
ATOM     25  C   UNL     1      -1.185  11.786  18.454  0.00  0.00    +0.000 C 
ENDBRANCH  16  19
ENDBRANCH  11  13
ENDBRANCH   7   9
BRANCH   1  26
ATOM     26  N   UNL     1       4.717   4.343  17.653  0.00  0.00    +0.000 N 
ATOM     27  H   UNL     1       4.010   4.889  17.133  0.00  0.00    +0.000 HD
BRANCH  26  33
ATOM     28  C   UNL     1       6.320   6.155  16.843  0.00  0.00    +0.000 A 
ATOM     29  C   UNL     1       7.426   6.961  17.149  0.00  0.00    +0.000 A 
ATOM     30  C   UNL     1       8.040   6.892  18.399  0.00  0.00    +0.000 A 
ATOM     31  C   UNL     1       7.565   6.006  19.358  0.00  0.00    +0.000 A 
ATOM     32  C   UNL     1       6.473   5.191  19.068  0.00  0.00    +0.000 A 
ATOM     33  C   UNL     1       5.834   5.241  17.813  0.00  0.00    +0.000 A 
BRANCH  28  35
ATOM     34  C   UNL     1       6.242   5.232  14.646  0.00  0.00    +0.000 C 
ATOM     35  O   UNL     1       5.748   6.171  15.594  0.00  0.00    +0.000 OA
ENDBRANCH  28  35
ENDBRANCH  26  33
ENDBRANCH   1  26
TORSDOF 6
ENDMDL
MODEL 6
REMARK VINA RESULT:      -8.7      1.019      1.370
REMARK  Name = 
REMARK  8 active torsions:
REMARK  status: ('A' for Active; 'I' for Inactive)
REMARK    1  A    between atoms: C_1  and  O_2
REMARK    2  A    between atoms: O_2  and  C_3
REMARK    3  A    between atoms: C_8  and  N_9
REMARK    4  A    between atoms: N_9  and  C_10
REMARK    5  A    between atoms: C_16  and  C_17
REMARK    6  A    between atoms: N_19  and  C_20
REMARK    7  A    between atoms: C_23  and  N_24
REMARK    8  A    between atoms: C_27  and  C_28
REMARK                            x       y       z     vdW  Elec       q    Type
REMARK                         _______ _______ _______ _____ _____    ______ ____
ROOT
ATOM      1  C   UNL     1       3.956   4.049  19.566  0.00  0.00    +0.000 A 
ATOM      2  C   UNL     1       4.757   2.833  19.511  0.00  0.00    +0.000 A 
ATOM      3  C   UNL     1       4.543   1.833  20.367  0.00  0.00    +0.000 A 
ATOM      4  N   UNL     1       3.544   1.939  21.296  0.00  0.00    +0.000 N 
ATOM      5  C   UNL     1       2.682   3.010  21.373  0.00  0.00    +0.000 A 
ATOM      6  O   UNL     1       1.826   3.073  22.253  0.00  0.00    +0.000 OA
ATOM      7  C   UNL     1       2.863   4.097  20.369  0.00  0.00    +0.000 A 
ATOM      8  H   UNL     1       3.417   1.209  21.985  0.00  0.00    +0.000 HD
ENDROOT
BRANCH   7   9
ATOM      9  C   UNL     1       1.942   5.270  20.248  0.00  0.00    +0.000 C 
ATOM     10  O   UNL     1       0.728   5.064  20.155  0.00  0.00    +0.000 OA
ATOM     11  N   UNL     1       2.527   6.519  20.229  0.00  0.00    +0.000 N 
ATOM     12  H   UNL     1       3.545   6.558  20.211  0.00  0.00    +0.000 HD
BRANCH  11  13
ATOM     13  C   UNL     1       1.831   7.748  20.188  0.00  0.00    +0.000 A 
ATOM     14  C   UNL     1       1.146   8.270  21.283  0.00  0.00    +0.000 A 
ATOM     15  C   UNL     1       0.466   9.492  21.197  0.00  0.00    +0.000 A 
ATOM     16  C   UNL     1       0.430  10.240  20.017  0.00  0.00    +0.000 A 
ATOM     17  C   UNL     1       1.129   9.707  18.925  0.00  0.00    +0.000 A 
ATOM     18  C   UNL     1       1.836   8.491  19.007  0.00  0.00    +0.000 A 
BRANCH  16  19
ATOM     19  N   UNL     1      -0.241  11.446  19.939  0.00  0.00    +0.000 N 
ATOM     20  C   UNL     1      -0.363  12.337  21.094  0.00  0.00    +0.000 C 
ATOM     21  C   UNL     1      -1.826  12.480  21.508  0.00  0.00    +0.000 C 
ATOM     22  C   UNL     1      -2.689  12.923  20.319  0.00  0.00    +0.000 C 
ATOM     23  C   UNL     1      -4.158  13.038  20.722  0.00  0.00    +0.000 C 
ATOM     24  C   UNL     1      -2.510  11.941  19.153  0.00  0.00    +0.000 C 
ATOM     25  C   UNL     1      -1.035  11.792  18.760  0.00  0.00    +0.000 C 
ENDBRANCH  16  19
ENDBRANCH  11  13
ENDBRANCH   7   9
BRANCH   1  26
ATOM     26  N   UNL     1       4.408   5.086  18.749  0.00  0.00    +0.000 N 
ATOM     27  H   UNL     1       4.931   5.766  19.325  0.00  0.00    +0.000 HD
BRANCH  26  33
ATOM     28  C   UNL     1       6.669   4.766  17.612  0.00  0.00    +0.000 A 
ATOM     29  C   UNL     1       7.352   4.524  16.410  0.00  0.00    +0.000 A 
ATOM     30  C   UNL     1       6.656   4.335  15.216  0.00  0.00    +0.000 A 
ATOM     31  C   UNL     1       5.268   4.397  15.204  0.00  0.00    +0.000 A 
ATOM     32  C   UNL     1       4.575   4.645  16.387  0.00  0.00    +0.000 A 
ATOM     33  C   UNL     1       5.253   4.840  17.607  0.00  0.00    +0.000 A 
BRANCH  28  35
ATOM     34  C   UNL     1       7.928   6.305  18.927  0.00  0.00    +0.000 C 
ATOM     35  O   UNL     1       7.347   5.015  18.781  0.00  0.00    +0.000 OA
ENDBRANCH  28  35
ENDBRANCH  26  33
ENDBRANCH   1  26
TORSDOF 6
ENDMDL
MODEL 7
REMARK VINA RESULT:      -8.7      1.108      1.542
REMARK  Name = 
REMARK  8 active torsions:
REMARK  status: ('A' for Active; 'I' for Inactive)
REMARK    1  A    between atoms: C_1  and  O_2
REMARK    2  A    between atoms: O_2  and  C_3
REMARK    3  A    between atoms: C_8  and  N_9
REMARK    4  A    between atoms: N_9  and  C_10
REMARK    5  A    between atoms: C_16  and  C_17
REMARK    6  A    between atoms: N_19  and  C_20
REMARK    7  A    between atoms: C_23  and  N_24
REMARK    8  A    between atoms: C_27  and  C_28
REMARK                            x       y       z     vdW  Elec       q    Type
REMARK                         _______ _______ _______ _____ _____    ______ ____
ROOT
ATOM      1  C   UNL     1       4.249   4.646  19.106  0.00  0.00    +0.000 A 
ATOM      2  C   UNL     1       4.776   3.288  19.092  0.00  0.00    +0.000 A 
ATOM      3  C   UNL     1       4.228   2.333  19.846  0.00  0.00    +0.000 A 
ATOM      4  N   UNL     1       3.142   2.626  20.626  0.00  0.00    +0.000 N 
ATOM      5  C   UNL     1       2.523   3.856  20.642  0.00  0.00    +0.000 A 
ATOM      6  O   UNL     1       1.574   4.077  21.393  0.00  0.00    +0.000 OA
ATOM      7  C   UNL     1       3.080   4.907  19.744  0.00  0.00    +0.000 A 
ATOM      8  H   UNL     1       2.760   1.922  21.243  0.00  0.00    +0.000 HD
ENDROOT
BRANCH   7   9
ATOM      9  C   UNL     1       2.456   6.254  19.563  0.00  0.00    +0.000 C 
ATOM     10  O   UNL     1       2.272   6.675  18.417  0.00  0.00    +0.000 OA
ATOM     11  N   UNL     1       2.141   6.950  20.712  0.00  0.00    +0.000 N 
ATOM     12  H   UNL     1       2.431   6.543  21.600  0.00  0.00    +0.000 HD
BRANCH  11  13
ATOM     13  C   UNL     1       1.488   8.203  20.757  0.00  0.00    +0.000 A 
ATOM     14  C   UNL     1       1.366   9.036  19.646  0.00  0.00    +0.000 A 
ATOM     15  C   UNL     1       0.713  10.272  19.737  0.00  0.00    +0.000 A 
ATOM     16  C   UNL     1       0.165  10.736  20.935  0.00  0.00    +0.000 A 
ATOM     17  C   UNL     1       0.289   9.886  22.043  0.00  0.00    +0.000 A 
ATOM     18  C   UNL     1       0.922   8.630  21.958  0.00  0.00    +0.000 A 
BRANCH  16  19
ATOM     19  N   UNL     1      -0.480  11.957  21.017  0.00  0.00    +0.000 N 
ATOM     20  C   UNL     1       0.197  13.210  20.686  0.00  0.00    +0.000 C 
ATOM     21  C   UNL     1       0.304  14.104  21.920  0.00  0.00    +0.000 C 
ATOM     22  C   UNL     1      -1.075  14.321  22.558  0.00  0.00    +0.000 C 
ATOM     23  C   UNL     1      -0.968  15.190  23.809  0.00  0.00    +0.000 C 
ATOM     24  C   UNL     1      -1.718  12.964  22.879  0.00  0.00    +0.000 C 
ATOM     25  C   UNL     1      -1.801  12.070  21.635  0.00  0.00    +0.000 C 
ENDBRANCH  16  19
ENDBRANCH  11  13
ENDBRANCH   7   9
BRANCH   1  26
ATOM     26  N   UNL     1       5.029   5.583  18.427  0.00  0.00    +0.000 N 
ATOM     27  H   UNL     1       5.814   5.872  19.034  0.00  0.00    +0.000 HD
BRANCH  26  33
ATOM     28  C   UNL     1       6.972   5.575  16.774  0.00  0.00    +0.000 A 
ATOM     29  C   UNL     1       7.413   5.228  15.487  0.00  0.00    +0.000 A 
ATOM     30  C   UNL     1       6.563   4.587  14.586  0.00  0.00    +0.000 A 
ATOM     31  C   UNL     1       5.256   4.295  14.953  0.00  0.00    +0.000 A 
ATOM     32  C   UNL     1       4.798   4.640  16.222  0.00  0.00    +0.000 A 
ATOM     33  C   UNL     1       5.635   5.288  17.152  0.00  0.00    +0.000 A 
BRANCH  28  35
ATOM     34  C   UNL     1       7.722   7.682  17.598  0.00  0.00    +0.000 C 
ATOM     35  O   UNL     1       7.781   6.261  17.645  0.00  0.00    +0.000 OA
ENDBRANCH  28  35
ENDBRANCH  26  33
ENDBRANCH   1  26
TORSDOF 6
ENDMDL
MODEL 8
REMARK VINA RESULT:      -8.6      1.494      1.964
REMARK  Name = 
REMARK  8 active torsions:
REMARK  status: ('A' for Active; 'I' for Inactive)
REMARK    1  A    between atoms: C_1  and  O_2
REMARK    2  A    between atoms: O_2  and  C_3
REMARK    3  A    between atoms: C_8  and  N_9
REMARK    4  A    between atoms: N_9  and  C_10
REMARK    5  A    between atoms: C_16  and  C_17
REMARK    6  A    between atoms: N_19  and  C_20
REMARK    7  A    between atoms: C_23  and  N_24
REMARK    8  A    between atoms: C_27  and  C_28
REMARK                            x       y       z     vdW  Elec       q    Type
REMARK                         _______ _______ _______ _____ _____    ______ ____
ROOT
ATOM      1  C   UNL     1       4.329   4.360  19.380  0.00  0.00    +0.000 A 
ATOM      2  C   UNL     1       4.765   3.013  19.723  0.00  0.00    +0.000 A 
ATOM      3  C   UNL     1       3.979   2.199  20.430  0.00  0.00    +0.000 A 
ATOM      4  N   UNL     1       2.739   2.625  20.820  0.00  0.00    +0.000 N 
ATOM      5  C   UNL     1       2.207   3.847  20.474  0.00  0.00    +0.000 A 
ATOM      6  O   UNL     1       1.102   4.196  20.885  0.00  0.00    +0.000 OA
ATOM      7  C   UNL     1       3.046   4.732  19.618  0.00  0.00    +0.000 A 
ATOM      8  H   UNL     1       2.164   2.033  21.406  0.00  0.00    +0.000 HD
ENDROOT
BRANCH   7   9
ATOM      9  C   UNL     1       2.570   6.039  19.066  0.00  0.00    +0.000 C 
ATOM     10  O   UNL     1       2.485   6.169  17.841  0.00  0.00    +0.000 OA
ATOM     11  N   UNL     1       2.272   7.027  19.981  0.00  0.00    +0.000 N 
ATOM     12  H   UNL     1       2.477   6.834  20.960  0.00  0.00    +0.000 HD
BRANCH  11  13
ATOM     13  C   UNL     1       1.747   8.301  19.668  0.00  0.00    +0.000 A 
ATOM     14  C   UNL     1       1.974   8.937  18.449  0.00  0.00    +0.000 A 
ATOM     15  C   UNL     1       1.437  10.203  18.182  0.00  0.00    +0.000 A 
ATOM     16  C   UNL     1       0.662  10.893  19.118  0.00  0.00    +0.000 A 
ATOM     17  C   UNL     1       0.435  10.239  20.337  0.00  0.00    +0.000 A 
ATOM     18  C   UNL     1       0.951   8.956  20.608  0.00  0.00    +0.000 A 
BRANCH  16  19
ATOM     19  N   UNL     1       0.132  12.142  18.847  0.00  0.00    +0.000 N 
ATOM     20  C   UNL     1       0.983  13.284  18.513  0.00  0.00    +0.000 C 
ATOM     21  C   UNL     1       0.871  14.367  19.583  0.00  0.00    +0.000 C 
ATOM     22  C   UNL     1      -0.596  14.762  19.809  0.00  0.00    +0.000 C 
ATOM     23  C   UNL     1      -0.715  15.823  20.900  0.00  0.00    +0.000 C 
ATOM     24  C   UNL     1      -1.421  13.514  20.157  0.00  0.00    +0.000 C 
ATOM     25  C   UNL     1      -1.283  12.427  19.084  0.00  0.00    +0.000 C 
ENDBRANCH  16  19
ENDBRANCH  11  13
ENDBRANCH   7   9
BRANCH   1  26
ATOM     26  N   UNL     1       5.316   5.167  18.812  0.00  0.00    +0.000 N 
ATOM     27  H   UNL     1       6.169   5.117  19.394  0.00  0.00    +0.000 HD
BRANCH  26  33
ATOM     28  C   UNL     1       7.000   5.432  16.915  0.00  0.00    +0.000 A 
ATOM     29  C   UNL     1       7.303   5.161  15.572  0.00  0.00    +0.000 A 
ATOM     30  C   UNL     1       6.428   4.425  14.774  0.00  0.00    +0.000 A 
ATOM     31  C   UNL     1       5.231   3.959  15.303  0.00  0.00    +0.000 A 
ATOM     32  C   UNL     1       4.910   4.227  16.632  0.00  0.00    +0.000 A 
ATOM     33  C   UNL     1       5.776   4.969  17.460  0.00  0.00    +0.000 A 
BRANCH  28  35
ATOM     34  C   UNL     1       7.669   7.619  17.589  0.00  0.00    +0.000 C 
ATOM     35  O   UNL     1       7.826   6.209  17.691  0.00  0.00    +0.000 OA
ENDBRANCH  28  35
ENDBRANCH  26  33
ENDBRANCH   1  26
TORSDOF 6
ENDMDL
MODEL 9
REMARK VINA RESULT:      -8.6      3.066      9.889
REMARK  Name = 
REMARK  8 active torsions:
REMARK  status: ('A' for Active; 'I' for Inactive)
REMARK    1  A    between atoms: C_1  and  O_2
REMARK    2  A    between atoms: O_2  and  C_3
REMARK    3  A    between atoms: C_8  and  N_9
REMARK    4  A    between atoms: N_9  and  C_10
REMARK    5  A    between atoms: C_16  and  C_17
REMARK    6  A    between atoms: N_19  and  C_20
REMARK    7  A    between atoms: C_23  and  N_24
REMARK    8  A    between atoms: C_27  and  C_28
REMARK                            x       y       z     vdW  Elec       q    Type
REMARK                         _______ _______ _______ _____ _____    ______ ____
ROOT
ATOM      1  C   UNL     1      -1.595  12.899  20.272  0.00  0.00    +0.000 A 
ATOM      2  C   UNL     1      -2.478  13.846  20.942  0.00  0.00    +0.000 A 
ATOM      3  C   UNL     1      -2.617  13.830  22.268  0.00  0.00    +0.000 A 
ATOM      4  N   UNL     1      -1.906  12.930  23.014  0.00  0.00    +0.000 N 
ATOM      5  C   UNL     1      -0.987  12.053  22.481  0.00  0.00    +0.000 A 
ATOM      6  O   UNL     1      -0.404  11.237  23.192  0.00  0.00    +0.000 OA
ATOM      7  C   UNL     1      -0.766  12.117  21.008  0.00  0.00    +0.000 A 
ATOM      8  H   UNL     1      -2.053  12.875  24.014  0.00  0.00    +0.000 HD
ENDROOT
BRANCH   7   9
ATOM      9  C   UNL     1       0.275  11.314  20.294  0.00  0.00    +0.000 C 
ATOM     10  O   UNL     1       1.215  11.905  19.755  0.00  0.00    +0.000 OA
ATOM     11  N   UNL     1       0.096   9.946  20.275  0.00  0.00    +0.000 N 
ATOM     12  H   UNL     1      -0.770   9.582  20.668  0.00  0.00    +0.000 HD
BRANCH  11  13
ATOM     13  C   UNL     1       0.996   9.011  19.714  0.00  0.00    +0.000 A 
ATOM     14  C   UNL     1       1.458   7.892  20.404  0.00  0.00    +0.000 A 
ATOM     15  C   UNL     1       2.352   6.993  19.810  0.00  0.00    +0.000 A 
ATOM     16  C   UNL     1       2.833   7.174  18.510  0.00  0.00    +0.000 A 
ATOM     17  C   UNL     1       2.355   8.299  17.824  0.00  0.00    +0.000 A 
ATOM     18  C   UNL     1       1.437   9.197  18.403  0.00  0.00    +0.000 A 
BRANCH  16  19
ATOM     19  N   UNL     1       3.714   6.281  17.929  0.00  0.00    +0.000 N 
ATOM     20  C   UNL     1       3.996   4.975  18.526  0.00  0.00    +0.000 C 
ATOM     21  C   UNL     1       5.459   4.885  18.953  0.00  0.00    +0.000 C 
ATOM     22  C   UNL     1       6.391   5.217  17.779  0.00  0.00    +0.000 C 
ATOM     23  C   UNL     1       7.855   5.158  18.210  0.00  0.00    +0.000 C 
ATOM     24  C   UNL     1       6.037   6.599  17.210  0.00  0.00    +0.000 C 
ATOM     25  C   UNL     1       4.560   6.681  16.805  0.00  0.00    +0.000 C 
ENDBRANCH  16  19
ENDBRANCH  11  13
ENDBRANCH   7   9
BRANCH   1  26
ATOM     26  N   UNL     1      -1.690  12.895  18.880  0.00  0.00    +0.000 N 
ATOM     27  H   UNL     1      -0.739  12.930  18.476  0.00  0.00    +0.000 HD
BRANCH  26  33
ATOM     28  C   UNL     1      -3.747  11.551  18.193  0.00  0.00    +0.000 A 
ATOM     29  C   UNL     1      -4.246  10.475  17.444  0.00  0.00    +0.000 A 
ATOM     30  C   UNL     1      -3.398   9.696  16.656  0.00  0.00    +0.000 A 
ATOM     31  C   UNL     1      -2.038   9.974  16.616  0.00  0.00    +0.000 A 
ATOM     32  C   UNL     1      -1.524  11.032  17.362  0.00  0.00    +0.000 A 
ATOM     33  C   UNL     1      -2.357  11.835  18.166  0.00  0.00    +0.000 A 
BRANCH  28  35
ATOM     34  C   UNL     1      -5.944  12.339  18.681  0.00  0.00    +0.000 C 
ATOM     35  O   UNL     1      -4.562  12.285  19.020  0.00  0.00    +0.000 OA
ENDBRANCH  28  35
ENDBRANCH  26  33
ENDBRANCH   1  26
TORSDOF 6
ENDMDL
