MODEL 1
REMARK VINA RESULT:      -7.8      0.000      0.000
REMARK  Name = 
REMARK  6 active torsions:
REMARK  status: ('A' for Active; 'I' for Inactive)
REMARK    1  A    between atoms: C_2  and  C_3
REMARK    2  A    between atoms: C_2  and  C_26
REMARK    3  A    between atoms: C_3  and  C_4
REMARK    4  A    between atoms: C_4  and  C_5
REMARK    5  A    between atoms: N_8  and  C_9
REMARK    6  A    between atoms: N_16  and  C_17
REMARK                            x       y       z     vdW  Elec       q    Type
REMARK                         _______ _______ _______ _____ _____    ______ ____
ROOT
ATOM      1  C   UNL     1       0.990  10.350  18.300  0.00  0.00    +0.000 C 
ATOM      2  C   UNL     1       1.641  11.714  18.480  0.00  0.00    +0.000 C 
ATOM      3  O   UNL     1       2.684  12.063  17.946  0.00  0.00    +0.000 OA
ATOM      4  N   UNL     1       0.813  12.449  19.345  0.00  0.00    +0.000 N 
ATOM      5  N   UNL     1      -0.049  11.555  19.991  0.00  0.00    +0.000 N 
ATOM      6  C   UNL     1      -0.212  10.419  19.203  0.00  0.00    +0.000 C 
ATOM      7  O   UNL     1      -1.126   9.608  19.226  0.00  0.00    +0.000 OA
ENDROOT
BRANCH   4   8
ATOM      8  C   UNL     1       1.302  13.604  19.991  0.00  0.00    +0.000 A 
ATOM      9  C   UNL     1       2.310  13.436  20.946  0.00  0.00    +0.000 A 
ATOM     10  C   UNL     1       2.956  14.551  21.487  0.00  0.00    +0.000 A 
ATOM     11  C   UNL     1       2.567  15.831  21.098  0.00  0.00    +0.000 A 
ATOM     12 CL   UNL     1       3.384  17.201  21.742  0.00  0.00    +0.000 Cl
ATOM     13  C   UNL     1       1.532  16.009  20.179  0.00  0.00    +0.000 A 
ATOM     14  C   UNL     1       0.906  14.893  19.613  0.00  0.00    +0.000 A 
ENDBRANCH   4   8
BRANCH   5  15
ATOM     15  C   UNL     1      -1.032  11.903  20.932  0.00  0.00    +0.000 A 
ATOM     16  C   UNL     1      -0.838  11.460  22.249  0.00  0.00    +0.000 A 
ATOM     17  C   UNL     1      -1.764  11.773  23.241  0.00  0.00    +0.000 A 
ATOM     18  C   UNL     1      -2.911  12.483  22.904  0.00  0.00    +0.000 A 
ATOM     19 CL   UNL     1      -4.075  12.838  24.116  0.00  0.00    +0.000 Cl
ATOM     20  C   UNL     1      -3.119  12.916  21.590  0.00  0.00    +0.000 A 
ATOM     21  C   UNL     1      -2.169  12.642  20.601  0.00  0.00    +0.000 A 
ENDBRANCH   5  15
BRANCH   1  22
ATOM     22  C   UNL     1       1.884   9.188  18.748  0.00  0.00    +0.000 C 
BRANCH  22  23
ATOM     23  C   UNL     1       2.229   8.256  17.575  0.00  0.00    +0.000 C 
BRANCH  23  25
ATOM     24  O   UNL     1       4.309   7.059  17.735  0.00  0.00    +0.000 OA
ATOM     25  C   UNL     1       3.101   7.078  17.962  0.00  0.00    +0.000 C 
BRANCH  25  26
ATOM     26  C   UNL     1       2.453   5.921  18.664  0.00  0.00    +0.000 A 
ATOM     27  C   UNL     1       1.981   4.853  17.883  0.00  0.00    +0.000 A 
ATOM     28  C   UNL     1       1.372   3.754  18.489  0.00  0.00    +0.000 A 
ATOM     29  C   UNL     1       1.235   3.720  19.872  0.00  0.00    +0.000 A 
ATOM     30  F   UNL     1       0.649   2.667  20.453  0.00  0.00    +0.000 F 
ATOM     31  C   UNL     1       1.705   4.763  20.662  0.00  0.00    +0.000 A 
ATOM     32  C   UNL     1       2.315   5.867  20.059  0.00  0.00    +0.000 A 
ENDBRANCH  25  26
ENDBRANCH  23  25
ENDBRANCH  22  23
ENDBRANCH   1  22
TORSDOF 6
ENDMDL
MODEL 2
REMARK VINA RESULT:      -7.7      0.274      1.506
REMARK  Name = 
REMARK  6 active torsions:
REMARK  status: ('A' for Active; 'I' for Inactive)
REMARK    1  A    between atoms: C_2  and  C_3
REMARK    2  A    between atoms: C_2  and  C_26
REMARK    3  A    between atoms: C_3  and  C_4
REMARK    4  A    between atoms: C_4  and  C_5
REMARK    5  A    between atoms: N_8  and  C_9
REMARK    6  A    between atoms: N_16  and  C_17
REMARK                            x       y       z     vdW  Elec       q    Type
REMARK                         _______ _______ _______ _____ _____    ______ ____
ROOT
ATOM      1  C   UNL     1       0.952  10.225  18.278  0.00  0.00    +0.000 C 
ATOM      2  C   UNL     1       1.660  11.568  18.401  0.00  0.00    +0.000 C 
ATOM      3  O   UNL     1       2.705  11.857  17.837  0.00  0.00    +0.000 OA
ATOM      4  N   UNL     1       0.878  12.363  19.255  0.00  0.00    +0.000 N 
ATOM      5  N   UNL     1      -0.007  11.525  19.946  0.00  0.00    +0.000 N 
ATOM      6  C   UNL     1      -0.229  10.371  19.200  0.00  0.00    +0.000 C 
ATOM      7  O   UNL     1      -1.173   9.598  19.266  0.00  0.00    +0.000 OA
ENDROOT
BRANCH   4   8
ATOM      8  C   UNL     1       1.424  13.517  19.854  0.00  0.00    +0.000 A 
ATOM      9  C   UNL     1       0.920  14.759  19.451  0.00  0.00    +0.000 A 
ATOM     10  C   UNL     1       1.292  15.920  20.133  0.00  0.00    +0.000 A 
ATOM     11  C   UNL     1       2.195  15.842  21.191  0.00  0.00    +0.000 A 
ATOM     12 CL   UNL     1       2.627  17.270  22.048  0.00  0.00    +0.000 Cl
ATOM     13  C   UNL     1       2.737  14.614  21.570  0.00  0.00    +0.000 A 
ATOM     14  C   UNL     1       2.341  13.446  20.910  0.00  0.00    +0.000 A 
ENDBRANCH   4   8
BRANCH   5  15
ATOM     15  C   UNL     1      -0.957  11.942  20.893  0.00  0.00    +0.000 A 
ATOM     16  C   UNL     1      -2.052  12.676  20.413  0.00  0.00    +0.000 A 
ATOM     17  C   UNL     1      -3.042  13.117  21.289  0.00  0.00    +0.000 A 
ATOM     18  C   UNL     1      -2.907  12.869  22.651  0.00  0.00    +0.000 A 
ATOM     19 CL   UNL     1      -4.105  13.444  23.739  0.00  0.00    +0.000 Cl
ATOM     20  C   UNL     1      -1.810  12.150  23.138  0.00  0.00    +0.000 A 
ATOM     21  C   UNL     1      -0.839  11.668  22.256  0.00  0.00    +0.000 A 
ENDBRANCH   5  15
BRANCH   1  22
ATOM     22  C   UNL     1       1.809   9.044  18.749  0.00  0.00    +0.000 C 
BRANCH  22  23
ATOM     23  C   UNL     1       2.342   8.225  17.562  0.00  0.00    +0.000 C 
BRANCH  23  25
ATOM     24  O   UNL     1       4.405   7.011  17.790  0.00  0.00    +0.000 OA
ATOM     25  C   UNL     1       3.189   7.036  17.968  0.00  0.00    +0.000 C 
BRANCH  25  26
ATOM     26  C   UNL     1       2.504   5.873  18.625  0.00  0.00    +0.000 A 
ATOM     27  C   UNL     1       2.407   5.867  20.026  0.00  0.00    +0.000 A 
ATOM     28  C   UNL     1       1.778   4.809  20.683  0.00  0.00    +0.000 A 
ATOM     29  C   UNL     1       1.245   3.761  19.943  0.00  0.00    +0.000 A 
ATOM     30  F   UNL     1       0.643   2.745  20.572  0.00  0.00    +0.000 F 
ATOM     31  C   UNL     1       1.323   3.754  18.554  0.00  0.00    +0.000 A 
ATOM     32  C   UNL     1       1.953   4.811  17.891  0.00  0.00    +0.000 A 
ENDBRANCH  25  26
ENDBRANCH  23  25
ENDBRANCH  22  23
ENDBRANCH   1  22
TORSDOF 6
ENDMDL
MODEL 3
REMARK VINA RESULT:      -7.4      1.894      2.505
REMARK  Name = 
REMARK  6 active torsions:
REMARK  status: ('A' for Active; 'I' for Inactive)
REMARK    1  A    between atoms: C_2  and  C_3
REMARK    2  A    between atoms: C_2  and  C_26
REMARK    3  A    between atoms: C_3  and  C_4
REMARK    4  A    between atoms: C_4  and  C_5
REMARK    5  A    between atoms: N_8  and  C_9
REMARK    6  A    between atoms: N_16  and  C_17
REMARK                            x       y       z     vdW  Elec       q    Type
REMARK                         _______ _______ _______ _____ _____    ______ ____
ROOT
ATOM      1  C   UNL     1       0.961  10.291  18.414  0.00  0.00    +0.000 C 
ATOM      2  C   UNL     1       1.574  11.679  18.537  0.00  0.00    +0.000 C 
ATOM      3  O   UNL     1       2.637  12.017  18.039  0.00  0.00    +0.000 OA
ATOM      4  N   UNL     1       0.684  12.450  19.305  0.00  0.00    +0.000 N 
ATOM      5  N   UNL     1      -0.195  11.580  19.962  0.00  0.00    +0.000 N 
ATOM      6  C   UNL     1      -0.291  10.390  19.245  0.00  0.00    +0.000 C 
ATOM      7  O   UNL     1      -1.187   9.561  19.273  0.00  0.00    +0.000 OA
ENDROOT
BRANCH   4   8
ATOM      8  C   UNL     1       1.113  13.656  19.898  0.00  0.00    +0.000 A 
ATOM      9  C   UNL     1       0.601  14.851  19.383  0.00  0.00    +0.000 A 
ATOM     10  C   UNL     1       0.848  16.060  20.040  0.00  0.00    +0.000 A 
ATOM     11  C   UNL     1       1.637  16.073  21.188  0.00  0.00    +0.000 A 
ATOM     12 CL   UNL     1       1.913  17.558  22.012  0.00  0.00    +0.000 Cl
ATOM     13  C   UNL     1       2.189  14.892  21.683  0.00  0.00    +0.000 A 
ATOM     14  C   UNL     1       1.916  13.677  21.045  0.00  0.00    +0.000 A 
ENDBRANCH   4   8
BRANCH   5  15
ATOM     15  C   UNL     1      -1.235  11.966  20.823  0.00  0.00    +0.000 A 
ATOM     16  C   UNL     1      -1.108  11.609  22.174  0.00  0.00    +0.000 A 
ATOM     17  C   UNL     1      -2.094  11.964  23.092  0.00  0.00    +0.000 A 
ATOM     18  C   UNL     1      -3.232  12.629  22.647  0.00  0.00    +0.000 A 
ATOM     19 CL   UNL     1      -4.468  13.035  23.768  0.00  0.00    +0.000 Cl
ATOM     20  C   UNL     1      -3.372  12.976  21.299  0.00  0.00    +0.000 A 
ATOM     21  C   UNL     1      -2.364  12.660  20.384  0.00  0.00    +0.000 A 
ENDBRANCH   5  15
BRANCH   1  22
ATOM     22  C   UNL     1       1.852   9.183  18.987  0.00  0.00    +0.000 C 
BRANCH  22  23
ATOM     23  C   UNL     1       2.186   8.122  17.926  0.00  0.00    +0.000 C 
BRANCH  23  25
ATOM     24  O   UNL     1       2.660   6.511  19.647  0.00  0.00    +0.000 OA
ATOM     25  C   UNL     1       2.842   6.876  18.488  0.00  0.00    +0.000 C 
BRANCH  25  26
ATOM     26  C   UNL     1       3.719   6.069  17.577  0.00  0.00    +0.000 A 
ATOM     27  C   UNL     1       3.578   4.671  17.589  0.00  0.00    +0.000 A 
ATOM     28  C   UNL     1       4.371   3.877  16.758  0.00  0.00    +0.000 A 
ATOM     29  C   UNL     1       5.299   4.477  15.916  0.00  0.00    +0.000 A 
ATOM     30  F   UNL     1       6.061   3.716  15.121  0.00  0.00    +0.000 F 
ATOM     31  C   UNL     1       5.447   5.859  15.884  0.00  0.00    +0.000 A 
ATOM     32  C   UNL     1       4.656   6.659  16.714  0.00  0.00    +0.000 A 
ENDBRANCH  25  26
ENDBRANCH  23  25
ENDBRANCH  22  23
ENDBRANCH   1  22
TORSDOF 6
ENDMDL
MODEL 4
REMARK VINA RESULT:      -7.4      1.906      2.382
REMARK  Name = 
REMARK  6 active torsions:
REMARK  status: ('A' for Active; 'I' for Inactive)
REMARK    1  A    between atoms: C_2  and  C_3
REMARK    2  A    between atoms: C_2  and  C_26
REMARK    3  A    between atoms: C_3  and  C_4
REMARK    4  A    between atoms: C_4  and  C_5
REMARK    5  A    between atoms: N_8  and  C_9
REMARK    6  A    between atoms: N_16  and  C_17
REMARK                            x       y       z     vdW  Elec       q    Type
REMARK                         _______ _______ _______ _____ _____    ______ ____
ROOT
ATOM      1  C   UNL     1       0.931  10.182  18.414  0.00  0.00    +0.000 C 
ATOM      2  C   UNL     1       1.562  11.564  18.505  0.00  0.00    +0.000 C 
ATOM      3  O   UNL     1       2.630  11.876  17.999  0.00  0.00    +0.000 OA
ATOM      4  N   UNL     1       0.683  12.364  19.254  0.00  0.00    +0.000 N 
ATOM      5  N   UNL     1      -0.207  11.521  19.931  0.00  0.00    +0.000 N 
ATOM      6  C   UNL     1      -0.319  10.317  19.241  0.00  0.00    +0.000 C 
ATOM      7  O   UNL     1      -1.226   9.500  19.288  0.00  0.00    +0.000 OA
ENDROOT
BRANCH   4   8
ATOM      8  C   UNL     1       1.128  13.577  19.819  0.00  0.00    +0.000 A 
ATOM      9  C   UNL     1       2.032  13.506  20.884  0.00  0.00    +0.000 A 
ATOM     10  C   UNL     1       2.642  14.667  21.365  0.00  0.00    +0.000 A 
ATOM     11  C   UNL     1       2.319  15.900  20.803  0.00  0.00    +0.000 A 
ATOM     12 CL   UNL     1       3.096  17.325  21.376  0.00  0.00    +0.000 Cl
ATOM     13  C   UNL     1       1.386  15.986  19.770  0.00  0.00    +0.000 A 
ATOM     14  C   UNL     1       0.798  14.821  19.267  0.00  0.00    +0.000 A 
ENDBRANCH   4   8
BRANCH   5  15
ATOM     15  C   UNL     1      -1.243  11.940  20.782  0.00  0.00    +0.000 A 
ATOM     16  C   UNL     1      -1.116  11.621  22.143  0.00  0.00    +0.000 A 
ATOM     17  C   UNL     1      -2.097  12.012  23.051  0.00  0.00    +0.000 A 
ATOM     18  C   UNL     1      -3.230  12.673  22.590  0.00  0.00    +0.000 A 
ATOM     19 CL   UNL     1      -4.461  13.121  23.701  0.00  0.00    +0.000 Cl
ATOM     20  C   UNL     1      -3.370  12.982  21.233  0.00  0.00    +0.000 A 
ATOM     21  C   UNL     1      -2.366  12.631  20.326  0.00  0.00    +0.000 A 
ENDBRANCH   5  15
BRANCH   1  22
ATOM     22  C   UNL     1       1.808   9.075  19.012  0.00  0.00    +0.000 C 
BRANCH  22  23
ATOM     23  C   UNL     1       2.377   8.154  17.922  0.00  0.00    +0.000 C 
BRANCH  23  25
ATOM     24  O   UNL     1       2.502   6.379  19.540  0.00  0.00    +0.000 OA
ATOM     25  C   UNL     1       2.837   6.804  18.437  0.00  0.00    +0.000 C 
BRANCH  25  26
ATOM     26  C   UNL     1       3.709   5.969  17.546  0.00  0.00    +0.000 A 
ATOM     27  C   UNL     1       4.580   6.629  16.663  0.00  0.00    +0.000 A 
ATOM     28  C   UNL     1       5.411   5.896  15.815  0.00  0.00    +0.000 A 
ATOM     29  C   UNL     1       5.376   4.508  15.850  0.00  0.00    +0.000 A 
ATOM     30  F   UNL     1       6.172   3.804  15.036  0.00  0.00    +0.000 F 
ATOM     31  C   UNL     1       4.527   3.836  16.724  0.00  0.00    +0.000 A 
ATOM     32  C   UNL     1       3.692   4.566  17.575  0.00  0.00    +0.000 A 
ENDBRANCH  25  26
ENDBRANCH  23  25
ENDBRANCH  22  23
ENDBRANCH   1  22
TORSDOF 6
ENDMDL
MODEL 5
REMARK VINA RESULT:      -7.4      1.959      4.687
REMARK  Name = 
REMARK  6 active torsions:
REMARK  status: ('A' for Active; 'I' for Inactive)
REMARK    1  A    between atoms: C_2  and  C_3
REMARK    2  A    between atoms: C_2  and  C_26
REMARK    3  A    between atoms: C_3  and  C_4
REMARK    4  A    between atoms: C_4  and  C_5
REMARK    5  A    between atoms: N_8  and  C_9
REMARK    6  A    between atoms: N_16  and  C_17
REMARK                            x       y       z     vdW  Elec       q    Type
REMARK                         _______ _______ _______ _____ _____    ______ ____
ROOT
ATOM      1  C   UNL     1       1.249  10.475  19.600  0.00  0.00    +0.000 C 
ATOM      2  C   UNL     1       0.118  10.544  20.617  0.00  0.00    +0.000 C 
ATOM      3  O   UNL     1      -0.430   9.571  21.115  0.00  0.00    +0.000 OA
ATOM      4  N   UNL     1      -0.137  11.905  20.851  0.00  0.00    +0.000 N 
ATOM      5  N   UNL     1       0.452  12.645  19.817  0.00  0.00    +0.000 N 
ATOM      6  C   UNL     1       1.510  11.922  19.275  0.00  0.00    +0.000 C 
ATOM      7  O   UNL     1       2.467  12.341  18.642  0.00  0.00    +0.000 OA
ENDROOT
BRANCH   4   8
ATOM      8  C   UNL     1      -1.343  12.312  21.458  0.00  0.00    +0.000 A 
ATOM      9  C   UNL     1      -2.463  12.474  20.635  0.00  0.00    +0.000 A 
ATOM     10  C   UNL     1      -3.721  12.699  21.200  0.00  0.00    +0.000 A 
ATOM     11  C   UNL     1      -3.849  12.798  22.583  0.00  0.00    +0.000 A 
ATOM     12 CL   UNL     1      -5.405  13.045  23.277  0.00  0.00    +0.000 Cl
ATOM     13  C   UNL     1      -2.731  12.682  23.409  0.00  0.00    +0.000 A 
ATOM     14  C   UNL     1      -1.477  12.425  22.847  0.00  0.00    +0.000 A 
ENDBRANCH   4   8
BRANCH   5  15
ATOM     15  C   UNL     1       0.422  14.044  19.694  0.00  0.00    +0.000 A 
ATOM     16  C   UNL     1       1.128  14.782  20.655  0.00  0.00    +0.000 A 
ATOM     17  C   UNL     1       1.155  16.174  20.595  0.00  0.00    +0.000 A 
ATOM     18  C   UNL     1       0.430  16.827  19.604  0.00  0.00    +0.000 A 
ATOM     19 CL   UNL     1       0.428  18.544  19.549  0.00  0.00    +0.000 Cl
ATOM     20  C   UNL     1      -0.289  16.098  18.650  0.00  0.00    +0.000 A 
ATOM     21  C   UNL     1      -0.280  14.701  18.682  0.00  0.00    +0.000 A 
ENDBRANCH   5  15
BRANCH   1  22
ATOM     22  C   UNL     1       0.862   9.738  18.312  0.00  0.00    +0.000 C 
BRANCH  22  23
ATOM     23  C   UNL     1       2.032   8.905  17.765  0.00  0.00    +0.000 C 
BRANCH  23  25
ATOM     24  O   UNL     1       2.006   7.582  19.773  0.00  0.00    +0.000 OA
ATOM     25  C   UNL     1       2.360   7.683  18.600  0.00  0.00    +0.000 C 
BRANCH  25  26
ATOM     26  C   UNL     1       3.122   6.567  17.948  0.00  0.00    +0.000 A 
ATOM     27  C   UNL     1       4.311   6.883  17.270  0.00  0.00    +0.000 A 
ATOM     28  C   UNL     1       5.055   5.879  16.649  0.00  0.00    +0.000 A 
ATOM     29  C   UNL     1       4.615   4.563  16.706  0.00  0.00    +0.000 A 
ATOM     30  F   UNL     1       5.327   3.600  16.109  0.00  0.00    +0.000 F 
ATOM     31  C   UNL     1       3.445   4.229  17.381  0.00  0.00    +0.000 A 
ATOM     32  C   UNL     1       2.696   5.231  18.004  0.00  0.00    +0.000 A 
ENDBRANCH  25  26
ENDBRANCH  23  25
ENDBRANCH  22  23
ENDBRANCH   1  22
TORSDOF 6
ENDMDL
MODEL 6
REMARK VINA RESULT:      -7.3      1.954      2.560
REMARK  Name = 
REMARK  6 active torsions:
REMARK  status: ('A' for Active; 'I' for Inactive)
REMARK    1  A    between atoms: C_2  and  C_3
REMARK    2  A    between atoms: C_2  and  C_26
REMARK    3  A    between atoms: C_3  and  C_4
REMARK    4  A    between atoms: C_4  and  C_5
REMARK    5  A    between atoms: N_8  and  C_9
REMARK    6  A    between atoms: N_16  and  C_17
REMARK                            x       y       z     vdW  Elec       q    Type
REMARK                         _______ _______ _______ _____ _____    ______ ____
ROOT
ATOM      1  C   UNL     1       0.928  10.046  18.447  0.00  0.00    +0.000 C 
ATOM      2  C   UNL     1       1.605  11.409  18.487  0.00  0.00    +0.000 C 
ATOM      3  O   UNL     1       2.665  11.675  17.940  0.00  0.00    +0.000 OA
ATOM      4  N   UNL     1       0.776  12.252  19.246  0.00  0.00    +0.000 N 
ATOM      5  N   UNL     1      -0.117  11.454  19.970  0.00  0.00    +0.000 N 
ATOM      6  C   UNL     1      -0.290  10.239  19.311  0.00  0.00    +0.000 C 
ATOM      7  O   UNL     1      -1.220   9.453  19.406  0.00  0.00    +0.000 OA
ENDROOT
BRANCH   4   8
ATOM      8  C   UNL     1       1.278  13.463  19.769  0.00  0.00    +0.000 A 
ATOM      9  C   UNL     1       2.213  13.385  20.806  0.00  0.00    +0.000 A 
ATOM     10  C   UNL     1       2.875  14.536  21.240  0.00  0.00    +0.000 A 
ATOM     11  C   UNL     1       2.574  15.767  20.661  0.00  0.00    +0.000 A 
ATOM     12 CL   UNL     1       3.413  17.178  21.176  0.00  0.00    +0.000 Cl
ATOM     13  C   UNL     1       1.610  15.860  19.656  0.00  0.00    +0.000 A 
ATOM     14  C   UNL     1       0.970  14.705  19.199  0.00  0.00    +0.000 A 
ENDBRANCH   4   8
BRANCH   5  15
ATOM     15  C   UNL     1      -1.110  11.924  20.845  0.00  0.00    +0.000 A 
ATOM     16  C   UNL     1      -2.180  12.630  20.273  0.00  0.00    +0.000 A 
ATOM     17  C   UNL     1      -3.208  13.119  21.074  0.00  0.00    +0.000 A 
ATOM     18  C   UNL     1      -3.139  12.950  22.453  0.00  0.00    +0.000 A 
ATOM     19 CL   UNL     1      -4.386  13.586  23.448  0.00  0.00    +0.000 Cl
ATOM     20  C   UNL     1      -2.068  12.260  23.032  0.00  0.00    +0.000 A 
ATOM     21  C   UNL     1      -1.058  11.728  22.226  0.00  0.00    +0.000 A 
ENDBRANCH   5  15
BRANCH   1  22
ATOM     22  C   UNL     1       1.788   8.925  19.042  0.00  0.00    +0.000 C 
BRANCH  22  23
ATOM     23  C   UNL     1       2.488   8.107  17.944  0.00  0.00    +0.000 C 
BRANCH  23  25
ATOM     24  O   UNL     1       2.560   6.239  19.457  0.00  0.00    +0.000 OA
ATOM     25  C   UNL     1       2.934   6.730  18.394  0.00  0.00    +0.000 C 
BRANCH  25  26
ATOM     26  C   UNL     1       3.842   5.952  17.488  0.00  0.00    +0.000 A 
ATOM     27  C   UNL     1       3.760   4.550  17.512  0.00  0.00    +0.000 A 
ATOM     28  C   UNL     1       4.583   3.783  16.687  0.00  0.00    +0.000 A 
ATOM     29  C   UNL     1       5.484   4.413  15.838  0.00  0.00    +0.000 A 
ATOM     30  F   UNL     1       6.275   3.677  15.047  0.00  0.00    +0.000 F 
ATOM     31  C   UNL     1       5.573   5.800  15.793  0.00  0.00    +0.000 A 
ATOM     32  C   UNL     1       4.751   6.573  16.618  0.00  0.00    +0.000 A 
ENDBRANCH  25  26
ENDBRANCH  23  25
ENDBRANCH  22  23
ENDBRANCH   1  22
TORSDOF 6
ENDMDL
MODEL 7
REMARK VINA RESULT:      -7.3      2.046      4.645
REMARK  Name = 
REMARK  6 active torsions:
REMARK  status: ('A' for Active; 'I' for Inactive)
REMARK    1  A    between atoms: C_2  and  C_3
REMARK    2  A    between atoms: C_2  and  C_26
REMARK    3  A    between atoms: C_3  and  C_4
REMARK    4  A    between atoms: C_4  and  C_5
REMARK    5  A    between atoms: N_8  and  C_9
REMARK    6  A    between atoms: N_16  and  C_17
REMARK                            x       y       z     vdW  Elec       q    Type
REMARK                         _______ _______ _______ _____ _____    ______ ____
ROOT
ATOM      1  C   UNL     1       1.203  10.438  19.633  0.00  0.00    +0.000 C 
ATOM      2  C   UNL     1       0.008  10.388  20.574  0.00  0.00    +0.000 C 
ATOM      3  O   UNL     1      -0.529   9.361  20.963  0.00  0.00    +0.000 OA
ATOM      4  N   UNL     1      -0.318  11.718  20.889  0.00  0.00    +0.000 N 
ATOM      5  N   UNL     1       0.304  12.554  19.954  0.00  0.00    +0.000 N 
ATOM      6  C   UNL     1       1.424  11.914  19.432  0.00  0.00    +0.000 C 
ATOM      7  O   UNL     1       2.400  12.415  18.896  0.00  0.00    +0.000 OA
ENDROOT
BRANCH   4   8
ATOM      8  C   UNL     1      -1.576  12.032  21.443  0.00  0.00    +0.000 A 
ATOM      9  C   UNL     1      -1.684  12.061  22.837  0.00  0.00    +0.000 A 
ATOM     10  C   UNL     1      -2.851  12.538  23.440  0.00  0.00    +0.000 A 
ATOM     11  C   UNL     1      -3.920  12.950  22.647  0.00  0.00    +0.000 A 
ATOM     12 CL   UNL     1      -5.343  13.566  23.392  0.00  0.00    +0.000 Cl
ATOM     13  C   UNL     1      -3.838  12.882  21.256  0.00  0.00    +0.000 A 
ATOM     14  C   UNL     1      -2.659  12.435  20.651  0.00  0.00    +0.000 A 
ENDBRANCH   4   8
BRANCH   5  15
ATOM     15  C   UNL     1       0.224  13.957  19.931  0.00  0.00    +0.000 A 
ATOM     16  C   UNL     1      -0.272  14.547  18.759  0.00  0.00    +0.000 A 
ATOM     17  C   UNL     1      -0.391  15.931  18.664  0.00  0.00    +0.000 A 
ATOM     18  C   UNL     1       0.037  16.727  19.721  0.00  0.00    +0.000 A 
ATOM     19 CL   UNL     1      -0.071  18.437  19.592  0.00  0.00    +0.000 Cl
ATOM     20  C   UNL     1       0.546  16.146  20.888  0.00  0.00    +0.000 A 
ATOM     21  C   UNL     1       0.624  14.756  21.003  0.00  0.00    +0.000 A 
ENDBRANCH   5  15
BRANCH   1  22
ATOM     22  C   UNL     1       0.930   9.786  18.272  0.00  0.00    +0.000 C 
BRANCH  22  23
ATOM     23  C   UNL     1       2.140   8.974  17.782  0.00  0.00    +0.000 C 
BRANCH  23  25
ATOM     24  O   UNL     1       1.979   7.568  19.726  0.00  0.00    +0.000 OA
ATOM     25  C   UNL     1       2.394   7.709  18.578  0.00  0.00    +0.000 C 
BRANCH  25  26
ATOM     26  C   UNL     1       3.159   6.601  17.916  0.00  0.00    +0.000 A 
ATOM     27  C   UNL     1       4.301   6.938  17.170  0.00  0.00    +0.000 A 
ATOM     28  C   UNL     1       5.046   5.943  16.537  0.00  0.00    +0.000 A 
ATOM     29  C   UNL     1       4.655   4.614  16.651  0.00  0.00    +0.000 A 
ATOM     30  F   UNL     1       5.369   3.660  16.042  0.00  0.00    +0.000 F 
ATOM     31  C   UNL     1       3.534   4.260  17.393  0.00  0.00    +0.000 A 
ATOM     32  C   UNL     1       2.783   5.254  18.029  0.00  0.00    +0.000 A 
ENDBRANCH  25  26
ENDBRANCH  23  25
ENDBRANCH  22  23
ENDBRANCH   1  22
TORSDOF 6
ENDMDL
MODEL 8
REMARK VINA RESULT:      -7.3      1.025      1.285
REMARK  Name = 
REMARK  6 active torsions:
REMARK  status: ('A' for Active; 'I' for Inactive)
REMARK    1  A    between atoms: C_2  and  C_3
REMARK    2  A    between atoms: C_2  and  C_26
REMARK    3  A    between atoms: C_3  and  C_4
REMARK    4  A    between atoms: C_4  and  C_5
REMARK    5  A    between atoms: N_8  and  C_9
REMARK    6  A    between atoms: N_16  and  C_17
REMARK                            x       y       z     vdW  Elec       q    Type
REMARK                         _______ _______ _______ _____ _____    ______ ____
ROOT
ATOM      1  C   UNL     1       1.102  10.276  18.297  0.00  0.00    +0.000 C 
ATOM      2  C   UNL     1       1.705  11.664  18.463  0.00  0.00    +0.000 C 
ATOM      3  O   UNL     1       2.726  12.048  17.912  0.00  0.00    +0.000 OA
ATOM      4  N   UNL     1       0.864  12.371  19.337  0.00  0.00    +0.000 N 
ATOM      5  N   UNL     1       0.044  11.449  19.999  0.00  0.00    +0.000 N 
ATOM      6  C   UNL     1      -0.089  10.304  19.218  0.00  0.00    +0.000 C 
ATOM      7  O   UNL     1      -0.971   9.460  19.258  0.00  0.00    +0.000 OA
ENDROOT
BRANCH   4   8
ATOM      8  C   UNL     1       1.319  13.546  19.972  0.00  0.00    +0.000 A 
ATOM      9  C   UNL     1       2.374  13.425  20.883  0.00  0.00    +0.000 A 
ATOM     10  C   UNL     1       2.983  14.568  21.405  0.00  0.00    +0.000 A 
ATOM     11  C   UNL     1       2.513  15.829  21.043  0.00  0.00    +0.000 A 
ATOM     12 CL   UNL     1       3.285  17.235  21.663  0.00  0.00    +0.000 Cl
ATOM     13  C   UNL     1       1.433  15.958  20.169  0.00  0.00    +0.000 A 
ATOM     14  C   UNL     1       0.842  14.815  19.621  0.00  0.00    +0.000 A 
ENDBRANCH   4   8
BRANCH   5  15
ATOM     15  C   UNL     1      -0.937  11.764  20.954  0.00  0.00    +0.000 A 
ATOM     16  C   UNL     1      -0.733  11.287  22.257  0.00  0.00    +0.000 A 
ATOM     17  C   UNL     1      -1.657  11.567  23.261  0.00  0.00    +0.000 A 
ATOM     18  C   UNL     1      -2.811  12.278  22.949  0.00  0.00    +0.000 A 
ATOM     19 CL   UNL     1      -3.971  12.591  24.176  0.00  0.00    +0.000 Cl
ATOM     20  C   UNL     1      -3.027  12.745  21.648  0.00  0.00    +0.000 A 
ATOM     21  C   UNL     1      -2.080  12.504  20.648  0.00  0.00    +0.000 A 
ENDBRANCH   5  15
BRANCH   1  22
ATOM     22  C   UNL     1       2.045   9.149  18.736  0.00  0.00    +0.000 C 
BRANCH  22  23
ATOM     23  C   UNL     1       1.953   7.937  17.794  0.00  0.00    +0.000 C 
BRANCH  23  25
ATOM     24  O   UNL     1       4.336   7.630  17.692  0.00  0.00    +0.000 OA
ATOM     25  C   UNL     1       3.223   7.111  17.732  0.00  0.00    +0.000 C 
BRANCH  25  26
ATOM     26  C   UNL     1       3.093   5.616  17.742  0.00  0.00    +0.000 A 
ATOM     27  C   UNL     1       4.253   4.849  17.544  0.00  0.00    +0.000 A 
ATOM     28  C   UNL     1       4.182   3.455  17.547  0.00  0.00    +0.000 A 
ATOM     29  C   UNL     1       2.959   2.829  17.749  0.00  0.00    +0.000 A 
ATOM     30  F   UNL     1       2.891   1.492  17.749  0.00  0.00    +0.000 F 
ATOM     31  C   UNL     1       1.801   3.572  17.956  0.00  0.00    +0.000 A 
ATOM     32  C   UNL     1       1.866   4.968  17.954  0.00  0.00    +0.000 A 
ENDBRANCH  25  26
ENDBRANCH  23  25
ENDBRANCH  22  23
ENDBRANCH   1  22
TORSDOF 6
ENDMDL
MODEL 9
REMARK VINA RESULT:      -7.3      7.739     10.599
REMARK  Name = 
REMARK  6 active torsions:
REMARK  status: ('A' for Active; 'I' for Inactive)
REMARK    1  A    between atoms: C_2  and  C_3
REMARK    2  A    between atoms: C_2  and  C_26
REMARK    3  A    between atoms: C_3  and  C_4
REMARK    4  A    between atoms: C_4  and  C_5
REMARK    5  A    between atoms: N_8  and  C_9
REMARK    6  A    between atoms: N_16  and  C_17
REMARK                            x       y       z     vdW  Elec       q    Type
REMARK                         _______ _______ _______ _____ _____    ______ ____
ROOT
ATOM      1  C   UNL     1      11.117  15.973  19.192  0.00  0.00    +0.000 C 
ATOM      2  C   UNL     1      11.084  14.610  18.514  0.00  0.00    +0.000 C 
ATOM      3  O   UNL     1      11.606  14.355  17.439  0.00  0.00    +0.000 OA
ATOM      4  N   UNL     1      10.364  13.752  19.362  0.00  0.00    +0.000 N 
ATOM      5  N   UNL     1       9.651  14.536  20.276  0.00  0.00    +0.000 N 
ATOM      6  C   UNL     1      10.291  15.763  20.432  0.00  0.00    +0.000 C 
ATOM      7  O   UNL     1      10.207  16.546  21.366  0.00  0.00    +0.000 OA
ENDROOT
BRANCH   4   8
ATOM      8  C   UNL     1       9.851  12.532  18.873  0.00  0.00    +0.000 A 
ATOM      9  C   UNL     1      10.286  11.352  19.485  0.00  0.00    +0.000 A 
ATOM     10  C   UNL     1       9.682  10.134  19.167  0.00  0.00    +0.000 A 
ATOM     11  C   UNL     1       8.668  10.094  18.212  0.00  0.00    +0.000 A 
ATOM     12 CL   UNL     1       7.904   8.596  17.845  0.00  0.00    +0.000 Cl
ATOM     13  C   UNL     1       8.259  11.259  17.564  0.00  0.00    +0.000 A 
ATOM     14  C   UNL     1       8.841  12.484  17.904  0.00  0.00    +0.000 A 
ENDBRANCH   4   8
BRANCH   5  15
ATOM     15  C   UNL     1       8.813  14.048  21.293  0.00  0.00    +0.000 A 
ATOM     16  C   UNL     1       7.452  14.379  21.208  0.00  0.00    +0.000 A 
ATOM     17  C   UNL     1       6.556  13.924  22.173  0.00  0.00    +0.000 A 
ATOM     18  C   UNL     1       7.032  13.184  23.251  0.00  0.00    +0.000 A 
ATOM     19 CL   UNL     1       5.937  12.654  24.464  0.00  0.00    +0.000 Cl
ATOM     20  C   UNL     1       8.390  12.863  23.349  0.00  0.00    +0.000 A 
ATOM     21  C   UNL     1       9.283  13.280  22.359  0.00  0.00    +0.000 A 
ENDBRANCH   5  15
BRANCH   1  22
ATOM     22  C   UNL     1      10.477  17.084  18.349  0.00  0.00    +0.000 C 
BRANCH  22  23
ATOM     23  C   UNL     1       9.114  16.651  17.785  0.00  0.00    +0.000 C 
BRANCH  23  25
ATOM     24  O   UNL     1       8.003  18.429  18.962  0.00  0.00    +0.000 OA
ATOM     25  C   UNL     1       7.931  17.306  18.470  0.00  0.00    +0.000 C 
BRANCH  25  26
ATOM     26  C   UNL     1       6.636  16.549  18.517  0.00  0.00    +0.000 A 
ATOM     27  C   UNL     1       6.568  15.311  17.857  0.00  0.00    +0.000 A 
ATOM     28  C   UNL     1       5.386  14.569  17.873  0.00  0.00    +0.000 A 
ATOM     29  C   UNL     1       4.275  15.061  18.548  0.00  0.00    +0.000 A 
ATOM     30  F   UNL     1       3.141  14.351  18.562  0.00  0.00    +0.000 F 
ATOM     31  C   UNL     1       4.326  16.280  19.215  0.00  0.00    +0.000 A 
ATOM     32  C   UNL     1       5.508  17.027  19.201  0.00  0.00    +0.000 A 
ENDBRANCH  25  26
ENDBRANCH  23  25
ENDBRANCH  22  23
ENDBRANCH   1  22
TORSDOF 6
ENDMDL
