MODEL 1
REMARK VINA RESULT:      -7.5      0.000      0.000
REMARK  Name = 
REMARK  10 active torsions:
REMARK  status: ('A' for Active; 'I' for Inactive)
REMARK    1  A    between atoms: C_1  and  C_2
REMARK    2  A    between atoms: N_4  and  C_5
REMARK    3  A    between atoms: C_5  and  C_6
REMARK    4  A    between atoms: C_5  and  C_7
REMARK    5  A    between atoms: C_10  and  C_11
REMARK    6  A    between atoms: C_11  and  N_12
REMARK    7  A    between atoms: C_17  and  O_18
REMARK    8  A    between atoms: O_18  and  C_19
REMARK    9  A    between atoms: C_19  and  C_20
REMARK   10  A    between atoms: C_20  and  C_21
REMARK                            x       y       z     vdW  Elec       q    Type
REMARK                         _______ _______ _______ _____ _____    ______ ____
ROOT
ATOM      1  N   UNL     1       3.292   3.462  18.446  0.00  0.00    +0.000 NA
ATOM      2  C   UNL     1       4.185   4.007  19.500  0.00  0.00    +0.000 C 
ATOM      3  C   UNL     1       5.653   3.771  19.240  0.00  0.00    +0.000 C 
ATOM      4  C   UNL     1       5.956   4.516  17.985  0.00  0.00    +0.000 A 
ATOM      5  C   UNL     1       6.834   5.596  17.918  0.00  0.00    +0.000 A 
ATOM      6  C   UNL     1       7.122   6.162  16.681  0.00  0.00    +0.000 A 
ATOM      7  C   UNL     1       6.696   5.516  15.522  0.00  0.00    +0.000 A 
ATOM      8  C   UNL     1       5.709   4.528  15.608  0.00  0.00    +0.000 A 
ATOM      9  C   UNL     1       5.211   4.164  16.862  0.00  0.00    +0.000 A 
ATOM     10  C   UNL     1       3.814   3.576  17.049  0.00  0.00    +0.000 C 
ENDROOT
BRANCH   1  11
ATOM     11  C   UNL     1       2.003   4.150  18.665  0.00  0.00    +0.000 C 
BRANCH  11  15
ATOM     12  C   UNL     1       1.517   8.147  20.201  0.00  0.00    +0.000 A 
ATOM     13  C   UNL     1       2.059   7.949  18.912  0.00  0.00    +0.000 A 
ATOM     14  C   UNL     1       2.300   6.656  18.437  0.00  0.00    +0.000 A 
ATOM     15  C   UNL     1       2.006   5.546  19.226  0.00  0.00    +0.000 A 
ATOM     16  C   UNL     1       1.499   5.740  20.519  0.00  0.00    +0.000 A 
ATOM     17  C   UNL     1       1.267   7.024  21.005  0.00  0.00    +0.000 A 
BRANCH  12  18
ATOM     18  C   UNL     1       1.166   9.540  20.682  0.00  0.00    +0.000 C 
ATOM     19  C   UNL     1       0.892   9.554  22.187  0.00  0.00    +0.000 C 
BRANCH  18  23
ATOM     20  C   UNL     1      -1.174  11.383  18.337  0.00  0.00    +0.000 C 
ATOM     21  C   UNL     1       0.135  11.031  18.989  0.00  0.00    +0.000 C 
ATOM     22  O   UNL     1       1.192  11.572  18.685  0.00  0.00    +0.000 OA
ATOM     23  N   UNL     1       0.022  10.041  19.932  0.00  0.00    +0.000 N 
ATOM     24  H   UNL     1      -0.893   9.664  20.136  0.00  0.00    +0.000 HD
ENDBRANCH  18  23
ENDBRANCH  12  18
ENDBRANCH  11  15
ENDBRANCH   1  11
BRANCH   6  25
ATOM     25  O   UNL     1       7.815   7.340  16.706  0.00  0.00    +0.000 OA
BRANCH  25  26
ATOM     26  C   UNL     1       7.999   7.891  18.017  0.00  0.00    +0.000 C 
BRANCH  26  27
ATOM     27  C   UNL     1       8.136   9.402  17.917  0.00  0.00    +0.000 C 
BRANCH  27  28
ATOM     28  C   UNL     1       9.302   9.903  18.738  0.00  0.00    +0.000 C 
ATOM     29  F   UNL     1       9.987  10.839  18.034  0.00  0.00    +0.000 F 
ATOM     30  F   UNL     1       8.827  10.529  19.847  0.00  0.00    +0.000 F 
ENDBRANCH  27  28
ENDBRANCH  26  27
ENDBRANCH  25  26
ENDBRANCH   6  25
TORSDOF 8
ENDMDL
MODEL 2
REMARK VINA RESULT:      -7.4      4.898      9.094
REMARK  Name = 
REMARK  10 active torsions:
REMARK  status: ('A' for Active; 'I' for Inactive)
REMARK    1  A    between atoms: C_1  and  C_2
REMARK    2  A    between atoms: N_4  and  C_5
REMARK    3  A    between atoms: C_5  and  C_6
REMARK    4  A    between atoms: C_5  and  C_7
REMARK    5  A    between atoms: C_10  and  C_11
REMARK    6  A    between atoms: C_11  and  N_12
REMARK    7  A    between atoms: C_17  and  O_18
REMARK    8  A    between atoms: O_18  and  C_19
REMARK    9  A    between atoms: C_19  and  C_20
REMARK   10  A    between atoms: C_20  and  C_21
REMARK                            x       y       z     vdW  Elec       q    Type
REMARK                         _______ _______ _______ _____ _____    ______ ____
ROOT
ATOM      1  N   UNL     1       7.297   6.139  16.797  0.00  0.00    +0.000 NA
ATOM      2  C   UNL     1       7.367   4.712  17.200  0.00  0.00    +0.000 C 
ATOM      3  C   UNL     1       6.613   4.395  18.468  0.00  0.00    +0.000 C 
ATOM      4  C   UNL     1       5.183   4.690  18.160  0.00  0.00    +0.000 A 
ATOM      5  C   UNL     1       4.179   3.726  18.151  0.00  0.00    +0.000 A 
ATOM      6  C   UNL     1       2.861   4.119  17.946  0.00  0.00    +0.000 A 
ATOM      7  C   UNL     1       2.547   5.478  17.962  0.00  0.00    +0.000 A 
ATOM      8  C   UNL     1       3.570   6.422  17.831  0.00  0.00    +0.000 A 
ATOM      9  C   UNL     1       4.896   5.989  17.746  0.00  0.00    +0.000 A 
ATOM     10  C   UNL     1       5.982   6.807  17.050  0.00  0.00    +0.000 C 
ENDROOT
BRANCH   1  11
ATOM     11  C   UNL     1       7.708   6.141  15.378  0.00  0.00    +0.000 C 
BRANCH  11  15
ATOM     12  C   UNL     1       5.851   3.630  12.410  0.00  0.00    +0.000 A 
ATOM     13  C   UNL     1       5.207   3.853  13.646  0.00  0.00    +0.000 A 
ATOM     14  C   UNL     1       5.838   4.596  14.648  0.00  0.00    +0.000 A 
ATOM     15  C   UNL     1       7.108   5.130  14.440  0.00  0.00    +0.000 A 
ATOM     16  C   UNL     1       7.765   4.881  13.227  0.00  0.00    +0.000 A 
ATOM     17  C   UNL     1       7.149   4.132  12.227  0.00  0.00    +0.000 A 
BRANCH  12  18
ATOM     18  C   UNL     1       5.133   2.907  11.288  0.00  0.00    +0.000 C 
ATOM     19  C   UNL     1       3.677   3.364  11.178  0.00  0.00    +0.000 C 
BRANCH  18  23
ATOM     20  C   UNL     1       6.162  -0.740  11.384  0.00  0.00    +0.000 C 
ATOM     21  C   UNL     1       6.279   0.721  11.046  0.00  0.00    +0.000 C 
ATOM     22  O   UNL     1       7.239   1.185  10.441  0.00  0.00    +0.000 OA
ATOM     23  N   UNL     1       5.222   1.468  11.499  0.00  0.00    +0.000 N 
ATOM     24  H   UNL     1       4.460   1.001  11.970  0.00  0.00    +0.000 HD
ENDBRANCH  18  23
ENDBRANCH  12  18
ENDBRANCH  11  15
ENDBRANCH   1  11
BRANCH   6  25
ATOM     25  O   UNL     1       1.959   3.114  17.737  0.00  0.00    +0.000 OA
BRANCH  25  26
ATOM     26  C   UNL     1       0.771   3.209  18.535  0.00  0.00    +0.000 C 
BRANCH  26  27
ATOM     27  C   UNL     1       0.893   2.284  19.737  0.00  0.00    +0.000 C 
BRANCH  27  28
ATOM     28  C   UNL     1       1.485   3.005  20.925  0.00  0.00    +0.000 C 
ATOM     29  F   UNL     1       0.930   2.530  22.069  0.00  0.00    +0.000 F 
ATOM     30  F   UNL     1       2.813   2.725  20.998  0.00  0.00    +0.000 F 
ENDBRANCH  27  28
ENDBRANCH  26  27
ENDBRANCH  25  26
ENDBRANCH   6  25
TORSDOF 8
ENDMDL
MODEL 3
REMARK VINA RESULT:      -7.4      4.765      8.894
REMARK  Name = 
REMARK  10 active torsions:
REMARK  status: ('A' for Active; 'I' for Inactive)
REMARK    1  A    between atoms: C_1  and  C_2
REMARK    2  A    between atoms: N_4  and  C_5
REMARK    3  A    between atoms: C_5  and  C_6
REMARK    4  A    between atoms: C_5  and  C_7
REMARK    5  A    between atoms: C_10  and  C_11
REMARK    6  A    between atoms: C_11  and  N_12
REMARK    7  A    between atoms: C_17  and  O_18
REMARK    8  A    between atoms: O_18  and  C_19
REMARK    9  A    between atoms: C_19  and  C_20
REMARK   10  A    between atoms: C_20  and  C_21
REMARK                            x       y       z     vdW  Elec       q    Type
REMARK                         _______ _______ _______ _____ _____    ______ ____
ROOT
ATOM      1  N   UNL     1       7.215   5.834  17.356  0.00  0.00    +0.000 NA
ATOM      2  C   UNL     1       7.032   5.003  18.572  0.00  0.00    +0.000 C 
ATOM      3  C   UNL     1       6.102   5.609  19.594  0.00  0.00    +0.000 C 
ATOM      4  C   UNL     1       4.774   5.691  18.920  0.00  0.00    +0.000 A 
ATOM      5  C   UNL     1       3.647   4.989  19.339  0.00  0.00    +0.000 A 
ATOM      6  C   UNL     1       2.432   5.208  18.700  0.00  0.00    +0.000 A 
ATOM      7  C   UNL     1       2.319   6.267  17.800  0.00  0.00    +0.000 A 
ATOM      8  C   UNL     1       3.477   6.862  17.290  0.00  0.00    +0.000 A 
ATOM      9  C   UNL     1       4.727   6.426  17.737  0.00  0.00    +0.000 A 
ATOM     10  C   UNL     1       5.991   6.558  16.891  0.00  0.00    +0.000 C 
ENDROOT
BRANCH   1  11
ATOM     11  C   UNL     1       7.780   4.904  16.357  0.00  0.00    +0.000 C 
BRANCH  11  15
ATOM     12  C   UNL     1       5.794   3.716  12.722  0.00  0.00    +0.000 A 
ATOM     13  C   UNL     1       6.932   4.550  12.662  0.00  0.00    +0.000 A 
ATOM     14  C   UNL     1       7.533   5.011  13.837  0.00  0.00    +0.000 A 
ATOM     15  C   UNL     1       7.021   4.650  15.083  0.00  0.00    +0.000 A 
ATOM     16  C   UNL     1       5.872   3.850  15.145  0.00  0.00    +0.000 A 
ATOM     17  C   UNL     1       5.259   3.396  13.980  0.00  0.00    +0.000 A 
BRANCH  12  18
ATOM     18  C   UNL     1       5.197   3.137  11.455  0.00  0.00    +0.000 C 
ATOM     19  C   UNL     1       3.758   3.615  11.252  0.00  0.00    +0.000 C 
BRANCH  18  23
ATOM     20  C   UNL     1       6.263  -0.498  11.318  0.00  0.00    +0.000 C 
ATOM     21  C   UNL     1       6.417   0.993  11.196  0.00  0.00    +0.000 C 
ATOM     22  O   UNL     1       7.473   1.525  10.873  0.00  0.00    +0.000 OA
ATOM     23  N   UNL     1       5.271   1.683  11.500  0.00  0.00    +0.000 N 
ATOM     24  H   UNL     1       4.437   1.164  11.737  0.00  0.00    +0.000 HD
ENDBRANCH  18  23
ENDBRANCH  12  18
ENDBRANCH  11  15
ENDBRANCH   1  11
BRANCH   6  25
ATOM     25  O   UNL     1       1.423   4.341  19.013  0.00  0.00    +0.000 OA
BRANCH  25  26
ATOM     26  C   UNL     1       1.660   2.986  18.608  0.00  0.00    +0.000 C 
BRANCH  26  27
ATOM     27  C   UNL     1       1.562   2.071  19.820  0.00  0.00    +0.000 C 
BRANCH  27  28
ATOM     28  C   UNL     1       1.805   2.831  21.103  0.00  0.00    +0.000 C 
ATOM     29  F   UNL     1       0.873   2.481  22.023  0.00  0.00    +0.000 F 
ATOM     30  F   UNL     1       3.009   2.463  21.615  0.00  0.00    +0.000 F 
ENDBRANCH  27  28
ENDBRANCH  26  27
ENDBRANCH  25  26
ENDBRANCH   6  25
TORSDOF 8
ENDMDL
MODEL 4
REMARK VINA RESULT:      -7.4      3.645      5.140
REMARK  Name = 
REMARK  10 active torsions:
REMARK  status: ('A' for Active; 'I' for Inactive)
REMARK    1  A    between atoms: C_1  and  C_2
REMARK    2  A    between atoms: N_4  and  C_5
REMARK    3  A    between atoms: C_5  and  C_6
REMARK    4  A    between atoms: C_5  and  C_7
REMARK    5  A    between atoms: C_10  and  C_11
REMARK    6  A    between atoms: C_11  and  N_12
REMARK    7  A    between atoms: C_17  and  O_18
REMARK    8  A    between atoms: O_18  and  C_19
REMARK    9  A    between atoms: C_19  and  C_20
REMARK   10  A    between atoms: C_20  and  C_21
REMARK                            x       y       z     vdW  Elec       q    Type
REMARK                         _______ _______ _______ _____ _____    ______ ____
ROOT
ATOM      1  N   UNL     1       1.409   7.310  20.331  0.00  0.00    +0.000 NA
ATOM      2  C   UNL     1       1.762   5.922  20.724  0.00  0.00    +0.000 C 
ATOM      3  C   UNL     1       1.998   4.996  19.557  0.00  0.00    +0.000 C 
ATOM      4  C   UNL     1       3.178   5.558  18.839  0.00  0.00    +0.000 A 
ATOM      5  C   UNL     1       4.396   4.894  18.712  0.00  0.00    +0.000 A 
ATOM      6  C   UNL     1       5.403   5.462  17.942  0.00  0.00    +0.000 A 
ATOM      7  C   UNL     1       5.109   6.572  17.150  0.00  0.00    +0.000 A 
ATOM      8  C   UNL     1       3.942   7.301  17.395  0.00  0.00    +0.000 A 
ATOM      9  C   UNL     1       3.060   6.871  18.390  0.00  0.00    +0.000 A 
ATOM     10  C   UNL     1       2.119   7.827  19.120  0.00  0.00    +0.000 C 
ENDROOT
BRANCH   1  11
ATOM     11  C   UNL     1       1.642   8.109  21.551  0.00  0.00    +0.000 C 
BRANCH  11  15
ATOM     12  C   UNL     1      -1.022  11.461  22.032  0.00  0.00    +0.000 A 
ATOM     13  C   UNL     1      -0.196  11.376  20.890  0.00  0.00    +0.000 A 
ATOM     14  C   UNL     1       0.732  10.338  20.765  0.00  0.00    +0.000 A 
ATOM     15  C   UNL     1       0.853   9.372  21.761  0.00  0.00    +0.000 A 
ATOM     16  C   UNL     1       0.058   9.472  22.912  0.00  0.00    +0.000 A 
ATOM     17  C   UNL     1      -0.861  10.509  23.051  0.00  0.00    +0.000 A 
BRANCH  12  18
ATOM     18  C   UNL     1      -2.095  12.527  22.128  0.00  0.00    +0.000 C 
ATOM     19  C   UNL     1      -1.507  13.924  21.916  0.00  0.00    +0.000 C 
BRANCH  18  23
ATOM     20  C   UNL     1      -4.606  12.360  24.963  0.00  0.00    +0.000 C 
ATOM     21  C   UNL     1      -4.133  12.494  23.541  0.00  0.00    +0.000 C 
ATOM     22  O   UNL     1      -4.903  12.631  22.597  0.00  0.00    +0.000 OA
ATOM     23  N   UNL     1      -2.768  12.427  23.416  0.00  0.00    +0.000 N 
ATOM     24  H   UNL     1      -2.206  12.335  24.250  0.00  0.00    +0.000 HD
ENDBRANCH  18  23
ENDBRANCH  12  18
ENDBRANCH  11  15
ENDBRANCH   1  11
BRANCH   6  25
ATOM     25  O   UNL     1       6.634   4.873  18.030  0.00  0.00    +0.000 OA
BRANCH  25  26
ATOM     26  C   UNL     1       7.244   4.586  16.765  0.00  0.00    +0.000 C 
BRANCH  26  27
ATOM     27  C   UNL     1       6.303   3.730  15.931  0.00  0.00    +0.000 C 
BRANCH  27  28
ATOM     28  C   UNL     1       6.349   4.126  14.473  0.00  0.00    +0.000 C 
ATOM     29  F   UNL     1       5.170   4.698  14.119  0.00  0.00    +0.000 F 
ATOM     30  F   UNL     1       7.304   5.076  14.301  0.00  0.00    +0.000 F 
ENDBRANCH  27  28
ENDBRANCH  26  27
ENDBRANCH  25  26
ENDBRANCH   6  25
TORSDOF 8
ENDMDL
MODEL 5
REMARK VINA RESULT:      -7.4      4.733      8.868
REMARK  Name = 
REMARK  10 active torsions:
REMARK  status: ('A' for Active; 'I' for Inactive)
REMARK    1  A    between atoms: C_1  and  C_2
REMARK    2  A    between atoms: N_4  and  C_5
REMARK    3  A    between atoms: C_5  and  C_6
REMARK    4  A    between atoms: C_5  and  C_7
REMARK    5  A    between atoms: C_10  and  C_11
REMARK    6  A    between atoms: C_11  and  N_12
REMARK    7  A    between atoms: C_17  and  O_18
REMARK    8  A    between atoms: O_18  and  C_19
REMARK    9  A    between atoms: C_19  and  C_20
REMARK   10  A    between atoms: C_20  and  C_21
REMARK                            x       y       z     vdW  Elec       q    Type
REMARK                         _______ _______ _______ _____ _____    ______ ____
ROOT
ATOM      1  N   UNL     1       7.303   5.926  17.020  0.00  0.00    +0.000 NA
ATOM      2  C   UNL     1       7.336   5.237  18.335  0.00  0.00    +0.000 C 
ATOM      3  C   UNL     1       6.495   5.902  19.396  0.00  0.00    +0.000 C 
ATOM      4  C   UNL     1       5.092   5.819  18.897  0.00  0.00    +0.000 A 
ATOM      5  C   UNL     1       4.083   5.103  19.537  0.00  0.00    +0.000 A 
ATOM      6  C   UNL     1       2.785   5.166  19.042  0.00  0.00    +0.000 A 
ATOM      7  C   UNL     1       2.480   6.100  18.053  0.00  0.00    +0.000 A 
ATOM      8  C   UNL     1       3.516   6.701  17.331  0.00  0.00    +0.000 A 
ATOM      9  C   UNL     1       4.842   6.401  17.656  0.00  0.00    +0.000 A 
ATOM     10  C   UNL     1       5.979   6.510  16.642  0.00  0.00    +0.000 C 
ENDROOT
BRANCH   1  11
ATOM     11  C   UNL     1       7.811   4.920  16.065  0.00  0.00    +0.000 C 
BRANCH  11  15
ATOM     12  C   UNL     1       5.756   3.684  12.485  0.00  0.00    +0.000 A 
ATOM     13  C   UNL     1       6.937   4.453  12.389  0.00  0.00    +0.000 A 
ATOM     14  C   UNL     1       7.564   4.931  13.544  0.00  0.00    +0.000 A 
ATOM     15  C   UNL     1       7.037   4.652  14.803  0.00  0.00    +0.000 A 
ATOM     16  C   UNL     1       5.847   3.918  14.900  0.00  0.00    +0.000 A 
ATOM     17  C   UNL     1       5.208   3.448  13.756  0.00  0.00    +0.000 A 
BRANCH  12  18
ATOM     18  C   UNL     1       5.126   3.085  11.243  0.00  0.00    +0.000 C 
ATOM     19  C   UNL     1       3.693   3.584  11.053  0.00  0.00    +0.000 C 
BRANCH  18  23
ATOM     20  C   UNL     1       6.146  -0.566  11.286  0.00  0.00    +0.000 C 
ATOM     21  C   UNL     1       6.334   0.920  11.149  0.00  0.00    +0.000 C 
ATOM     22  O   UNL     1       7.424   1.431  10.920  0.00  0.00    +0.000 OA
ATOM     23  N   UNL     1       5.174   1.631  11.326  0.00  0.00    +0.000 N 
ATOM     24  H   UNL     1       4.313   1.128  11.490  0.00  0.00    +0.000 HD
ENDBRANCH  18  23
ENDBRANCH  12  18
ENDBRANCH  11  15
ENDBRANCH   1  11
BRANCH   6  25
ATOM     25  O   UNL     1       1.893   4.281  19.580  0.00  0.00    +0.000 OA
BRANCH  25  26
ATOM     26  C   UNL     1       1.370   3.327  18.646  0.00  0.00    +0.000 C 
BRANCH  26  27
ATOM     27  C   UNL     1       1.911   1.944  18.979  0.00  0.00    +0.000 C 
BRANCH  27  28
ATOM     28  C   UNL     1       3.416   1.900  18.859  0.00  0.00    +0.000 C 
ATOM     29  F   UNL     1       3.974   1.959  20.094  0.00  0.00    +0.000 F 
ATOM     30  F   UNL     1       3.784   0.705  18.328  0.00  0.00    +0.000 F 
ENDBRANCH  27  28
ENDBRANCH  26  27
ENDBRANCH  25  26
ENDBRANCH   6  25
TORSDOF 8
ENDMDL
MODEL 6
REMARK VINA RESULT:      -7.3      4.278      6.655
REMARK  Name = 
REMARK  10 active torsions:
REMARK  status: ('A' for Active; 'I' for Inactive)
REMARK    1  A    between atoms: C_1  and  C_2
REMARK    2  A    between atoms: N_4  and  C_5
REMARK    3  A    between atoms: C_5  and  C_6
REMARK    4  A    between atoms: C_5  and  C_7
REMARK    5  A    between atoms: C_10  and  C_11
REMARK    6  A    between atoms: C_11  and  N_12
REMARK    7  A    between atoms: C_17  and  O_18
REMARK    8  A    between atoms: O_18  and  C_19
REMARK    9  A    between atoms: C_19  and  C_20
REMARK   10  A    between atoms: C_20  and  C_21
REMARK                            x       y       z     vdW  Elec       q    Type
REMARK                         _______ _______ _______ _____ _____    ______ ____
ROOT
ATOM      1  N   UNL     1       1.664   9.310  18.874  0.00  0.00    +0.000 NA
ATOM      2  C   UNL     1       2.193   8.666  17.646  0.00  0.00    +0.000 C 
ATOM      3  C   UNL     1       3.235   7.607  17.910  0.00  0.00    +0.000 C 
ATOM      4  C   UNL     1       2.531   6.547  18.689  0.00  0.00    +0.000 A 
ATOM      5  C   UNL     1       2.336   5.248  18.227  0.00  0.00    +0.000 A 
ATOM      6  C   UNL     1       1.752   4.307  19.068  0.00  0.00    +0.000 A 
ATOM      7  C   UNL     1       1.565   4.622  20.413  0.00  0.00    +0.000 A 
ATOM      8  C   UNL     1       1.631   5.958  20.822  0.00  0.00    +0.000 A 
ATOM      9  C   UNL     1       1.943   6.948  19.886  0.00  0.00    +0.000 A 
ATOM     10  C   UNL     1       1.496   8.399  20.048  0.00  0.00    +0.000 C 
ENDROOT
BRANCH   1  11
ATOM     11  C   UNL     1       0.413   9.963  18.436  0.00  0.00    +0.000 C 
BRANCH  11  15
ATOM     12  C   UNL     1      -1.107  12.938  21.158  0.00  0.00    +0.000 A 
ATOM     13  C   UNL     1      -1.999  12.210  20.340  0.00  0.00    +0.000 A 
ATOM     14  C   UNL     1      -1.511  11.304  19.394  0.00  0.00    +0.000 A 
ATOM     15  C   UNL     1      -0.140  11.103  19.247  0.00  0.00    +0.000 A 
ATOM     16  C   UNL     1       0.749  11.848  20.034  0.00  0.00    +0.000 A 
ATOM     17  C   UNL     1       0.274  12.762  20.971  0.00  0.00    +0.000 A 
BRANCH  12  18
ATOM     18  C   UNL     1      -1.632  13.849  22.249  0.00  0.00    +0.000 C 
ATOM     19  C   UNL     1      -0.494  14.610  22.931  0.00  0.00    +0.000 C 
BRANCH  18  23
ATOM     20  C   UNL     1      -4.268  12.450  24.588  0.00  0.00    +0.000 C 
ATOM     21  C   UNL     1      -3.671  13.405  23.589  0.00  0.00    +0.000 C 
ATOM     22  O   UNL     1      -4.283  14.373  23.152  0.00  0.00    +0.000 OA
ATOM     23  N   UNL     1      -2.396  13.067  23.212  0.00  0.00    +0.000 N 
ATOM     24  H   UNL     1      -1.958  12.263  23.638  0.00  0.00    +0.000 HD
ENDBRANCH  18  23
ENDBRANCH  12  18
ENDBRANCH  11  15
ENDBRANCH   1  11
BRANCH   6  25
ATOM     25  O   UNL     1       1.397   3.121  18.489  0.00  0.00    +0.000 OA
BRANCH  25  26
ATOM     26  C   UNL     1       1.972   1.964  19.111  0.00  0.00    +0.000 C 
BRANCH  26  27
ATOM     27  C   UNL     1       3.415   1.808  18.653  0.00  0.00    +0.000 C 
BRANCH  27  28
ATOM     28  C   UNL     1       4.383   2.172  19.754  0.00  0.00    +0.000 C 
ATOM     29  F   UNL     1       4.908   3.399  19.512  0.00  0.00    +0.000 F 
ATOM     30  F   UNL     1       3.704   2.269  20.927  0.00  0.00    +0.000 F 
ENDBRANCH  27  28
ENDBRANCH  26  27
ENDBRANCH  25  26
ENDBRANCH   6  25
TORSDOF 8
ENDMDL
MODEL 7
REMARK VINA RESULT:      -7.3      4.921      9.986
REMARK  Name = 
REMARK  10 active torsions:
REMARK  status: ('A' for Active; 'I' for Inactive)
REMARK    1  A    between atoms: C_1  and  C_2
REMARK    2  A    between atoms: N_4  and  C_5
REMARK    3  A    between atoms: C_5  and  C_6
REMARK    4  A    between atoms: C_5  and  C_7
REMARK    5  A    between atoms: C_10  and  C_11
REMARK    6  A    between atoms: C_11  and  N_12
REMARK    7  A    between atoms: C_17  and  O_18
REMARK    8  A    between atoms: O_18  and  C_19
REMARK    9  A    between atoms: C_19  and  C_20
REMARK   10  A    between atoms: C_20  and  C_21
REMARK                            x       y       z     vdW  Elec       q    Type
REMARK                         _______ _______ _______ _____ _____    ______ ____
ROOT
ATOM      1  N   UNL     1       1.271   9.760  19.081  0.00  0.00    +0.000 NA
ATOM      2  C   UNL     1       0.953  10.953  19.905  0.00  0.00    +0.000 C 
ATOM      3  C   UNL     1       0.311  12.079  19.131  0.00  0.00    +0.000 C 
ATOM      4  C   UNL     1      -0.987  11.530  18.642  0.00  0.00    +0.000 A 
ATOM      5  C   UNL     1      -2.231  12.021  19.030  0.00  0.00    +0.000 A 
ATOM      6  C   UNL     1      -3.380  11.503  18.443  0.00  0.00    +0.000 A 
ATOM      7  C   UNL     1      -3.258  10.660  17.339  0.00  0.00    +0.000 A 
ATOM      8  C   UNL     1      -2.021  10.072  17.056  0.00  0.00    +0.000 A 
ATOM      9  C   UNL     1      -0.914  10.387  17.849  0.00  0.00    +0.000 A 
ATOM     10  C   UNL     1       0.269   9.437  18.018  0.00  0.00    +0.000 C 
ENDROOT
BRANCH   1  11
ATOM     11  C   UNL     1       1.475   8.677  20.065  0.00  0.00    +0.000 C 
BRANCH  11  15
ATOM     12  C   UNL     1       3.425   4.972  19.048  0.00  0.00    +0.000 A 
ATOM     13  C   UNL     1       3.497   6.072  18.164  0.00  0.00    +0.000 A 
ATOM     14  C   UNL     1       2.798   7.250  18.444  0.00  0.00    +0.000 A 
ATOM     15  C   UNL     1       2.025   7.358  19.598  0.00  0.00    +0.000 A 
ATOM     16  C   UNL     1       1.924   6.256  20.460  0.00  0.00    +0.000 A 
ATOM     17  C   UNL     1       2.607   5.075  20.184  0.00  0.00    +0.000 A 
BRANCH  12  18
ATOM     18  C   UNL     1       4.255   3.729  18.798  0.00  0.00    +0.000 C 
ATOM     19  C   UNL     1       4.005   2.671  19.874  0.00  0.00    +0.000 C 
BRANCH  18  23
ATOM     20  C   UNL     1       7.780   4.602  17.708  0.00  0.00    +0.000 C 
ATOM     21  C   UNL     1       6.336   4.215  17.538  0.00  0.00    +0.000 C 
ATOM     22  O   UNL     1       5.820   4.048  16.439  0.00  0.00    +0.000 OA
ATOM     23  N   UNL     1       5.665   4.090  18.728  0.00  0.00    +0.000 N 
ATOM     24  H   UNL     1       6.172   4.225  19.591  0.00  0.00    +0.000 HD
ENDBRANCH  18  23
ENDBRANCH  12  18
ENDBRANCH  11  15
ENDBRANCH   1  11
BRANCH   6  25
ATOM     25  O   UNL     1      -4.566  11.871  19.015  0.00  0.00    +0.000 OA
BRANCH  25  26
ATOM     26  C   UNL     1      -5.643  12.042  18.084  0.00  0.00    +0.000 C 
BRANCH  26  27
ATOM     27  C   UNL     1      -6.770  11.080  18.431  0.00  0.00    +0.000 C 
BRANCH  27  28
ATOM     28  C   UNL     1      -7.475  11.496  19.701  0.00  0.00    +0.000 C 
ATOM     29  F   UNL     1      -6.881  10.903  20.767  0.00  0.00    +0.000 F 
ATOM     30  F   UNL     1      -7.326  12.835  19.874  0.00  0.00    +0.000 F 
ENDBRANCH  27  28
ENDBRANCH  26  27
ENDBRANCH  25  26
ENDBRANCH   6  25
TORSDOF 8
ENDMDL
MODEL 8
REMARK VINA RESULT:      -7.3      4.663      8.301
REMARK  Name = 
REMARK  10 active torsions:
REMARK  status: ('A' for Active; 'I' for Inactive)
REMARK    1  A    between atoms: C_1  and  C_2
REMARK    2  A    between atoms: N_4  and  C_5
REMARK    3  A    between atoms: C_5  and  C_6
REMARK    4  A    between atoms: C_5  and  C_7
REMARK    5  A    between atoms: C_10  and  C_11
REMARK    6  A    between atoms: C_11  and  N_12
REMARK    7  A    between atoms: C_17  and  O_18
REMARK    8  A    between atoms: O_18  and  C_19
REMARK    9  A    between atoms: C_19  and  C_20
REMARK   10  A    between atoms: C_20  and  C_21
REMARK                            x       y       z     vdW  Elec       q    Type
REMARK                         _______ _______ _______ _____ _____    ______ ____
ROOT
ATOM      1  N   UNL     1       7.388   5.999  17.241  0.00  0.00    +0.000 NA
ATOM      2  C   UNL     1       7.274   5.056  18.383  0.00  0.00    +0.000 C 
ATOM      3  C   UNL     1       6.383   5.547  19.497  0.00  0.00    +0.000 C 
ATOM      4  C   UNL     1       5.025   5.664  18.892  0.00  0.00    +0.000 A 
ATOM      5  C   UNL     1       3.930   4.904  19.295  0.00  0.00    +0.000 A 
ATOM      6  C   UNL     1       2.683   5.156  18.734  0.00  0.00    +0.000 A 
ATOM      7  C   UNL     1       2.511   6.290  17.941  0.00  0.00    +0.000 A 
ATOM      8  C   UNL     1       3.635   6.953  17.437  0.00  0.00    +0.000 A 
ATOM      9  C   UNL     1       4.911   6.503  17.785  0.00  0.00    +0.000 A 
ATOM     10  C   UNL     1       6.133   6.738  16.900  0.00  0.00    +0.000 C 
ENDROOT
BRANCH   1  11
ATOM     11  C   UNL     1       7.921   5.175  16.136  0.00  0.00    +0.000 C 
BRANCH  11  15
ATOM     12  C   UNL     1       5.480   3.589  12.959  0.00  0.00    +0.000 A 
ATOM     13  C   UNL     1       6.610   4.379  12.652  0.00  0.00    +0.000 A 
ATOM     14  C   UNL     1       7.359   4.969  13.674  0.00  0.00    +0.000 A 
ATOM     15  C   UNL     1       7.005   4.782  15.009  0.00  0.00    +0.000 A 
ATOM     16  C   UNL     1       5.865   4.027  15.316  0.00  0.00    +0.000 A 
ATOM     17  C   UNL     1       5.105   3.446  14.305  0.00  0.00    +0.000 A 
BRANCH  12  18
ATOM     18  C   UNL     1       4.722   2.871  11.861  0.00  0.00    +0.000 C 
ATOM     19  C   UNL     1       5.600   1.822  11.177  0.00  0.00    +0.000 C 
BRANCH  18  23
ATOM     20  C   UNL     1       2.772   4.747   9.206  0.00  0.00    +0.000 C 
ATOM     21  C   UNL     1       3.118   3.600  10.116  0.00  0.00    +0.000 C 
ATOM     22  O   UNL     1       2.464   2.564  10.152  0.00  0.00    +0.000 OA
ATOM     23  N   UNL     1       4.215   3.843  10.902  0.00  0.00    +0.000 N 
ATOM     24  H   UNL     1       4.710   4.717  10.793  0.00  0.00    +0.000 HD
ENDBRANCH  18  23
ENDBRANCH  12  18
ENDBRANCH  11  15
ENDBRANCH   1  11
BRANCH   6  25
ATOM     25  O   UNL     1       1.703   4.244  19.010  0.00  0.00    +0.000 OA
BRANCH  25  26
ATOM     26  C   UNL     1       1.692   3.105  18.139  0.00  0.00    +0.000 C 
BRANCH  26  27
ATOM     27  C   UNL     1       2.128   1.870  18.914  0.00  0.00    +0.000 C 
BRANCH  27  28
ATOM     28  C   UNL     1       3.525   1.444  18.526  0.00  0.00    +0.000 C 
ATOM     29  F   UNL     1       3.946   2.176  17.463  0.00  0.00    +0.000 F 
ATOM     30  F   UNL     1       4.375   1.726  19.547  0.00  0.00    +0.000 F 
ENDBRANCH  27  28
ENDBRANCH  26  27
ENDBRANCH  25  26
ENDBRANCH   6  25
TORSDOF 8
ENDMDL
MODEL 9
REMARK VINA RESULT:      -7.2      4.681     10.108
REMARK  Name = 
REMARK  10 active torsions:
REMARK  status: ('A' for Active; 'I' for Inactive)
REMARK    1  A    between atoms: C_1  and  C_2
REMARK    2  A    between atoms: N_4  and  C_5
REMARK    3  A    between atoms: C_5  and  C_6
REMARK    4  A    between atoms: C_5  and  C_7
REMARK    5  A    between atoms: C_10  and  C_11
REMARK    6  A    between atoms: C_11  and  N_12
REMARK    7  A    between atoms: C_17  and  O_18
REMARK    8  A    between atoms: O_18  and  C_19
REMARK    9  A    between atoms: C_19  and  C_20
REMARK   10  A    between atoms: C_20  and  C_21
REMARK                            x       y       z     vdW  Elec       q    Type
REMARK                         _______ _______ _______ _____ _____    ______ ____
ROOT
ATOM      1  N   UNL     1       0.645  10.693  19.338  0.00  0.00    +0.000 NA
ATOM      2  C   UNL     1       0.680  11.743  20.387  0.00  0.00    +0.000 C 
ATOM      3  C   UNL     1      -0.028  13.019  20.000  0.00  0.00    +0.000 C 
ATOM      4  C   UNL     1      -1.457  12.636  19.815  0.00  0.00    +0.000 A 
ATOM      5  C   UNL     1      -2.498  13.122  20.602  0.00  0.00    +0.000 A 
ATOM      6  C   UNL     1      -3.808  12.778  20.287  0.00  0.00    +0.000 A 
ATOM      7  C   UNL     1      -4.069  12.132  19.080  0.00  0.00    +0.000 A 
ATOM      8  C   UNL     1      -3.017  11.533  18.379  0.00  0.00    +0.000 A 
ATOM      9  C   UNL     1      -1.713  11.644  18.871  0.00  0.00    +0.000 A 
ATOM     10  C   UNL     1      -0.630  10.614  18.560  0.00  0.00    +0.000 C 
ENDROOT
BRANCH   1  11
ATOM     11  C   UNL     1       0.992   9.448  20.053  0.00  0.00    +0.000 C 
BRANCH  11  15
ATOM     12  C   UNL     1       3.500   6.464  18.216  0.00  0.00    +0.000 A 
ATOM     13  C   UNL     1       3.170   7.641  17.507  0.00  0.00    +0.000 A 
ATOM     14  C   UNL     1       2.290   8.575  18.060  0.00  0.00    +0.000 A 
ATOM     15  C   UNL     1       1.728   8.362  19.318  0.00  0.00    +0.000 A 
ATOM     16  C   UNL     1       2.027   7.179  20.009  0.00  0.00    +0.000 A 
ATOM     17  C   UNL     1       2.893   6.237  19.461  0.00  0.00    +0.000 A 
BRANCH  12  18
ATOM     18  C   UNL     1       4.526   5.496  17.663  0.00  0.00    +0.000 C 
ATOM     19  C   UNL     1       5.049   5.960  16.303  0.00  0.00    +0.000 C 
BRANCH  18  23
ATOM     20  C   UNL     1       3.525   1.879  18.198  0.00  0.00    +0.000 C 
ATOM     21  C   UNL     1       4.249   3.169  18.474  0.00  0.00    +0.000 C 
ATOM     22  O   UNL     1       5.018   3.307  19.419  0.00  0.00    +0.000 OA
ATOM     23  N   UNL     1       3.944   4.163  17.580  0.00  0.00    +0.000 N 
ATOM     24  H   UNL     1       3.315   3.957  16.817  0.00  0.00    +0.000 HD
ENDBRANCH  18  23
ENDBRANCH  12  18
ENDBRANCH  11  15
ENDBRANCH   1  11
BRANCH   6  25
ATOM     25  O   UNL     1      -4.756  13.108  21.215  0.00  0.00    +0.000 OA
BRANCH  25  26
ATOM     26  C   UNL     1      -4.235  13.723  22.401  0.00  0.00    +0.000 C 
BRANCH  26  27
ATOM     27  C   UNL     1      -5.088  13.323  23.595  0.00  0.00    +0.000 C 
BRANCH  27  28
ATOM     28  C   UNL     1      -4.437  12.214  24.388  0.00  0.00    +0.000 C 
ATOM     29  F   UNL     1      -3.265  11.863  23.801  0.00  0.00    +0.000 F 
ATOM     30  F   UNL     1      -4.124  12.678  25.625  0.00  0.00    +0.000 F 
ENDBRANCH  27  28
ENDBRANCH  26  27
ENDBRANCH  25  26
ENDBRANCH   6  25
TORSDOF 8
ENDMDL
