MODEL 1
REMARK VINA RESULT:      -8.7      0.000      0.000
REMARK  Name = 
REMARK  7 active torsions:
REMARK  status: ('A' for Active; 'I' for Inactive)
REMARK    1  A    between atoms: C_2  and  C_3
REMARK    2  A    between atoms: C_6  and  C_7
REMARK    3  A    between atoms: N_9  and  C_10
REMARK    4  A    between atoms: C_13  and  C_14
REMARK    5  A    between atoms: C_14  and  C_15
REMARK    6  A    between atoms: C_15  and  N_16
REMARK    7  A    between atoms: C_19  and  C_20
REMARK                            x       y       z     vdW  Elec       q    Type
REMARK                         _______ _______ _______ _____ _____    ______ ____
ROOT
ATOM      1  C   UNL     1       1.240  10.157  19.964  0.00  0.00    +0.000 C 
ATOM      2  C   UNL     1       0.293   9.467  20.955  0.00  0.00    +0.000 C 
ATOM      3  C   UNL     1       0.828   8.081  21.356  0.00  0.00    +0.000 C 
ATOM      4  C   UNL     1       1.274   7.199  20.164  0.00  0.00    +0.000 C 
ATOM      5  C   UNL     1       2.140   7.990  19.172  0.00  0.00    +0.000 C 
ATOM      6  C   UNL     1       1.403   9.252  18.737  0.00  0.00    +0.000 C 
ENDROOT
BRANCH   1   9
ATOM      7  C   UNL     1       1.258  12.631  20.388  0.00  0.00    +0.000 C 
ATOM      8  O   UNL     1       2.038  12.545  21.331  0.00  0.00    +0.000 OA
ATOM      9  N   UNL     1       0.908  11.540  19.623  0.00  0.00    +0.000 N 
ATOM     10  H   UNL     1       0.218  11.653  18.897  0.00  0.00    +0.000 HD
BRANCH   7  14
ATOM     11  C   UNL     1      -1.003  16.255  19.678  0.00  0.00    +0.000 A 
ATOM     12  C   UNL     1      -0.817  15.757  20.966  0.00  0.00    +0.000 A 
ATOM     13  C   UNL     1      -0.031  14.613  21.166  0.00  0.00    +0.000 A 
ATOM     14  C   UNL     1       0.588  13.951  20.092  0.00  0.00    +0.000 A 
ATOM     15  C   UNL     1       0.459  14.513  18.812  0.00  0.00    +0.000 A 
ATOM     16  C   UNL     1      -0.347  15.647  18.607  0.00  0.00    +0.000 A 
BRANCH  11  18
ATOM     17  N   UNL     1      -2.619  18.251  19.300  0.00  0.00    +0.000 NA
ATOM     18  C   UNL     1      -1.892  17.364  19.442  0.00  0.00    +0.000 C 
ENDBRANCH  11  18
ENDBRANCH   7  14
ENDBRANCH   1   9
BRANCH   4  19
ATOM     19  C   UNL     1       2.053   5.955  20.626  0.00  0.00    +0.000 C 
BRANCH  19  20
ATOM     20  C   UNL     1       1.227   4.673  20.495  0.00  0.00    +0.000 C 
BRANCH  20  21
ATOM     21  N   UNL     1       1.744   3.743  19.474  0.00  0.00    +0.000 NA
ATOM     22  C   UNL     1       1.930   4.428  18.184  0.00  0.00    +0.000 C 
ATOM     23  C   UNL     1       2.703   3.618  17.150  0.00  0.00    +0.000 C 
ATOM     24  C   UNL     1       4.014   3.043  17.689  0.00  0.00    +0.000 C 
ATOM     25  C   UNL     1       3.730   2.276  18.982  0.00  0.00    +0.000 C 
ATOM     26  C   UNL     1       2.958   3.099  20.007  0.00  0.00    +0.000 C 
BRANCH  24  27
ATOM     27  C   UNL     1       5.149   4.057  17.787  0.00  0.00    +0.000 A 
ATOM     28  C   UNL     1       5.549   4.664  18.995  0.00  0.00    +0.000 A 
ATOM     29  C   UNL     1       6.561   5.639  19.053  0.00  0.00    +0.000 A 
ATOM     30  C   UNL     1       7.223   6.031  17.898  0.00  0.00    +0.000 A 
ATOM     31  C   UNL     1       6.859   5.417  16.721  0.00  0.00    +0.000 A 
ATOM     32  C   UNL     1       5.852   4.454  16.654  0.00  0.00    +0.000 A 
ATOM     33  C   UNL     1       5.678   4.066  15.234  0.00  0.00    +0.000 C 
ATOM     34  C   UNL     1       6.976   4.635  14.661  0.00  0.00    +0.000 C 
ATOM     35  O   UNL     1       7.433   5.707  15.510  0.00  0.00    +0.000 OA
ENDBRANCH  24  27
ENDBRANCH  20  21
ENDBRANCH  19  20
ENDBRANCH   4  19
TORSDOF 7
ENDMDL
MODEL 2
REMARK VINA RESULT:      -8.7      1.374      1.603
REMARK  Name = 
REMARK  7 active torsions:
REMARK  status: ('A' for Active; 'I' for Inactive)
REMARK    1  A    between atoms: C_2  and  C_3
REMARK    2  A    between atoms: C_6  and  C_7
REMARK    3  A    between atoms: N_9  and  C_10
REMARK    4  A    between atoms: C_13  and  C_14
REMARK    5  A    between atoms: C_14  and  C_15
REMARK    6  A    between atoms: C_15  and  N_16
REMARK    7  A    between atoms: C_19  and  C_20
REMARK                            x       y       z     vdW  Elec       q    Type
REMARK                         _______ _______ _______ _____ _____    ______ ____
ROOT
ATOM      1  C   UNL     1       1.357   9.694  20.471  0.00  0.00    +0.000 C 
ATOM      2  C   UNL     1       0.234   8.974  21.228  0.00  0.00    +0.000 C 
ATOM      3  C   UNL     1       0.627   7.521  21.548  0.00  0.00    +0.000 C 
ATOM      4  C   UNL     1       1.205   6.735  20.345  0.00  0.00    +0.000 C 
ATOM      5  C   UNL     1       2.254   7.562  19.586  0.00  0.00    +0.000 C 
ATOM      6  C   UNL     1       1.661   8.909  19.189  0.00  0.00    +0.000 C 
ENDROOT
BRANCH   1   9
ATOM      7  C   UNL     1       0.435  11.644  19.187  0.00  0.00    +0.000 C 
ATOM      8  O   UNL     1      -0.252  10.940  18.454  0.00  0.00    +0.000 OA
ATOM      9  N   UNL     1       1.156  11.124  20.239  0.00  0.00    +0.000 N 
ATOM     10  H   UNL     1       1.752  11.736  20.774  0.00  0.00    +0.000 HD
BRANCH   7  14
ATOM     11  C   UNL     1       1.073  15.893  18.656  0.00  0.00    +0.000 A 
ATOM     12  C   UNL     1       2.120  14.982  18.533  0.00  0.00    +0.000 A 
ATOM     13  C   UNL     1       1.868  13.608  18.654  0.00  0.00    +0.000 A 
ATOM     14  C   UNL     1       0.572  13.118  18.891  0.00  0.00    +0.000 A 
ATOM     15  C   UNL     1      -0.483  14.043  18.929  0.00  0.00    +0.000 A 
ATOM     16  C   UNL     1      -0.228  15.423  18.831  0.00  0.00    +0.000 A 
BRANCH  11  18
ATOM     17  N   UNL     1       1.503  18.454  18.665  0.00  0.00    +0.000 NA
ATOM     18  C   UNL     1       1.330  17.312  18.640  0.00  0.00    +0.000 C 
ENDBRANCH  11  18
ENDBRANCH   7  14
ENDBRANCH   1   9
BRANCH   4  19
ATOM     19  C   UNL     1       1.837   5.401  20.777  0.00  0.00    +0.000 C 
BRANCH  19  20
ATOM     20  C   UNL     1       0.970   4.198  20.393  0.00  0.00    +0.000 C 
BRANCH  20  21
ATOM     21  N   UNL     1       1.544   3.385  19.305  0.00  0.00    +0.000 NA
ATOM     22  C   UNL     1       1.753   4.196  18.095  0.00  0.00    +0.000 C 
ATOM     23  C   UNL     1       2.580   3.509  17.015  0.00  0.00    +0.000 C 
ATOM     24  C   UNL     1       3.888   2.915  17.540  0.00  0.00    +0.000 C 
ATOM     25  C   UNL     1       3.583   2.019  18.743  0.00  0.00    +0.000 C 
ATOM     26  C   UNL     1       2.757   2.721  19.815  0.00  0.00    +0.000 C 
BRANCH  24  27
ATOM     27  C   UNL     1       4.992   3.940  17.775  0.00  0.00    +0.000 A 
ATOM     28  C   UNL     1       5.300   4.478  19.041  0.00  0.00    +0.000 A 
ATOM     29  C   UNL     1       6.285   5.464  19.226  0.00  0.00    +0.000 A 
ATOM     30  C   UNL     1       7.011   5.939  18.143  0.00  0.00    +0.000 A 
ATOM     31  C   UNL     1       6.738   5.394  16.909  0.00  0.00    +0.000 A 
ATOM     32  C   UNL     1       5.758   4.419  16.717  0.00  0.00    +0.000 A 
ATOM     33  C   UNL     1       5.684   4.118  15.267  0.00  0.00    +0.000 C 
ATOM     34  C   UNL     1       7.004   4.744  14.817  0.00  0.00    +0.000 C 
ATOM     35  O   UNL     1       7.382   5.769  15.759  0.00  0.00    +0.000 OA
ENDBRANCH  24  27
ENDBRANCH  20  21
ENDBRANCH  19  20
ENDBRANCH   4  19
TORSDOF 7
ENDMDL
MODEL 3
REMARK VINA RESULT:      -8.4      0.790      1.135
REMARK  Name = 
REMARK  7 active torsions:
REMARK  status: ('A' for Active; 'I' for Inactive)
REMARK    1  A    between atoms: C_2  and  C_3
REMARK    2  A    between atoms: C_6  and  C_7
REMARK    3  A    between atoms: N_9  and  C_10
REMARK    4  A    between atoms: C_13  and  C_14
REMARK    5  A    between atoms: C_14  and  C_15
REMARK    6  A    between atoms: C_15  and  N_16
REMARK    7  A    between atoms: C_19  and  C_20
REMARK                            x       y       z     vdW  Elec       q    Type
REMARK                         _______ _______ _______ _____ _____    ______ ____
ROOT
ATOM      1  C   UNL     1       1.393   9.612  20.318  0.00  0.00    +0.000 C 
ATOM      2  C   UNL     1       0.311   8.917  21.154  0.00  0.00    +0.000 C 
ATOM      3  C   UNL     1       0.738   7.486  21.529  0.00  0.00    +0.000 C 
ATOM      4  C   UNL     1       1.280   6.649  20.345  0.00  0.00    +0.000 C 
ATOM      5  C   UNL     1       2.286   7.450  19.505  0.00  0.00    +0.000 C 
ATOM      6  C   UNL     1       1.658   8.768  19.066  0.00  0.00    +0.000 C 
ENDROOT
BRANCH   1   9
ATOM      7  C   UNL     1       0.589  11.916  20.906  0.00  0.00    +0.000 C 
ATOM      8  O   UNL     1       0.390  11.633  22.084  0.00  0.00    +0.000 OA
ATOM      9  N   UNL     1       1.162  11.026  20.025  0.00  0.00    +0.000 N 
ATOM     10  H   UNL     1       1.248  11.286  19.055  0.00  0.00    +0.000 HD
BRANCH   7  14
ATOM     11  C   UNL     1      -0.411  15.744  19.148  0.00  0.00    +0.000 A 
ATOM     12  C   UNL     1      -0.305  14.594  18.369  0.00  0.00    +0.000 A 
ATOM     13  C   UNL     1      -0.037  13.360  18.978  0.00  0.00    +0.000 A 
ATOM     14  C   UNL     1       0.123  13.248  20.370  0.00  0.00    +0.000 A 
ATOM     15  C   UNL     1      -0.068  14.400  21.148  0.00  0.00    +0.000 A 
ATOM     16  C   UNL     1      -0.315  15.643  20.536  0.00  0.00    +0.000 A 
BRANCH  11  18
ATOM     17  N   UNL     1      -0.738  18.048  17.996  0.00  0.00    +0.000 NA
ATOM     18  C   UNL     1      -0.580  17.036  18.530  0.00  0.00    +0.000 C 
ENDBRANCH  11  18
ENDBRANCH   7  14
ENDBRANCH   1   9
BRANCH   4  19
ATOM     19  C   UNL     1       1.948   5.346  20.817  0.00  0.00    +0.000 C 
BRANCH  19  20
ATOM     20  C   UNL     1       1.110   4.110  20.477  0.00  0.00    +0.000 C 
BRANCH  20  21
ATOM     21  N   UNL     1       1.677   3.300  19.383  0.00  0.00    +0.000 NA
ATOM     22  C   UNL     1       1.834   4.104  18.160  0.00  0.00    +0.000 C 
ATOM     23  C   UNL     1       2.650   3.426  17.065  0.00  0.00    +0.000 C 
ATOM     24  C   UNL     1       3.986   2.870  17.562  0.00  0.00    +0.000 C 
ATOM     25  C   UNL     1       3.734   1.980  18.781  0.00  0.00    +0.000 C 
ATOM     26  C   UNL     1       2.919   2.672  19.868  0.00  0.00    +0.000 C 
BRANCH  24  27
ATOM     27  C   UNL     1       5.069   3.926  17.759  0.00  0.00    +0.000 A 
ATOM     28  C   UNL     1       5.386   4.495  19.009  0.00  0.00    +0.000 A 
ATOM     29  C   UNL     1       6.350   5.507  19.158  0.00  0.00    +0.000 A 
ATOM     30  C   UNL     1       7.046   5.979  18.054  0.00  0.00    +0.000 A 
ATOM     31  C   UNL     1       6.764   5.404  16.835  0.00  0.00    +0.000 A 
ATOM     32  C   UNL     1       5.805   4.403  16.678  0.00  0.00    +0.000 A 
ATOM     33  C   UNL     1       5.714   4.073  15.236  0.00  0.00    +0.000 C 
ATOM     34  C   UNL     1       7.010   4.721  14.751  0.00  0.00    +0.000 C 
ATOM     35  O   UNL     1       7.380   5.772  15.667  0.00  0.00    +0.000 OA
ENDBRANCH  24  27
ENDBRANCH  20  21
ENDBRANCH  19  20
ENDBRANCH   4  19
TORSDOF 7
ENDMDL
MODEL 4
REMARK VINA RESULT:      -8.3      2.423      2.906
REMARK  Name = 
REMARK  7 active torsions:
REMARK  status: ('A' for Active; 'I' for Inactive)
REMARK    1  A    between atoms: C_2  and  C_3
REMARK    2  A    between atoms: C_6  and  C_7
REMARK    3  A    between atoms: N_9  and  C_10
REMARK    4  A    between atoms: C_13  and  C_14
REMARK    5  A    between atoms: C_14  and  C_15
REMARK    6  A    between atoms: C_15  and  N_16
REMARK    7  A    between atoms: C_19  and  C_20
REMARK                            x       y       z     vdW  Elec       q    Type
REMARK                         _______ _______ _______ _____ _____    ______ ____
ROOT
ATOM      1  C   UNL     1      -0.497  10.396  21.393  0.00  0.00    +0.000 C 
ATOM      2  C   UNL     1       0.614  10.891  20.459  0.00  0.00    +0.000 C 
ATOM      3  C   UNL     1       1.266   9.718  19.706  0.00  0.00    +0.000 C 
ATOM      4  C   UNL     1       1.662   8.522  20.607  0.00  0.00    +0.000 C 
ATOM      5  C   UNL     1       0.530   8.150  21.576  0.00  0.00    +0.000 C 
ATOM      6  C   UNL     1       0.106   9.380  22.371  0.00  0.00    +0.000 C 
ENDROOT
BRANCH   1   9
ATOM      7  C   UNL     1      -2.110  12.319  21.392  0.00  0.00    +0.000 C 
ATOM      8  O   UNL     1      -2.391  12.187  20.204  0.00  0.00    +0.000 OA
ATOM      9  N   UNL     1      -1.286  11.435  22.053  0.00  0.00    +0.000 N 
ATOM     10  H   UNL     1      -1.039  11.622  23.013  0.00  0.00    +0.000 HD
BRANCH   7  14
ATOM     11  C   UNL     1      -3.800  15.535  23.746  0.00  0.00    +0.000 A 
ATOM     12  C   UNL     1      -3.116  14.481  24.345  0.00  0.00    +0.000 A 
ATOM     13  C   UNL     1      -2.531  13.485  23.550  0.00  0.00    +0.000 A 
ATOM     14  C   UNL     1      -2.611  13.527  22.147  0.00  0.00    +0.000 A 
ATOM     15  C   UNL     1      -3.232  14.638  21.557  0.00  0.00    +0.000 A 
ATOM     16  C   UNL     1      -3.838  15.625  22.355  0.00  0.00    +0.000 A 
BRANCH  11  18
ATOM     17  N   UNL     1      -5.074  17.252  25.222  0.00  0.00    +0.000 NA
ATOM     18  C   UNL     1      -4.498  16.509  24.549  0.00  0.00    +0.000 C 
ENDBRANCH  11  18
ENDBRANCH   7  14
ENDBRANCH   1   9
BRANCH   4  19
ATOM     19  C   UNL     1       2.042   7.280  19.783  0.00  0.00    +0.000 C 
BRANCH  19  20
ATOM     20  C   UNL     1       1.528   5.984  20.415  0.00  0.00    +0.000 C 
BRANCH  20  21
ATOM     21  N   UNL     1       1.951   4.770  19.694  0.00  0.00    +0.000 NA
ATOM     22  C   UNL     1       2.182   5.058  18.269  0.00  0.00    +0.000 C 
ATOM     23  C   UNL     1       2.870   3.933  17.505  0.00  0.00    +0.000 C 
ATOM     24  C   UNL     1       4.131   3.414  18.198  0.00  0.00    +0.000 C 
ATOM     25  C   UNL     1       3.795   3.057  19.648  0.00  0.00    +0.000 C 
ATOM     26  C   UNL     1       3.109   4.193  20.399  0.00  0.00    +0.000 C 
BRANCH  24  27
ATOM     27  C   UNL     1       5.352   4.314  18.032  0.00  0.00    +0.000 A 
ATOM     28  C   UNL     1       5.986   4.972  19.105  0.00  0.00    +0.000 A 
ATOM     29  C   UNL     1       7.076   5.842  18.921  0.00  0.00    +0.000 A 
ATOM     30  C   UNL     1       7.581   6.072  17.649  0.00  0.00    +0.000 A 
ATOM     31  C   UNL     1       6.986   5.406  16.602  0.00  0.00    +0.000 A 
ATOM     32  C   UNL     1       5.901   4.546  16.775  0.00  0.00    +0.000 A 
ATOM     33  C   UNL     1       5.474   4.066  15.439  0.00  0.00    +0.000 C 
ATOM     34  C   UNL     1       6.711   4.454  14.629  0.00  0.00    +0.000 C 
ATOM     35  O   UNL     1       7.387   5.540  15.298  0.00  0.00    +0.000 OA
ENDBRANCH  24  27
ENDBRANCH  20  21
ENDBRANCH  19  20
ENDBRANCH   4  19
TORSDOF 7
ENDMDL
MODEL 5
REMARK VINA RESULT:      -8.0      4.213      7.657
REMARK  Name = 
REMARK  7 active torsions:
REMARK  status: ('A' for Active; 'I' for Inactive)
REMARK    1  A    between atoms: C_2  and  C_3
REMARK    2  A    between atoms: C_6  and  C_7
REMARK    3  A    between atoms: N_9  and  C_10
REMARK    4  A    between atoms: C_13  and  C_14
REMARK    5  A    between atoms: C_14  and  C_15
REMARK    6  A    between atoms: C_15  and  N_16
REMARK    7  A    between atoms: C_19  and  C_20
REMARK                            x       y       z     vdW  Elec       q    Type
REMARK                         _______ _______ _______ _____ _____    ______ ____
ROOT
ATOM      1  C   UNL     1       6.409   6.889  17.294  0.00  0.00    +0.000 C 
ATOM      2  C   UNL     1       5.615   6.612  16.011  0.00  0.00    +0.000 C 
ATOM      3  C   UNL     1       4.685   5.399  16.188  0.00  0.00    +0.000 C 
ATOM      4  C   UNL     1       5.367   4.155  16.810  0.00  0.00    +0.000 C 
ATOM      5  C   UNL     1       6.217   4.533  18.032  0.00  0.00    +0.000 C 
ATOM      6  C   UNL     1       7.206   5.630  17.654  0.00  0.00    +0.000 C 
ENDROOT
BRANCH   1   9
ATOM      7  C   UNL     1       8.183   8.396  18.233  0.00  0.00    +0.000 C 
ATOM      8  O   UNL     1       8.567   7.568  19.052  0.00  0.00    +0.000 OA
ATOM      9  N   UNL     1       7.220   8.106  17.292  0.00  0.00    +0.000 N 
ATOM     10  H   UNL     1       6.897   8.839  16.680  0.00  0.00    +0.000 HD
BRANCH   7  14
ATOM     11  C   UNL     1       9.558  12.465  18.784  0.00  0.00    +0.000 A 
ATOM     12  C   UNL     1      10.057  11.420  19.559  0.00  0.00    +0.000 A 
ATOM     13  C   UNL     1       9.633  10.105  19.315  0.00  0.00    +0.000 A 
ATOM     14  C   UNL     1       8.713   9.809  18.295  0.00  0.00    +0.000 A 
ATOM     15  C   UNL     1       8.284  10.861  17.470  0.00  0.00    +0.000 A 
ATOM     16  C   UNL     1       8.692  12.182  17.728  0.00  0.00    +0.000 A 
BRANCH  11  18
ATOM     17  N   UNL     1      10.130  14.941  19.319  0.00  0.00    +0.000 NA
ATOM     18  C   UNL     1       9.901  13.832  19.088  0.00  0.00    +0.000 C 
ENDBRANCH  11  18
ENDBRANCH   7  14
ENDBRANCH   1   9
BRANCH   4  19
ATOM     19  C   UNL     1       4.345   3.082  17.223  0.00  0.00    +0.000 C 
BRANCH  19  20
ATOM     20  C   UNL     1       4.517   2.650  18.681  0.00  0.00    +0.000 C 
BRANCH  20  21
ATOM     21  N   UNL     1       3.359   2.979  19.532  0.00  0.00    +0.000 NA
ATOM     22  C   UNL     1       3.711   4.004  20.528  0.00  0.00    +0.000 C 
ATOM     23  C   UNL     1       2.517   4.593  21.271  0.00  0.00    +0.000 C 
ATOM     24  C   UNL     1       1.395   5.057  20.341  0.00  0.00    +0.000 C 
ATOM     25  C   UNL     1       1.025   3.913  19.393  0.00  0.00    +0.000 C 
ATOM     26  C   UNL     1       2.229   3.337  18.656  0.00  0.00    +0.000 C 
BRANCH  24  27
ATOM     27  C   UNL     1       1.663   6.391  19.653  0.00  0.00    +0.000 A 
ATOM     28  C   UNL     1       2.310   6.510  18.406  0.00  0.00    +0.000 A 
ATOM     29  C   UNL     1       2.597   7.754  17.817  0.00  0.00    +0.000 A 
ATOM     30  C   UNL     1       2.230   8.931  18.454  0.00  0.00    +0.000 A 
ATOM     31  C   UNL     1       1.568   8.820  19.656  0.00  0.00    +0.000 A 
ATOM     32  C   UNL     1       1.285   7.591  20.250  0.00  0.00    +0.000 A 
ATOM     33  C   UNL     1       0.637   7.847  21.558  0.00  0.00    +0.000 C 
ATOM     34  C   UNL     1       0.262   9.316  21.364  0.00  0.00    +0.000 C 
ATOM     35  O   UNL     1       1.148   9.901  20.387  0.00  0.00    +0.000 OA
ENDBRANCH  24  27
ENDBRANCH  20  21
ENDBRANCH  19  20
ENDBRANCH   4  19
TORSDOF 7
ENDMDL
MODEL 6
REMARK VINA RESULT:      -7.9      1.851      1.931
REMARK  Name = 
REMARK  7 active torsions:
REMARK  status: ('A' for Active; 'I' for Inactive)
REMARK    1  A    between atoms: C_2  and  C_3
REMARK    2  A    between atoms: C_6  and  C_7
REMARK    3  A    between atoms: N_9  and  C_10
REMARK    4  A    between atoms: C_13  and  C_14
REMARK    5  A    between atoms: C_14  and  C_15
REMARK    6  A    between atoms: C_15  and  N_16
REMARK    7  A    between atoms: C_19  and  C_20
REMARK                            x       y       z     vdW  Elec       q    Type
REMARK                         _______ _______ _______ _____ _____    ______ ____
ROOT
ATOM      1  C   UNL     1       0.550  10.154  21.180  0.00  0.00    +0.000 C 
ATOM      2  C   UNL     1      -0.277   9.034  21.823  0.00  0.00    +0.000 C 
ATOM      3  C   UNL     1       0.476   7.692  21.773  0.00  0.00    +0.000 C 
ATOM      4  C   UNL     1       1.071   7.345  20.386  0.00  0.00    +0.000 C 
ATOM      5  C   UNL     1       1.802   8.548  19.771  0.00  0.00    +0.000 C 
ATOM      6  C   UNL     1       0.871   9.754  19.735  0.00  0.00    +0.000 C 
ENDROOT
BRANCH   1   9
ATOM      7  C   UNL     1      -0.751  11.941  22.369  0.00  0.00    +0.000 C 
ATOM      8  O   UNL     1      -0.864  11.286  23.400  0.00  0.00    +0.000 OA
ATOM      9  N   UNL     1      -0.002  11.503  21.299  0.00  0.00    +0.000 N 
ATOM     10  H   UNL     1       0.010  12.051  20.453  0.00  0.00    +0.000 HD
BRANCH   7  14
ATOM     11  C   UNL     1      -3.138  15.552  22.275  0.00  0.00    +0.000 A 
ATOM     12  C   UNL     1      -2.236  15.306  23.308  0.00  0.00    +0.000 A 
ATOM     13  C   UNL     1      -1.436  14.155  23.277  0.00  0.00    +0.000 A 
ATOM     14  C   UNL     1      -1.516  13.235  22.218  0.00  0.00    +0.000 A 
ATOM     15  C   UNL     1      -2.369  13.539  21.146  0.00  0.00    +0.000 A 
ATOM     16  C   UNL     1      -3.188  14.682  21.186  0.00  0.00    +0.000 A 
BRANCH  11  18
ATOM     17  N   UNL     1      -4.804  17.541  22.397  0.00  0.00    +0.000 NA
ATOM     18  C   UNL     1      -4.042  16.674  22.342  0.00  0.00    +0.000 C 
ENDBRANCH  11  18
ENDBRANCH   7  14
ENDBRANCH   1   9
BRANCH   4  19
ATOM     19  C   UNL     1       2.041   6.153  20.456  0.00  0.00    +0.000 C 
BRANCH  19  20
ATOM     20  C   UNL     1       1.307   4.809  20.467  0.00  0.00    +0.000 C 
BRANCH  20  21
ATOM     21  N   UNL     1       1.788   3.870  19.437  0.00  0.00    +0.000 NA
ATOM     22  C   UNL     1       1.988   4.557  18.151  0.00  0.00    +0.000 C 
ATOM     23  C   UNL     1       2.728   3.729  17.107  0.00  0.00    +0.000 C 
ATOM     24  C   UNL     1       4.022   3.107  17.634  0.00  0.00    +0.000 C 
ATOM     25  C   UNL     1       3.721   2.341  18.924  0.00  0.00    +0.000 C 
ATOM     26  C   UNL     1       2.983   3.183  19.959  0.00  0.00    +0.000 C 
BRANCH  24  27
ATOM     27  C   UNL     1       5.191   4.082  17.731  0.00  0.00    +0.000 A 
ATOM     28  C   UNL     1       5.638   4.643  18.945  0.00  0.00    +0.000 A 
ATOM     29  C   UNL     1       6.682   5.584  19.005  0.00  0.00    +0.000 A 
ATOM     30  C   UNL     1       7.327   5.988  17.845  0.00  0.00    +0.000 A 
ATOM     31  C   UNL     1       6.917   5.418  16.661  0.00  0.00    +0.000 A 
ATOM     32  C   UNL     1       5.879   4.489  16.592  0.00  0.00    +0.000 A 
ATOM     33  C   UNL     1       5.659   4.147  15.167  0.00  0.00    +0.000 C 
ATOM     34  C   UNL     1       6.960   4.691  14.578  0.00  0.00    +0.000 C 
ATOM     35  O   UNL     1       7.470   5.725  15.445  0.00  0.00    +0.000 OA
ENDBRANCH  24  27
ENDBRANCH  20  21
ENDBRANCH  19  20
ENDBRANCH   4  19
TORSDOF 7
ENDMDL
MODEL 7
REMARK VINA RESULT:      -7.8      4.686     11.495
REMARK  Name = 
REMARK  7 active torsions:
REMARK  status: ('A' for Active; 'I' for Inactive)
REMARK    1  A    between atoms: C_2  and  C_3
REMARK    2  A    between atoms: C_6  and  C_7
REMARK    3  A    between atoms: N_9  and  C_10
REMARK    4  A    between atoms: C_13  and  C_14
REMARK    5  A    between atoms: C_14  and  C_15
REMARK    6  A    between atoms: C_15  and  N_16
REMARK    7  A    between atoms: C_19  and  C_20
REMARK                            x       y       z     vdW  Elec       q    Type
REMARK                         _______ _______ _______ _____ _____    ______ ____
ROOT
ATOM      1  C   UNL     1       1.002   8.992  20.698  0.00  0.00    +0.000 C 
ATOM      2  C   UNL     1       0.943   8.787  22.217  0.00  0.00    +0.000 C 
ATOM      3  C   UNL     1      -0.278   9.502  22.824  0.00  0.00    +0.000 C 
ATOM      4  C   UNL     1      -0.455  10.968  22.360  0.00  0.00    +0.000 C 
ATOM      5  C   UNL     1      -0.288  11.101  20.839  0.00  0.00    +0.000 C 
ATOM      6  C   UNL     1       1.045  10.498  20.412  0.00  0.00    +0.000 C 
ENDROOT
BRANCH   1   9
ATOM      7  C   UNL     1       2.110   8.118  18.623  0.00  0.00    +0.000 C 
ATOM      8  O   UNL     1       1.410   8.788  17.870  0.00  0.00    +0.000 OA
ATOM      9  N   UNL     1       2.038   8.239  19.993  0.00  0.00    +0.000 N 
ATOM     10  H   UNL     1       2.592   7.623  20.568  0.00  0.00    +0.000 HD
BRANCH   7  14
ATOM     11  C   UNL     1       4.661   5.253  16.615  0.00  0.00    +0.000 A 
ATOM     12  C   UNL     1       4.936   6.618  16.580  0.00  0.00    +0.000 A 
ATOM     13  C   UNL     1       4.123   7.514  17.289  0.00  0.00    +0.000 A 
ATOM     14  C   UNL     1       3.029   7.066  18.049  0.00  0.00    +0.000 A 
ATOM     15  C   UNL     1       2.815   5.682  18.141  0.00  0.00    +0.000 A 
ATOM     16  C   UNL     1       3.617   4.785  17.412  0.00  0.00    +0.000 A 
BRANCH  11  18
ATOM     17  N   UNL     1       5.989   3.563  15.157  0.00  0.00    +0.000 NA
ATOM     18  C   UNL     1       5.421   4.330  15.809  0.00  0.00    +0.000 C 
ENDBRANCH  11  18
ENDBRANCH   7  14
ENDBRANCH   1   9
BRANCH   4  19
ATOM     19  C   UNL     1      -1.825  11.540  22.765  0.00  0.00    +0.000 C 
BRANCH  19  20
ATOM     20  C   UNL     1      -1.754  13.033  23.097  0.00  0.00    +0.000 C 
BRANCH  20  21
ATOM     21  N   UNL     1      -3.013  13.754  22.830  0.00  0.00    +0.000 NA
ATOM     22  C   UNL     1      -3.030  14.295  21.461  0.00  0.00    +0.000 C 
ATOM     23  C   UNL     1      -4.388  14.823  21.013  0.00  0.00    +0.000 C 
ATOM     24  C   UNL     1      -5.531  13.835  21.255  0.00  0.00    +0.000 C 
ATOM     25  C   UNL     1      -5.500  13.382  22.716  0.00  0.00    +0.000 C 
ATOM     26  C   UNL     1      -4.137  12.855  23.149  0.00  0.00    +0.000 C 
BRANCH  24  27
ATOM     27  C   UNL     1      -5.603  12.700  20.239  0.00  0.00    +0.000 A 
ATOM     28  C   UNL     1      -4.784  12.626  19.094  0.00  0.00    +0.000 A 
ATOM     29  C   UNL     1      -4.906  11.599  18.141  0.00  0.00    +0.000 A 
ATOM     30  C   UNL     1      -5.851  10.597  18.309  0.00  0.00    +0.000 A 
ATOM     31  C   UNL     1      -6.631  10.646  19.442  0.00  0.00    +0.000 A 
ATOM     32  C   UNL     1      -6.520  11.664  20.389  0.00  0.00    +0.000 A 
ATOM     33  C   UNL     1      -7.554  11.444  21.429  0.00  0.00    +0.000 C 
ATOM     34  C   UNL     1      -7.916   9.993  21.113  0.00  0.00    +0.000 C 
ATOM     35  O   UNL     1      -7.599   9.720  19.733  0.00  0.00    +0.000 OA
ENDBRANCH  24  27
ENDBRANCH  20  21
ENDBRANCH  19  20
ENDBRANCH   4  19
TORSDOF 7
ENDMDL
MODEL 8
REMARK VINA RESULT:      -7.8      2.045      2.391
REMARK  Name = 
REMARK  7 active torsions:
REMARK  status: ('A' for Active; 'I' for Inactive)
REMARK    1  A    between atoms: C_2  and  C_3
REMARK    2  A    between atoms: C_6  and  C_7
REMARK    3  A    between atoms: N_9  and  C_10
REMARK    4  A    between atoms: C_13  and  C_14
REMARK    5  A    between atoms: C_14  and  C_15
REMARK    6  A    between atoms: C_15  and  N_16
REMARK    7  A    between atoms: C_19  and  C_20
REMARK                            x       y       z     vdW  Elec       q    Type
REMARK                         _______ _______ _______ _____ _____    ______ ____
ROOT
ATOM      1  C   UNL     1      -0.248  10.730  20.884  0.00  0.00    +0.000 C 
ATOM      2  C   UNL     1      -0.715   9.503  21.676  0.00  0.00    +0.000 C 
ATOM      3  C   UNL     1       0.320   8.367  21.596  0.00  0.00    +0.000 C 
ATOM      4  C   UNL     1       0.824   8.061  20.164  0.00  0.00    +0.000 C 
ATOM      5  C   UNL     1       1.182   9.349  19.407  0.00  0.00    +0.000 C 
ATOM      6  C   UNL     1      -0.004  10.307  19.430  0.00  0.00    +0.000 C 
ENDROOT
BRANCH   1   9
ATOM      7  C   UNL     1      -1.198  12.674  22.156  0.00  0.00    +0.000 C 
ATOM      8  O   UNL     1      -0.464  12.503  23.124  0.00  0.00    +0.000 OA
ATOM      9  N   UNL     1      -1.083  11.924  21.006  0.00  0.00    +0.000 N 
ATOM     10  H   UNL     1      -1.750  12.063  20.263  0.00  0.00    +0.000 HD
BRANCH   7  14
ATOM     11  C   UNL     1      -4.476  15.499  22.004  0.00  0.00    +0.000 A 
ATOM     12  C   UNL     1      -4.668  14.150  21.717  0.00  0.00    +0.000 A 
ATOM     13  C   UNL     1      -3.598  13.251  21.832  0.00  0.00    +0.000 A 
ATOM     14  C   UNL     1      -2.323  13.678  22.241  0.00  0.00    +0.000 A 
ATOM     15  C   UNL     1      -2.166  15.024  22.606  0.00  0.00    +0.000 A 
ATOM     16  C   UNL     1      -3.234  15.931  22.469  0.00  0.00    +0.000 A 
BRANCH  11  18
ATOM     17  N   UNL     1      -6.362  17.249  21.649  0.00  0.00    +0.000 NA
ATOM     18  C   UNL     1      -5.535  16.453  21.790  0.00  0.00    +0.000 C 
ENDBRANCH  11  18
ENDBRANCH   7  14
ENDBRANCH   1   9
BRANCH   4  19
ATOM     19  C   UNL     1       2.047   7.128  20.169  0.00  0.00    +0.000 C 
BRANCH  19  20
ATOM     20  C   UNL     1       1.709   5.732  20.697  0.00  0.00    +0.000 C 
BRANCH  20  21
ATOM     21  N   UNL     1       2.033   4.651  19.748  0.00  0.00    +0.000 NA
ATOM     22  C   UNL     1       2.200   5.179  18.385  0.00  0.00    +0.000 C 
ATOM     23  C   UNL     1       2.791   4.184  17.394  0.00  0.00    +0.000 C 
ATOM     24  C   UNL     1       4.061   3.503  17.905  0.00  0.00    +0.000 C 
ATOM     25  C   UNL     1       3.788   2.906  19.287  0.00  0.00    +0.000 C 
ATOM     26  C   UNL     1       3.199   3.914  20.267  0.00  0.00    +0.000 C 
BRANCH  24  27
ATOM     27  C   UNL     1       5.313   4.371  17.824  0.00  0.00    +0.000 A 
ATOM     28  C   UNL     1       5.921   4.969  18.947  0.00  0.00    +0.000 A 
ATOM     29  C   UNL     1       7.041   5.812  18.842  0.00  0.00    +0.000 A 
ATOM     30  C   UNL     1       7.605   6.076  17.602  0.00  0.00    +0.000 A 
ATOM     31  C   UNL     1       7.035   5.469  16.506  0.00  0.00    +0.000 A 
ATOM     32  C   UNL     1       5.920   4.636  16.600  0.00  0.00    +0.000 A 
ATOM     33  C   UNL     1       5.536   4.220  15.230  0.00  0.00    +0.000 C 
ATOM     34  C   UNL     1       6.816   4.603  14.487  0.00  0.00    +0.000 C 
ATOM     35  O   UNL     1       7.494   5.641  15.225  0.00  0.00    +0.000 OA
ENDBRANCH  24  27
ENDBRANCH  20  21
ENDBRANCH  19  20
ENDBRANCH   4  19
TORSDOF 7
ENDMDL
MODEL 9
REMARK VINA RESULT:      -7.8      5.150     11.892
REMARK  Name = 
REMARK  7 active torsions:
REMARK  status: ('A' for Active; 'I' for Inactive)
REMARK    1  A    between atoms: C_2  and  C_3
REMARK    2  A    between atoms: C_6  and  C_7
REMARK    3  A    between atoms: N_9  and  C_10
REMARK    4  A    between atoms: C_13  and  C_14
REMARK    5  A    between atoms: C_14  and  C_15
REMARK    6  A    between atoms: C_15  and  N_16
REMARK    7  A    between atoms: C_19  and  C_20
REMARK                            x       y       z     vdW  Elec       q    Type
REMARK                         _______ _______ _______ _____ _____    ______ ____
ROOT
ATOM      1  C   UNL     1      -0.216  10.948  21.314  0.00  0.00    +0.000 C 
ATOM      2  C   UNL     1      -0.771  10.598  22.701  0.00  0.00    +0.000 C 
ATOM      3  C   UNL     1      -1.902  11.562  23.101  0.00  0.00    +0.000 C 
ATOM      4  C   UNL     1      -1.568  13.060  22.895  0.00  0.00    +0.000 C 
ATOM      5  C   UNL     1      -0.930  13.310  21.521  0.00  0.00    +0.000 C 
ATOM      6  C   UNL     1       0.279  12.399  21.340  0.00  0.00    +0.000 C 
ENDROOT
BRANCH   1   9
ATOM      7  C   UNL     1       0.902   9.732  19.424  0.00  0.00    +0.000 C 
ATOM      8  O   UNL     1       0.330  10.386  18.558  0.00  0.00    +0.000 OA
ATOM      9  N   UNL     1       0.765  10.012  20.766  0.00  0.00    +0.000 N 
ATOM     10  H   UNL     1       1.209   9.407  21.440  0.00  0.00    +0.000 HD
BRANCH   7  14
ATOM     11  C   UNL     1       3.485   6.352  18.615  0.00  0.00    +0.000 A 
ATOM     12  C   UNL     1       2.702   6.407  19.766  0.00  0.00    +0.000 A 
ATOM     13  C   UNL     1       1.833   7.489  19.969  0.00  0.00    +0.000 A 
ATOM     14  C   UNL     1       1.724   8.528  19.029  0.00  0.00    +0.000 A 
ATOM     15  C   UNL     1       2.457   8.417  17.838  0.00  0.00    +0.000 A 
ATOM     16  C   UNL     1       3.346   7.343  17.643  0.00  0.00    +0.000 A 
BRANCH  11  18
ATOM     17  N   UNL     1       5.249   4.481  18.253  0.00  0.00    +0.000 NA
ATOM     18  C   UNL     1       4.459   5.304  18.440  0.00  0.00    +0.000 C 
ENDBRANCH  11  18
ENDBRANCH   7  14
ENDBRANCH   1   9
BRANCH   4  19
ATOM     19  C   UNL     1      -2.812  13.954  23.039  0.00  0.00    +0.000 C 
BRANCH  19  20
ATOM     20  C   UNL     1      -3.899  13.301  23.896  0.00  0.00    +0.000 C 
BRANCH  20  21
ATOM     21  N   UNL     1      -5.254  13.811  23.614  0.00  0.00    +0.000 NA
ATOM     22  C   UNL     1      -5.288  14.532  22.331  0.00  0.00    +0.000 C 
ATOM     23  C   UNL     1      -6.691  14.863  21.835  0.00  0.00    +0.000 C 
ATOM     24  C   UNL     1      -7.635  13.659  21.843  0.00  0.00    +0.000 C 
ATOM     25  C   UNL     1      -7.610  13.013  23.230  0.00  0.00    +0.000 C 
ATOM     26  C   UNL     1      -6.201  12.686  23.711  0.00  0.00    +0.000 C 
BRANCH  24  27
ATOM     27  C   UNL     1      -7.423  12.690  20.686  0.00  0.00    +0.000 A 
ATOM     28  C   UNL     1      -7.224  11.304  20.856  0.00  0.00    +0.000 A 
ATOM     29  C   UNL     1      -6.974  10.437  19.778  0.00  0.00    +0.000 A 
ATOM     30  C   UNL     1      -6.929  10.928  18.481  0.00  0.00    +0.000 A 
ATOM     31  C   UNL     1      -7.156  12.274  18.306  0.00  0.00    +0.000 A 
ATOM     32  C   UNL     1      -7.398  13.142  19.370  0.00  0.00    +0.000 A 
ATOM     33  C   UNL     1      -7.523  14.516  18.827  0.00  0.00    +0.000 C 
ATOM     34  C   UNL     1      -7.723  14.181  17.350  0.00  0.00    +0.000 C 
ATOM     35  O   UNL     1      -7.143  12.888  17.080  0.00  0.00    +0.000 OA
ENDBRANCH  24  27
ENDBRANCH  20  21
ENDBRANCH  19  20
ENDBRANCH   4  19
TORSDOF 7
ENDMDL
