MODEL 1
REMARK VINA RESULT:      -6.8      0.000      0.000
REMARK  Name = 
REMARK  10 active torsions:
REMARK  status: ('A' for Active; 'I' for Inactive)
REMARK    1  A    between atoms: C_1  and  C_2
REMARK    2  A    between atoms: N_5  and  C_6
REMARK    3  A    between atoms: C_6  and  C_7
REMARK    4  A    between atoms: C_7  and  C_8
REMARK    5  A    between atoms: C_8  and  N_9
REMARK    6  A    between atoms: N_9  and  C_10
REMARK    7  A    between atoms: N_9  and  C_11
REMARK    8  A    between atoms: C_16  and  C_17
REMARK    9  A    between atoms: C_22  and  O_23
REMARK   10  A    between atoms: N_27  and  C_28
REMARK                            x       y       z     vdW  Elec       q    Type
REMARK                         _______ _______ _______ _____ _____    ______ ____
ROOT
ATOM      1  C   UNL     1       3.252   8.667  17.374  0.00  0.00    +0.000 C 
ATOM      2  C   UNL     1       2.785   7.671  18.409  0.00  0.00    +0.000 A 
ATOM      3  C   UNL     1       1.852   7.984  19.484  0.00  0.00    +0.000 A 
ATOM      4  C   UNL     1       1.246   9.271  19.759  0.00  0.00    +0.000 A 
ATOM      5  N   UNL     1       1.463  10.351  18.901  0.00  0.00    +0.000 N 
ATOM      6  N   UNL     1       0.372   9.517  20.758  0.00  0.00    +0.000 NA
ATOM      7  C   UNL     1       0.081   8.502  21.576  0.00  0.00    +0.000 A 
ATOM      8  C   UNL     1       0.620   7.243  21.439  0.00  0.00    +0.000 A 
ATOM      9  C   UNL     1       1.521   6.937  20.396  0.00  0.00    +0.000 A 
ATOM     10  C   UNL     1       2.077   5.615  20.281  0.00  0.00    +0.000 A 
ATOM     11  C   UNL     1       1.736   4.516  21.264  0.00  0.00    +0.000 C 
ATOM     12  C   UNL     1       2.970   5.361  19.201  0.00  0.00    +0.000 A 
ATOM     13  C   UNL     1       3.313   6.347  18.281  0.00  0.00    +0.000 A 
ATOM     14  C   UNL     1       4.215   5.752  17.312  0.00  0.00    +0.000 A 
ATOM     15  C   UNL     1       4.884   6.226  16.151  0.00  0.00    +0.000 A 
ATOM     16  C   UNL     1       5.714   5.382  15.423  0.00  0.00    +0.000 A 
ATOM     17  C   UNL     1       5.903   4.071  15.807  0.00  0.00    +0.000 A 
ATOM     18  C   UNL     1       5.256   3.569  16.941  0.00  0.00    +0.000 A 
ATOM     19  C   UNL     1       4.412   4.429  17.680  0.00  0.00    +0.000 A 
ATOM     20  N   UNL     1       3.663   4.207  18.819  0.00  0.00    +0.000 N 
ATOM     21  C   UNL     1       3.619   2.931  19.498  0.00  0.00    +0.000 C 
ATOM     22  H   UNL     1       0.818  10.258  18.127  0.00  0.00    +0.000 HD
ENDROOT
BRANCH  16  23
ATOM     23  O   UNL     1       6.368   5.824  14.309  0.00  0.00    +0.000 OA
ATOM     24  H   UNL     1       5.740   6.321  13.755  0.00  0.00    +0.000 HD
ENDBRANCH  16  23
BRANCH   5  25
ATOM     25  C   UNL     1       1.430  11.701  19.449  0.00  0.00    +0.000 C 
BRANCH  25  26
ATOM     26  C   UNL     1       1.062  12.632  18.289  0.00  0.00    +0.000 C 
BRANCH  26  27
ATOM     27  C   UNL     1      -0.421  13.000  18.286  0.00  0.00    +0.000 C 
BRANCH  27  28
ATOM     28  N   UNL     1      -1.291  11.910  18.774  0.00  0.00    +0.000 NA
ATOM     29  C   UNL     1      -2.248  12.359  19.786  0.00  0.00    +0.000 C 
ATOM     30  C   UNL     1      -2.015  11.318  17.645  0.00  0.00    +0.000 C 
ENDBRANCH  27  28
ENDBRANCH  26  27
ENDBRANCH  25  26
ENDBRANCH   5  25
TORSDOF 5
ENDMDL
MODEL 2
REMARK VINA RESULT:      -6.7      1.484      2.162
REMARK  Name = 
REMARK  10 active torsions:
REMARK  status: ('A' for Active; 'I' for Inactive)
REMARK    1  A    between atoms: C_1  and  C_2
REMARK    2  A    between atoms: N_5  and  C_6
REMARK    3  A    between atoms: C_6  and  C_7
REMARK    4  A    between atoms: C_7  and  C_8
REMARK    5  A    between atoms: C_8  and  N_9
REMARK    6  A    between atoms: N_9  and  C_10
REMARK    7  A    between atoms: N_9  and  C_11
REMARK    8  A    between atoms: C_16  and  C_17
REMARK    9  A    between atoms: C_22  and  O_23
REMARK   10  A    between atoms: N_27  and  C_28
REMARK                            x       y       z     vdW  Elec       q    Type
REMARK                         _______ _______ _______ _____ _____    ______ ____
ROOT
ATOM      1  C   UNL     1       3.319   8.562  17.136  0.00  0.00    +0.000 C 
ATOM      2  C   UNL     1       2.916   7.607  18.234  0.00  0.00    +0.000 A 
ATOM      3  C   UNL     1       1.982   7.935  19.304  0.00  0.00    +0.000 A 
ATOM      4  C   UNL     1       1.315   9.204  19.512  0.00  0.00    +0.000 A 
ATOM      5  N   UNL     1       1.465  10.241  18.590  0.00  0.00    +0.000 N 
ATOM      6  N   UNL     1       0.443   9.465  20.509  0.00  0.00    +0.000 NA
ATOM      7  C   UNL     1       0.213   8.487  21.389  0.00  0.00    +0.000 A 
ATOM      8  C   UNL     1       0.814   7.250  21.318  0.00  0.00    +0.000 A 
ATOM      9  C   UNL     1       1.716   6.929  20.280  0.00  0.00    +0.000 A 
ATOM     10  C   UNL     1       2.337   5.631  20.233  0.00  0.00    +0.000 A 
ATOM     11  C   UNL     1       2.066   4.577  21.285  0.00  0.00    +0.000 C 
ATOM     12  C   UNL     1       3.229   5.359  19.156  0.00  0.00    +0.000 A 
ATOM     13  C   UNL     1       3.510   6.305  18.174  0.00  0.00    +0.000 A 
ATOM     14  C   UNL     1       4.428   5.700  17.229  0.00  0.00    +0.000 A 
ATOM     15  C   UNL     1       5.057   6.138  16.032  0.00  0.00    +0.000 A 
ATOM     16  C   UNL     1       5.920   5.294  15.340  0.00  0.00    +0.000 A 
ATOM     17  C   UNL     1       6.180   4.020  15.797  0.00  0.00    +0.000 A 
ATOM     18  C   UNL     1       5.575   3.554  16.968  0.00  0.00    +0.000 A 
ATOM     19  C   UNL     1       4.697   4.413  17.670  0.00  0.00    +0.000 A 
ATOM     20  N   UNL     1       3.974   4.221  18.831  0.00  0.00    +0.000 N 
ATOM     21  C   UNL     1       4.005   2.987  19.584  0.00  0.00    +0.000 C 
ATOM     22  H   UNL     1       0.816  10.070  17.832  0.00  0.00    +0.000 HD
ENDROOT
BRANCH  16  23
ATOM     23  O   UNL     1       6.536   5.703  14.192  0.00  0.00    +0.000 OA
ATOM     24  H   UNL     1       6.865   4.918  13.719  0.00  0.00    +0.000 HD
ENDBRANCH  16  23
BRANCH   5  25
ATOM     25  C   UNL     1       1.370  11.618  19.058  0.00  0.00    +0.000 C 
BRANCH  25  26
ATOM     26  C   UNL     1       2.396  12.423  18.253  0.00  0.00    +0.000 C 
BRANCH  26  27
ATOM     27  C   UNL     1       2.806  13.714  18.959  0.00  0.00    +0.000 C 
BRANCH  27  28
ATOM     28  N   UNL     1       2.870  14.877  18.050  0.00  0.00    +0.000 NA
ATOM     29  C   UNL     1       2.147  16.041  18.568  0.00  0.00    +0.000 C 
ATOM     30  C   UNL     1       4.270  15.237  17.812  0.00  0.00    +0.000 C 
ENDBRANCH  27  28
ENDBRANCH  26  27
ENDBRANCH  25  26
ENDBRANCH   5  25
TORSDOF 5
ENDMDL
MODEL 3
REMARK VINA RESULT:      -6.6      1.301      1.912
REMARK  Name = 
REMARK  10 active torsions:
REMARK  status: ('A' for Active; 'I' for Inactive)
REMARK    1  A    between atoms: C_1  and  C_2
REMARK    2  A    between atoms: N_5  and  C_6
REMARK    3  A    between atoms: C_6  and  C_7
REMARK    4  A    between atoms: C_7  and  C_8
REMARK    5  A    between atoms: C_8  and  N_9
REMARK    6  A    between atoms: N_9  and  C_10
REMARK    7  A    between atoms: N_9  and  C_11
REMARK    8  A    between atoms: C_16  and  C_17
REMARK    9  A    between atoms: C_22  and  O_23
REMARK   10  A    between atoms: N_27  and  C_28
REMARK                            x       y       z     vdW  Elec       q    Type
REMARK                         _______ _______ _______ _____ _____    ______ ____
ROOT
ATOM      1  C   UNL     1       3.314   8.548  17.141  0.00  0.00    +0.000 C 
ATOM      2  C   UNL     1       2.913   7.591  18.239  0.00  0.00    +0.000 A 
ATOM      3  C   UNL     1       1.981   7.917  19.310  0.00  0.00    +0.000 A 
ATOM      4  C   UNL     1       1.311   9.185  19.521  0.00  0.00    +0.000 A 
ATOM      5  N   UNL     1       1.459  10.223  18.598  0.00  0.00    +0.000 N 
ATOM      6  N   UNL     1       0.440   9.443  20.518  0.00  0.00    +0.000 NA
ATOM      7  C   UNL     1       0.213   8.464  21.398  0.00  0.00    +0.000 A 
ATOM      8  C   UNL     1       0.816   7.228  21.325  0.00  0.00    +0.000 A 
ATOM      9  C   UNL     1       1.717   6.910  20.286  0.00  0.00    +0.000 A 
ATOM     10  C   UNL     1       2.341   5.613  20.237  0.00  0.00    +0.000 A 
ATOM     11  C   UNL     1       2.072   4.558  21.288  0.00  0.00    +0.000 C 
ATOM     12  C   UNL     1       3.232   5.344  19.159  0.00  0.00    +0.000 A 
ATOM     13  C   UNL     1       3.510   6.291  18.178  0.00  0.00    +0.000 A 
ATOM     14  C   UNL     1       4.428   5.688  17.230  0.00  0.00    +0.000 A 
ATOM     15  C   UNL     1       5.055   6.128  16.033  0.00  0.00    +0.000 A 
ATOM     16  C   UNL     1       5.918   5.287  15.340  0.00  0.00    +0.000 A 
ATOM     17  C   UNL     1       6.181   4.012  15.796  0.00  0.00    +0.000 A 
ATOM     18  C   UNL     1       5.578   3.544  16.967  0.00  0.00    +0.000 A 
ATOM     19  C   UNL     1       4.700   4.401  17.670  0.00  0.00    +0.000 A 
ATOM     20  N   UNL     1       3.978   4.207  18.832  0.00  0.00    +0.000 N 
ATOM     21  C   UNL     1       4.012   2.973  19.584  0.00  0.00    +0.000 C 
ATOM     22  H   UNL     1       0.809  10.052  17.841  0.00  0.00    +0.000 HD
ENDROOT
BRANCH  16  23
ATOM     23  O   UNL     1       6.533   5.697  14.192  0.00  0.00    +0.000 OA
ATOM     24  H   UNL     1       5.874   6.136  13.625  0.00  0.00    +0.000 HD
ENDBRANCH  16  23
BRANCH   5  25
ATOM     25  C   UNL     1       1.362  11.599  19.068  0.00  0.00    +0.000 C 
BRANCH  25  26
ATOM     26  C   UNL     1       2.395  12.404  18.272  0.00  0.00    +0.000 C 
BRANCH  26  27
ATOM     27  C   UNL     1       2.537  13.836  18.784  0.00  0.00    +0.000 C 
BRANCH  27  28
ATOM     28  N   UNL     1       2.209  13.975  20.218  0.00  0.00    +0.000 NA
ATOM     29  C   UNL     1       3.400  14.057  21.066  0.00  0.00    +0.000 C 
ATOM     30  C   UNL     1       1.383  15.169  20.418  0.00  0.00    +0.000 C 
ENDBRANCH  27  28
ENDBRANCH  26  27
ENDBRANCH  25  26
ENDBRANCH   5  25
TORSDOF 5
ENDMDL
MODEL 4
REMARK VINA RESULT:      -6.4      1.094      1.366
REMARK  Name = 
REMARK  10 active torsions:
REMARK  status: ('A' for Active; 'I' for Inactive)
REMARK    1  A    between atoms: C_1  and  C_2
REMARK    2  A    between atoms: N_5  and  C_6
REMARK    3  A    between atoms: C_6  and  C_7
REMARK    4  A    between atoms: C_7  and  C_8
REMARK    5  A    between atoms: C_8  and  N_9
REMARK    6  A    between atoms: N_9  and  C_10
REMARK    7  A    between atoms: N_9  and  C_11
REMARK    8  A    between atoms: C_16  and  C_17
REMARK    9  A    between atoms: C_22  and  O_23
REMARK   10  A    between atoms: N_27  and  C_28
REMARK                            x       y       z     vdW  Elec       q    Type
REMARK                         _______ _______ _______ _____ _____    ______ ____
ROOT
ATOM      1  C   UNL     1       3.302   8.561  17.206  0.00  0.00    +0.000 C 
ATOM      2  C   UNL     1       2.895   7.589  18.288  0.00  0.00    +0.000 A 
ATOM      3  C   UNL     1       1.968   7.905  19.366  0.00  0.00    +0.000 A 
ATOM      4  C   UNL     1       1.310   9.175  19.601  0.00  0.00    +0.000 A 
ATOM      5  N   UNL     1       1.465  10.227  18.696  0.00  0.00    +0.000 N 
ATOM      6  N   UNL     1       0.443   9.423  20.604  0.00  0.00    +0.000 NA
ATOM      7  C   UNL     1       0.210   8.431  21.468  0.00  0.00    +0.000 A 
ATOM      8  C   UNL     1       0.802   7.191  21.372  0.00  0.00    +0.000 A 
ATOM      9  C   UNL     1       1.698   6.883  20.326  0.00  0.00    +0.000 A 
ATOM     10  C   UNL     1       2.310   5.582  20.254  0.00  0.00    +0.000 A 
ATOM     11  C   UNL     1       2.035   4.511  21.286  0.00  0.00    +0.000 C 
ATOM     12  C   UNL     1       3.196   5.324  19.169  0.00  0.00    +0.000 A 
ATOM     13  C   UNL     1       3.480   6.285  18.203  0.00  0.00    +0.000 A 
ATOM     14  C   UNL     1       4.391   5.690  17.243  0.00  0.00    +0.000 A 
ATOM     15  C   UNL     1       5.019   6.145  16.052  0.00  0.00    +0.000 A 
ATOM     16  C   UNL     1       5.874   5.309  15.343  0.00  0.00    +0.000 A 
ATOM     17  C   UNL     1       6.126   4.024  15.776  0.00  0.00    +0.000 A 
ATOM     18  C   UNL     1       5.522   3.542  16.941  0.00  0.00    +0.000 A 
ATOM     19  C   UNL     1       4.653   4.394  17.661  0.00  0.00    +0.000 A 
ATOM     20  N   UNL     1       3.932   4.186  18.821  0.00  0.00    +0.000 N 
ATOM     21  C   UNL     1       3.956   2.939  19.551  0.00  0.00    +0.000 C 
ATOM     22  H   UNL     1       0.812  10.074  17.937  0.00  0.00    +0.000 HD
ENDROOT
BRANCH  16  23
ATOM     23  O   UNL     1       6.489   5.733  14.201  0.00  0.00    +0.000 OA
ATOM     24  H   UNL     1       6.128   6.603  13.956  0.00  0.00    +0.000 HD
ENDBRANCH  16  23
BRANCH   5  25
ATOM     25  C   UNL     1       1.381  11.595  19.190  0.00  0.00    +0.000 C 
BRANCH  25  26
ATOM     26  C   UNL     1      -0.013  12.109  18.813  0.00  0.00    +0.000 C 
BRANCH  26  27
ATOM     27  C   UNL     1      -0.591  13.051  19.868  0.00  0.00    +0.000 C 
BRANCH  27  28
ATOM     28  N   UNL     1       0.097  12.955  21.171  0.00  0.00    +0.000 NA
ATOM     29  C   UNL     1       0.584  14.249  21.652  0.00  0.00    +0.000 C 
ATOM     30  C   UNL     1      -0.812  12.375  22.164  0.00  0.00    +0.000 C 
ENDBRANCH  27  28
ENDBRANCH  26  27
ENDBRANCH  25  26
ENDBRANCH   5  25
TORSDOF 5
ENDMDL
MODEL 5
REMARK VINA RESULT:      -6.3      4.658     10.697
REMARK  Name = 
REMARK  10 active torsions:
REMARK  status: ('A' for Active; 'I' for Inactive)
REMARK    1  A    between atoms: C_1  and  C_2
REMARK    2  A    between atoms: N_5  and  C_6
REMARK    3  A    between atoms: C_6  and  C_7
REMARK    4  A    between atoms: C_7  and  C_8
REMARK    5  A    between atoms: C_8  and  N_9
REMARK    6  A    between atoms: N_9  and  C_10
REMARK    7  A    between atoms: N_9  and  C_11
REMARK    8  A    between atoms: C_16  and  C_17
REMARK    9  A    between atoms: C_22  and  O_23
REMARK   10  A    between atoms: N_27  and  C_28
REMARK                            x       y       z     vdW  Elec       q    Type
REMARK                         _______ _______ _______ _____ _____    ______ ____
ROOT
ATOM      1  C   UNL     1      -1.914  12.379  21.157  0.00  0.00    +0.000 C 
ATOM      2  C   UNL     1      -3.033  12.271  20.150  0.00  0.00    +0.000 A 
ATOM      3  C   UNL     1      -2.932  11.553  18.886  0.00  0.00    +0.000 A 
ATOM      4  C   UNL     1      -1.767  10.858  18.375  0.00  0.00    +0.000 A 
ATOM      5  N   UNL     1      -0.613  10.749  19.153  0.00  0.00    +0.000 N 
ATOM      6  N   UNL     1      -1.717  10.189  17.204  0.00  0.00    +0.000 NA
ATOM      7  C   UNL     1      -2.816  10.208  16.444  0.00  0.00    +0.000 A 
ATOM      8  C   UNL     1      -3.972  10.863  16.804  0.00  0.00    +0.000 A 
ATOM      9  C   UNL     1      -4.074  11.557  18.030  0.00  0.00    +0.000 A 
ATOM     10  C   UNL     1      -5.291  12.241  18.378  0.00  0.00    +0.000 A 
ATOM     11  C   UNL     1      -6.490  12.259  17.456  0.00  0.00    +0.000 C 
ATOM     12  C   UNL     1      -5.340  12.914  19.633  0.00  0.00    +0.000 A 
ATOM     13  C   UNL     1      -4.256  12.926  20.506  0.00  0.00    +0.000 A 
ATOM     14  C   UNL     1      -4.648  13.674  21.686  0.00  0.00    +0.000 A 
ATOM     15  C   UNL     1      -4.005  14.017  22.906  0.00  0.00    +0.000 A 
ATOM     16  C   UNL     1      -4.670  14.778  23.862  0.00  0.00    +0.000 A 
ATOM     17  C   UNL     1      -5.962  15.209  23.649  0.00  0.00    +0.000 A 
ATOM     18  C   UNL     1      -6.627  14.885  22.463  0.00  0.00    +0.000 A 
ATOM     19  C   UNL     1      -5.949  14.111  21.492  0.00  0.00    +0.000 A 
ATOM     20  N   UNL     1      -6.353  13.652  20.253  0.00  0.00    +0.000 N 
ATOM     21  C   UNL     1      -7.664  13.916  19.704  0.00  0.00    +0.000 C 
ATOM     22  H   UNL     1      -0.746   9.973  19.789  0.00  0.00    +0.000 HD
ENDROOT
BRANCH  16  23
ATOM     23  O   UNL     1      -4.064  15.121  25.037  0.00  0.00    +0.000 OA
ATOM     24  H   UNL     1      -3.151  14.785  25.026  0.00  0.00    +0.000 HD
ENDBRANCH  16  23
BRANCH   5  25
ATOM     25  C   UNL     1       0.679  10.659  18.483  0.00  0.00    +0.000 C 
BRANCH  25  26
ATOM     26  C   UNL     1       1.320   9.348  18.952  0.00  0.00    +0.000 C 
BRANCH  26  27
ATOM     27  C   UNL     1       2.148   8.681  17.854  0.00  0.00    +0.000 C 
BRANCH  27  28
ATOM     28  N   UNL     1       2.463   7.267  18.144  0.00  0.00    +0.000 NA
ATOM     29  C   UNL     1       3.788   6.872  17.661  0.00  0.00    +0.000 C 
ATOM     30  C   UNL     1       2.379   7.032  19.588  0.00  0.00    +0.000 C 
ENDBRANCH  27  28
ENDBRANCH  26  27
ENDBRANCH  25  26
ENDBRANCH   5  25
TORSDOF 5
ENDMDL
MODEL 6
REMARK VINA RESULT:      -6.2      2.752      4.500
REMARK  Name = 
REMARK  10 active torsions:
REMARK  status: ('A' for Active; 'I' for Inactive)
REMARK    1  A    between atoms: C_1  and  C_2
REMARK    2  A    between atoms: N_5  and  C_6
REMARK    3  A    between atoms: C_6  and  C_7
REMARK    4  A    between atoms: C_7  and  C_8
REMARK    5  A    between atoms: C_8  and  N_9
REMARK    6  A    between atoms: N_9  and  C_10
REMARK    7  A    between atoms: N_9  and  C_11
REMARK    8  A    between atoms: C_16  and  C_17
REMARK    9  A    between atoms: C_22  and  O_23
REMARK   10  A    between atoms: N_27  and  C_28
REMARK                            x       y       z     vdW  Elec       q    Type
REMARK                         _______ _______ _______ _____ _____    ______ ____
ROOT
ATOM      1  C   UNL     1       0.707   7.304  21.533  0.00  0.00    +0.000 C 
ATOM      2  C   UNL     1       1.488   7.562  20.266  0.00  0.00    +0.000 A 
ATOM      3  C   UNL     1       1.593   8.863  19.618  0.00  0.00    +0.000 A 
ATOM      4  C   UNL     1       0.967  10.098  20.047  0.00  0.00    +0.000 A 
ATOM      5  N   UNL     1       0.243  10.145  21.240  0.00  0.00    +0.000 N 
ATOM      6  N   UNL     1       1.103  11.289  19.428  0.00  0.00    +0.000 NA
ATOM      7  C   UNL     1       1.838  11.316  18.313  0.00  0.00    +0.000 A 
ATOM      8  C   UNL     1       2.452  10.203  17.786  0.00  0.00    +0.000 A 
ATOM      9  C   UNL     1       2.354   8.942  18.413  0.00  0.00    +0.000 A 
ATOM     10  C   UNL     1       2.999   7.791  17.837  0.00  0.00    +0.000 A 
ATOM     11  C   UNL     1       3.786   7.879  16.548  0.00  0.00    +0.000 C 
ATOM     12  C   UNL     1       2.876   6.548  18.521  0.00  0.00    +0.000 A 
ATOM     13  C   UNL     1       2.155   6.425  19.705  0.00  0.00    +0.000 A 
ATOM     14  C   UNL     1       2.250   5.045  20.139  0.00  0.00    +0.000 A 
ATOM     15  C   UNL     1       1.755   4.315  21.253  0.00  0.00    +0.000 A 
ATOM     16  C   UNL     1       2.021   2.955  21.379  0.00  0.00    +0.000 A 
ATOM     17  C   UNL     1       2.772   2.291  20.432  0.00  0.00    +0.000 A 
ATOM     18  C   UNL     1       3.280   2.979  19.326  0.00  0.00    +0.000 A 
ATOM     19  C   UNL     1       3.008   4.361  19.200  0.00  0.00    +0.000 A 
ATOM     20  N   UNL     1       3.374   5.274  18.230  0.00  0.00    +0.000 N 
ATOM     21  C   UNL     1       4.176   4.922  17.080  0.00  0.00    +0.000 C 
ATOM     22  H   UNL     1       0.906  10.266  21.994  0.00  0.00    +0.000 HD
ENDROOT
BRANCH  16  23
ATOM     23  O   UNL     1       1.548   2.239  22.441  0.00  0.00    +0.000 OA
ATOM     24  H   UNL     1       1.788   1.304  22.318  0.00  0.00    +0.000 HD
ENDBRANCH  16  23
BRANCH   5  25
ATOM     25  C   UNL     1      -0.859  11.092  21.355  0.00  0.00    +0.000 C 
BRANCH  25  26
ATOM     26  C   UNL     1      -1.250  11.126  22.836  0.00  0.00    +0.000 C 
BRANCH  26  27
ATOM     27  C   UNL     1      -2.067  12.366  23.195  0.00  0.00    +0.000 C 
BRANCH  27  28
ATOM     28  N   UNL     1      -3.520  12.107  23.251  0.00  0.00    +0.000 NA
ATOM     29  C   UNL     1      -4.128  12.559  24.505  0.00  0.00    +0.000 C 
ATOM     30  C   UNL     1      -4.181  12.767  22.122  0.00  0.00    +0.000 C 
ENDBRANCH  27  28
ENDBRANCH  26  27
ENDBRANCH  25  26
ENDBRANCH   5  25
TORSDOF 5
ENDMDL
MODEL 7
REMARK VINA RESULT:      -6.2      3.562      8.743
REMARK  Name = 
REMARK  10 active torsions:
REMARK  status: ('A' for Active; 'I' for Inactive)
REMARK    1  A    between atoms: C_1  and  C_2
REMARK    2  A    between atoms: N_5  and  C_6
REMARK    3  A    between atoms: C_6  and  C_7
REMARK    4  A    between atoms: C_7  and  C_8
REMARK    5  A    between atoms: C_8  and  N_9
REMARK    6  A    between atoms: N_9  and  C_10
REMARK    7  A    between atoms: N_9  and  C_11
REMARK    8  A    between atoms: C_16  and  C_17
REMARK    9  A    between atoms: C_22  and  O_23
REMARK   10  A    between atoms: N_27  and  C_28
REMARK                            x       y       z     vdW  Elec       q    Type
REMARK                         _______ _______ _______ _____ _____    ______ ____
ROOT
ATOM      1  C   UNL     1      -0.166   8.416  21.863  0.00  0.00    +0.000 C 
ATOM      2  C   UNL     1       0.496   9.148  20.720  0.00  0.00    +0.000 A 
ATOM      3  C   UNL     1       1.405   8.525  19.766  0.00  0.00    +0.000 A 
ATOM      4  C   UNL     1       1.840   7.143  19.758  0.00  0.00    +0.000 A 
ATOM      5  N   UNL     1       1.314   6.232  20.676  0.00  0.00    +0.000 N 
ATOM      6  N   UNL     1       2.672   6.599  18.844  0.00  0.00    +0.000 NA
ATOM      7  C   UNL     1       3.159   7.413  17.904  0.00  0.00    +0.000 A 
ATOM      8  C   UNL     1       2.848   8.752  17.828  0.00  0.00    +0.000 A 
ATOM      9  C   UNL     1       1.966   9.356  18.750  0.00  0.00    +0.000 A 
ATOM     10  C   UNL     1       1.665  10.760  18.653  0.00  0.00    +0.000 A 
ATOM     11  C   UNL     1       2.281  11.638  17.587  0.00  0.00    +0.000 C 
ATOM     12  C   UNL     1       0.758  11.312  19.604  0.00  0.00    +0.000 A 
ATOM     13  C   UNL     1       0.177  10.539  20.604  0.00  0.00    +0.000 A 
ATOM     14  C   UNL     1      -0.700  11.400  21.374  0.00  0.00    +0.000 A 
ATOM     15  C   UNL     1      -1.563  11.204  22.487  0.00  0.00    +0.000 A 
ATOM     16  C   UNL     1      -2.283  12.270  23.015  0.00  0.00    +0.000 A 
ATOM     17  C   UNL     1      -2.180  13.533  22.470  0.00  0.00    +0.000 A 
ATOM     18  C   UNL     1      -1.346  13.760  21.372  0.00  0.00    +0.000 A 
ATOM     19  C   UNL     1      -0.614  12.675  20.836  0.00  0.00    +0.000 A 
ATOM     20  N   UNL     1       0.269  12.611  19.775  0.00  0.00    +0.000 N 
ATOM     21  C   UNL     1       0.613  13.758  18.966  0.00  0.00    +0.000 C 
ATOM     22  H   UNL     1       0.425   5.912  20.312  0.00  0.00    +0.000 HD
ENDROOT
BRANCH  16  23
ATOM     23  O   UNL     1      -3.111  12.100  24.087  0.00  0.00    +0.000 OA
ATOM     24  H   UNL     1      -2.831  12.704  24.797  0.00  0.00    +0.000 HD
ENDBRANCH  16  23
BRANCH   5  25
ATOM     25  C   UNL     1       2.139   5.109  21.101  0.00  0.00    +0.000 C 
BRANCH  25  26
ATOM     26  C   UNL     1       1.356   3.838  20.753  0.00  0.00    +0.000 C 
BRANCH  26  27
ATOM     27  C   UNL     1       2.274   2.662  20.420  0.00  0.00    +0.000 C 
BRANCH  27  28
ATOM     28  N   UNL     1       2.090   2.155  19.045  0.00  0.00    +0.000 NA
ATOM     29  C   UNL     1       1.552   3.167  18.134  0.00  0.00    +0.000 C 
ATOM     30  C   UNL     1       3.371   1.665  18.528  0.00  0.00    +0.000 C 
ENDBRANCH  27  28
ENDBRANCH  26  27
ENDBRANCH  25  26
ENDBRANCH   5  25
TORSDOF 5
ENDMDL
MODEL 8
REMARK VINA RESULT:      -6.2      2.743      7.622
REMARK  Name = 
REMARK  10 active torsions:
REMARK  status: ('A' for Active; 'I' for Inactive)
REMARK    1  A    between atoms: C_1  and  C_2
REMARK    2  A    between atoms: N_5  and  C_6
REMARK    3  A    between atoms: C_6  and  C_7
REMARK    4  A    between atoms: C_7  and  C_8
REMARK    5  A    between atoms: C_8  and  N_9
REMARK    6  A    between atoms: N_9  and  C_10
REMARK    7  A    between atoms: N_9  and  C_11
REMARK    8  A    between atoms: C_16  and  C_17
REMARK    9  A    between atoms: C_22  and  O_23
REMARK   10  A    between atoms: N_27  and  C_28
REMARK                            x       y       z     vdW  Elec       q    Type
REMARK                         _______ _______ _______ _____ _____    ______ ____
ROOT
ATOM      1  C   UNL     1       4.083   7.374  16.451  0.00  0.00    +0.000 C 
ATOM      2  C   UNL     1       3.491   6.609  17.611  0.00  0.00    +0.000 A 
ATOM      3  C   UNL     1       3.702   5.186  17.847  0.00  0.00    +0.000 A 
ATOM      4  C   UNL     1       4.472   4.276  17.023  0.00  0.00    +0.000 A 
ATOM      5  N   UNL     1       5.183   4.752  15.920  0.00  0.00    +0.000 N 
ATOM      6  N   UNL     1       4.658   2.965  17.284  0.00  0.00    +0.000 NA
ATOM      7  C   UNL     1       4.049   2.467  18.364  0.00  0.00    +0.000 A 
ATOM      8  C   UNL     1       3.262   3.223  19.204  0.00  0.00    +0.000 A 
ATOM      9  C   UNL     1       3.059   4.602  18.979  0.00  0.00    +0.000 A 
ATOM     10  C   UNL     1       2.225   5.367  19.868  0.00  0.00    +0.000 A 
ATOM     11  C   UNL     1       1.530   4.735  21.054  0.00  0.00    +0.000 C 
ATOM     12  C   UNL     1       2.067   6.757  19.598  0.00  0.00    +0.000 A 
ATOM     13  C   UNL     1       2.684   7.373  18.514  0.00  0.00    +0.000 A 
ATOM     14  C   UNL     1       2.333   8.780  18.547  0.00  0.00    +0.000 A 
ATOM     15  C   UNL     1       2.654   9.906  17.741  0.00  0.00    +0.000 A 
ATOM     16  C   UNL     1       2.131  11.160  18.042  0.00  0.00    +0.000 A 
ATOM     17  C   UNL     1       1.297  11.336  19.126  0.00  0.00    +0.000 A 
ATOM     18  C   UNL     1       0.965  10.252  19.943  0.00  0.00    +0.000 A 
ATOM     19  C   UNL     1       1.497   8.979  19.636  0.00  0.00    +0.000 A 
ATOM     20  N   UNL     1       1.342   7.755  20.258  0.00  0.00    +0.000 N 
ATOM     21  C   UNL     1       0.530   7.569  21.439  0.00  0.00    +0.000 C 
ATOM     22  H   UNL     1       6.061   5.122  16.261  0.00  0.00    +0.000 HD
ENDROOT
BRANCH  16  23
ATOM     23  O   UNL     1       2.425  12.249  17.274  0.00  0.00    +0.000 OA
ATOM     24  H   UNL     1       3.224  12.677  17.631  0.00  0.00    +0.000 HD
ENDBRANCH  16  23
BRANCH   5  25
ATOM     25  C   UNL     1       5.396   3.863  14.785  0.00  0.00    +0.000 C 
BRANCH  25  26
ATOM     26  C   UNL     1       6.429   4.549  13.884  0.00  0.00    +0.000 C 
BRANCH  26  27
ATOM     27  C   UNL     1       6.572   3.855  12.530  0.00  0.00    +0.000 C 
BRANCH  27  28
ATOM     28  N   UNL     1       5.481   2.901  12.249  0.00  0.00    +0.000 NA
ATOM     29  C   UNL     1       4.388   3.500  11.480  0.00  0.00    +0.000 C 
ATOM     30  C   UNL     1       6.014   1.746  11.522  0.00  0.00    +0.000 C 
ENDBRANCH  27  28
ENDBRANCH  26  27
ENDBRANCH  25  26
ENDBRANCH   5  25
TORSDOF 5
ENDMDL
MODEL 9
REMARK VINA RESULT:      -6.2      7.844     11.553
REMARK  Name = 
REMARK  10 active torsions:
REMARK  status: ('A' for Active; 'I' for Inactive)
REMARK    1  A    between atoms: C_1  and  C_2
REMARK    2  A    between atoms: N_5  and  C_6
REMARK    3  A    between atoms: C_6  and  C_7
REMARK    4  A    between atoms: C_7  and  C_8
REMARK    5  A    between atoms: C_8  and  N_9
REMARK    6  A    between atoms: N_9  and  C_10
REMARK    7  A    between atoms: N_9  and  C_11
REMARK    8  A    between atoms: C_16  and  C_17
REMARK    9  A    between atoms: C_22  and  O_23
REMARK   10  A    between atoms: N_27  and  C_28
REMARK                            x       y       z     vdW  Elec       q    Type
REMARK                         _______ _______ _______ _____ _____    ______ ____
ROOT
ATOM      1  C   UNL     1       7.523  13.664  17.367  0.00  0.00    +0.000 C 
ATOM      2  C   UNL     1       7.747  14.945  18.134  0.00  0.00    +0.000 A 
ATOM      3  C   UNL     1       9.051  15.564  18.334  0.00  0.00    +0.000 A 
ATOM      4  C   UNL     1      10.329  15.062  17.869  0.00  0.00    +0.000 A 
ATOM      5  N   UNL     1      10.389  13.919  17.069  0.00  0.00    +0.000 N 
ATOM      6  N   UNL     1      11.516  15.673  18.061  0.00  0.00    +0.000 NA
ATOM      7  C   UNL     1      11.511  16.806  18.770  0.00  0.00    +0.000 A 
ATOM      8  C   UNL     1      10.367  17.363  19.294  0.00  0.00    +0.000 A 
ATOM      9  C   UNL     1       9.102  16.767  19.099  0.00  0.00    +0.000 A 
ATOM     10  C   UNL     1       7.922  17.366  19.666  0.00  0.00    +0.000 A 
ATOM     11  C   UNL     1       7.987  18.630  20.494  0.00  0.00    +0.000 C 
ATOM     12  C   UNL     1       6.671  16.727  19.426  0.00  0.00    +0.000 A 
ATOM     13  C   UNL     1       6.572  15.559  18.676  0.00  0.00    +0.000 A 
ATOM     14  C   UNL     1       5.169  15.195  18.610  0.00  0.00    +0.000 A 
ATOM     15  C   UNL     1       4.442  14.141  17.994  0.00  0.00    +0.000 A 
ATOM     16  C   UNL     1       3.060  14.064  18.133  0.00  0.00    +0.000 A 
ATOM     17  C   UNL     1       2.369  15.007  18.864  0.00  0.00    +0.000 A 
ATOM     18  C   UNL     1       3.052  16.060  19.479  0.00  0.00    +0.000 A 
ATOM     19  C   UNL     1       4.457  16.137  19.337  0.00  0.00    +0.000 A 
ATOM     20  N   UNL     1       5.371  17.050  19.826  0.00  0.00    +0.000 N 
ATOM     21  C   UNL     1       4.993  18.185  20.638  0.00  0.00    +0.000 C 
ATOM     22  H   UNL     1      10.200  14.204  16.116  0.00  0.00    +0.000 HD
ENDROOT
BRANCH  16  23
ATOM     23  O   UNL     1       2.348  13.054  17.552  0.00  0.00    +0.000 OA
ATOM     24  H   UNL     1       1.775  13.433  16.862  0.00  0.00    +0.000 HD
ENDBRANCH  16  23
BRANCH   5  25
ATOM     25  C   UNL     1      11.577  13.077  17.136  0.00  0.00    +0.000 C 
BRANCH  25  26
ATOM     26  C   UNL     1      11.127  11.738  17.732  0.00  0.00    +0.000 C 
BRANCH  26  27
ATOM     27  C   UNL     1      10.763  11.853  19.212  0.00  0.00    +0.000 C 
BRANCH  27  28
ATOM     28  N   UNL     1       9.390  11.396  19.508  0.00  0.00    +0.000 NA
ATOM     29  C   UNL     1       9.012  10.205  18.744  0.00  0.00    +0.000 C 
ATOM     30  C   UNL     1       9.265  11.118  20.941  0.00  0.00    +0.000 C 
ENDBRANCH  27  28
ENDBRANCH  26  27
ENDBRANCH  25  26
ENDBRANCH   5  25
TORSDOF 5
ENDMDL
