MODEL 1
REMARK VINA RESULT:      -6.4      0.000      0.000
REMARK  Name = 
REMARK  4 active torsions:
REMARK  status: ('A' for Active; 'I' for Inactive)
REMARK    1  A    between atoms: C_2  and  C_3
REMARK    2  A    between atoms: C_3  and  N_4
REMARK    3  A    between atoms: N_9  and  C_10
REMARK    4  A    between atoms: N_13  and  C_14
REMARK                            x       y       z     vdW  Elec       q    Type
REMARK                         _______ _______ _______ _____ _____    ______ ____
ROOT
ATOM      1  N   UNL     1      -3.970  12.429  19.533  0.00  0.00    +0.000 N 
ATOM      2  C   UNL     1      -3.207  12.762  20.635  0.00  0.00    +0.000 A 
ATOM      3  O   UNL     1      -3.567  13.582  21.476  0.00  0.00    +0.000 OA
ATOM      4  C   UNL     1      -1.904  12.031  20.834  0.00  0.00    +0.000 A 
ATOM      5  O   UNL     1      -1.463  12.101  21.973  0.00  0.00    +0.000 OA
ATOM      6  N   UNL     1      -1.317  11.353  19.761  0.00  0.00    +0.000 N 
ATOM      7  C   UNL     1      -2.126  11.096  18.585  0.00  0.00    +0.000 A 
ATOM      8  C   UNL     1      -1.664  10.313  17.507  0.00  0.00    +0.000 A 
ATOM      9  C   UNL     1      -2.470  10.030  16.399  0.00  0.00    +0.000 A 
ATOM     10  C   UNL     1      -3.761  10.519  16.338  0.00  0.00    +0.000 A 
ATOM     11  C   UNL     1      -4.250  11.295  17.383  0.00  0.00    +0.000 A 
ATOM     12  C   UNL     1      -3.454  11.597  18.505  0.00  0.00    +0.000 A 
ENDROOT
BRANCH   6  13
ATOM     13  C   UNL     1       0.082  10.829  19.887  0.00  0.00    +0.000 C 
ATOM     14  C   UNL     1       0.891  11.340  21.076  0.00  0.00    +0.000 C 
ATOM     15  C   UNL     1       1.616  12.665  20.854  0.00  0.00    +0.000 C 
ATOM     16  N   UNL     1       2.241  12.928  19.532  0.00  0.00    +0.000 NA
ATOM     17  C   UNL     1       1.525  12.329  18.394  0.00  0.00    +0.000 C 
ATOM     18  C   UNL     1       0.941  10.941  18.625  0.00  0.00    +0.000 C 
BRANCH  16  19
ATOM     19  C   UNL     1       2.406  14.426  19.357  0.00  0.00    +0.000 C 
ATOM     20  C   UNL     1       2.949  15.033  20.674  0.00  0.00    +0.000 C 
ATOM     21  C   UNL     1       3.020  16.557  20.755  0.00  0.00    +0.000 C 
ATOM     22  C   UNL     1       4.088  17.291  19.947  0.00  0.00    +0.000 C 
ATOM     23  C   UNL     1       5.420  16.561  19.780  0.00  0.00    +0.000 C 
ATOM     24  C   UNL     1       5.588  15.856  18.433  0.00  0.00    +0.000 C 
ATOM     25  C   UNL     1       4.731  14.609  18.191  0.00  0.00    +0.000 C 
ATOM     26  C   UNL     1       3.229  14.873  18.119  0.00  0.00    +0.000 C 
ENDBRANCH  16  19
ENDBRANCH   6  13
BRANCH   1  27
ATOM     27  C   UNL     1      -5.359  12.877  19.588  0.00  0.00    +0.000 C 
BRANCH  27  29
ATOM     28  N   UNL     1      -6.857  11.214  20.985  0.00  0.00    +0.000 NA
ATOM     29  C   UNL     1      -6.193  11.937  20.363  0.00  0.00    +0.000 C 
ENDBRANCH  27  29
ENDBRANCH   1  27
TORSDOF 4
ENDMDL
MODEL 2
REMARK VINA RESULT:      -6.3      1.903      2.567
REMARK  Name = 
REMARK  4 active torsions:
REMARK  status: ('A' for Active; 'I' for Inactive)
REMARK    1  A    between atoms: C_2  and  C_3
REMARK    2  A    between atoms: C_3  and  N_4
REMARK    3  A    between atoms: N_9  and  C_10
REMARK    4  A    between atoms: N_13  and  C_14
REMARK                            x       y       z     vdW  Elec       q    Type
REMARK                         _______ _______ _______ _____ _____    ______ ____
ROOT
ATOM      1  N   UNL     1      -4.621  12.913  20.355  0.00  0.00    +0.000 N 
ATOM      2  C   UNL     1      -3.778  13.127  21.428  0.00  0.00    +0.000 A 
ATOM      3  O   UNL     1      -4.090  13.809  22.400  0.00  0.00    +0.000 OA
ATOM      4  C   UNL     1      -2.440  12.433  21.418  0.00  0.00    +0.000 A 
ATOM      5  O   UNL     1      -1.905  12.367  22.516  0.00  0.00    +0.000 OA
ATOM      6  N   UNL     1      -1.925  11.933  20.217  0.00  0.00    +0.000 N 
ATOM      7  C   UNL     1      -2.824  11.804  19.086  0.00  0.00    +0.000 A 
ATOM      8  C   UNL     1      -2.430  11.196  17.876  0.00  0.00    +0.000 A 
ATOM      9  C   UNL     1      -3.319  11.031  16.808  0.00  0.00    +0.000 A 
ATOM     10  C   UNL     1      -4.626  11.466  16.919  0.00  0.00    +0.000 A 
ATOM     11  C   UNL     1      -5.047  12.071  18.098  0.00  0.00    +0.000 A 
ATOM     12  C   UNL     1      -4.168  12.253  19.184  0.00  0.00    +0.000 A 
ENDROOT
BRANCH   6  13
ATOM     13  C   UNL     1      -0.505  11.458  20.157  0.00  0.00    +0.000 C 
ATOM     14  C   UNL     1       0.407  11.902  21.298  0.00  0.00    +0.000 C 
ATOM     15  C   UNL     1       1.061  13.270  21.119  0.00  0.00    +0.000 C 
ATOM     16  N   UNL     1       1.537  13.667  19.769  0.00  0.00    +0.000 NA
ATOM     17  C   UNL     1       0.726  13.134  18.661  0.00  0.00    +0.000 C 
ATOM     18  C   UNL     1       0.215  11.710  18.829  0.00  0.00    +0.000 C 
BRANCH  16  19
ATOM     19  C   UNL     1       1.635  15.179  19.708  0.00  0.00    +0.000 C 
ATOM     20  C   UNL     1       1.887  15.612  18.244  0.00  0.00    +0.000 C 
ATOM     21  C   UNL     1       2.187  17.090  18.001  0.00  0.00    +0.000 C 
ATOM     22  C   UNL     1       1.055  18.107  18.133  0.00  0.00    +0.000 C 
ATOM     23  C   UNL     1      -0.330  17.622  17.710  0.00  0.00    +0.000 C 
ATOM     24  C   UNL     1      -1.234  17.202  18.872  0.00  0.00    +0.000 C 
ATOM     25  C   UNL     1      -0.866  15.908  19.604  0.00  0.00    +0.000 C 
ATOM     26  C   UNL     1       0.460  15.958  20.359  0.00  0.00    +0.000 C 
ENDBRANCH  16  19
ENDBRANCH   6  13
BRANCH   1  27
ATOM     27  C   UNL     1      -6.014  13.289  20.583  0.00  0.00    +0.000 C 
BRANCH  27  29
ATOM     28  N   UNL     1      -7.381  11.299  21.645  0.00  0.00    +0.000 NA
ATOM     29  C   UNL     1      -6.774  12.178  21.188  0.00  0.00    +0.000 C 
ENDBRANCH  27  29
ENDBRANCH   1  27
TORSDOF 4
ENDMDL
MODEL 3
REMARK VINA RESULT:      -6.3      1.510      2.000
REMARK  Name = 
REMARK  4 active torsions:
REMARK  status: ('A' for Active; 'I' for Inactive)
REMARK    1  A    between atoms: C_2  and  C_3
REMARK    2  A    between atoms: C_3  and  N_4
REMARK    3  A    between atoms: N_9  and  C_10
REMARK    4  A    between atoms: N_13  and  C_14
REMARK                            x       y       z     vdW  Elec       q    Type
REMARK                         _______ _______ _______ _____ _____    ______ ____
ROOT
ATOM      1  N   UNL     1      -4.447  12.299  19.338  0.00  0.00    +0.000 N 
ATOM      2  C   UNL     1      -3.891  12.902  20.449  0.00  0.00    +0.000 A 
ATOM      3  O   UNL     1      -4.499  13.709  21.148  0.00  0.00    +0.000 OA
ATOM      4  C   UNL     1      -2.496  12.493  20.845  0.00  0.00    +0.000 A 
ATOM      5  O   UNL     1      -2.203  12.775  21.998  0.00  0.00    +0.000 OA
ATOM      6  N   UNL     1      -1.671  11.849  19.916  0.00  0.00    +0.000 N 
ATOM      7  C   UNL     1      -2.280  11.303  18.719  0.00  0.00    +0.000 A 
ATOM      8  C   UNL     1      -1.554  10.530  17.789  0.00  0.00    +0.000 A 
ATOM      9  C   UNL     1      -2.162   9.966  16.662  0.00  0.00    +0.000 A 
ATOM     10  C   UNL     1      -3.512  10.157  16.434  0.00  0.00    +0.000 A 
ATOM     11  C   UNL     1      -4.257  10.914  17.330  0.00  0.00    +0.000 A 
ATOM     12  C   UNL     1      -3.665  11.496  18.467  0.00  0.00    +0.000 A 
ENDROOT
BRANCH   6  13
ATOM     13  C   UNL     1      -0.216  11.654  20.223  0.00  0.00    +0.000 C 
ATOM     14  C   UNL     1       0.394  12.610  21.245  0.00  0.00    +0.000 C 
ATOM     15  C   UNL     1       0.891  13.940  20.682  0.00  0.00    +0.000 C 
ATOM     16  N   UNL     1       1.563  13.952  19.357  0.00  0.00    +0.000 NA
ATOM     17  C   UNL     1       1.055  12.944  18.412  0.00  0.00    +0.000 C 
ATOM     18  C   UNL     1       0.707  11.585  19.004  0.00  0.00    +0.000 C 
BRANCH  16  19
ATOM     19  C   UNL     1       1.477  15.351  18.777  0.00  0.00    +0.000 C 
ATOM     20  C   UNL     1       0.165  16.018  19.255  0.00  0.00    +0.000 C 
ATOM     21  C   UNL     1      -0.189  17.370  18.638  0.00  0.00    +0.000 C 
ATOM     22  C   UNL     1       0.615  18.603  19.045  0.00  0.00    +0.000 C 
ATOM     23  C   UNL     1       1.110  18.630  20.490  0.00  0.00    +0.000 C 
ATOM     24  C   UNL     1       2.575  18.224  20.663  0.00  0.00    +0.000 C 
ATOM     25  C   UNL     1       2.917  16.748  20.442  0.00  0.00    +0.000 C 
ATOM     26  C   UNL     1       2.717  16.255  19.010  0.00  0.00    +0.000 C 
ENDBRANCH  16  19
ENDBRANCH   6  13
BRANCH   1  27
ATOM     27  C   UNL     1      -5.896  12.441  19.220  0.00  0.00    +0.000 C 
BRANCH  27  29
ATOM     28  N   UNL     1      -7.139  10.537  20.556  0.00  0.00    +0.000 NA
ATOM     29  C   UNL     1      -6.598  11.373  19.958  0.00  0.00    +0.000 C 
ENDBRANCH  27  29
ENDBRANCH   1  27
TORSDOF 4
ENDMDL
MODEL 4
REMARK VINA RESULT:      -6.3      4.294      7.143
REMARK  Name = 
REMARK  4 active torsions:
REMARK  status: ('A' for Active; 'I' for Inactive)
REMARK    1  A    between atoms: C_2  and  C_3
REMARK    2  A    between atoms: C_3  and  N_4
REMARK    3  A    between atoms: N_9  and  C_10
REMARK    4  A    between atoms: N_13  and  C_14
REMARK                            x       y       z     vdW  Elec       q    Type
REMARK                         _______ _______ _______ _____ _____    ______ ____
ROOT
ATOM      1  N   UNL     1      -2.848  11.104  18.324  0.00  0.00    +0.000 N 
ATOM      2  C   UNL     1      -2.024  10.181  17.710  0.00  0.00    +0.000 A 
ATOM      3  O   UNL     1      -2.389   9.477  16.771  0.00  0.00    +0.000 OA
ATOM      4  C   UNL     1      -0.596  10.091  18.183  0.00  0.00    +0.000 A 
ATOM      5  O   UNL     1       0.156   9.539  17.392  0.00  0.00    +0.000 OA
ATOM      6  N   UNL     1      -0.243  10.618  19.430  0.00  0.00    +0.000 N 
ATOM      7  C   UNL     1      -1.174  11.517  20.084  0.00  0.00    +0.000 A 
ATOM      8  C   UNL     1      -0.854  12.195  21.279  0.00  0.00    +0.000 A 
ATOM      9  C   UNL     1      -1.740  13.099  21.876  0.00  0.00    +0.000 A 
ATOM     10  C   UNL     1      -2.968  13.353  21.295  0.00  0.00    +0.000 A 
ATOM     11  C   UNL     1      -3.316  12.701  20.117  0.00  0.00    +0.000 A 
ATOM     12  C   UNL     1      -2.443  11.783  19.502  0.00  0.00    +0.000 A 
ENDROOT
BRANCH   6  13
ATOM     13  C   UNL     1       1.110  10.324  20.005  0.00  0.00    +0.000 C 
ATOM     14  C   UNL     1       2.156   9.784  19.034  0.00  0.00    +0.000 C 
ATOM     15  C   UNL     1       2.133   8.272  18.822  0.00  0.00    +0.000 C 
ATOM     16  N   UNL     1       1.866   7.388  19.985  0.00  0.00    +0.000 NA
ATOM     17  C   UNL     1       0.951   7.963  20.985  0.00  0.00    +0.000 C 
ATOM     18  C   UNL     1       1.111   9.452  21.263  0.00  0.00    +0.000 C 
BRANCH  16  19
ATOM     19  C   UNL     1       1.365   6.049  19.480  0.00  0.00    +0.000 C 
ATOM     20  C   UNL     1       2.307   5.546  18.359  0.00  0.00    +0.000 C 
ATOM     21  C   UNL     1       1.873   4.293  17.601  0.00  0.00    +0.000 C 
ATOM     22  C   UNL     1       1.949   2.940  18.305  0.00  0.00    +0.000 C 
ATOM     23  C   UNL     1       3.099   2.765  19.295  0.00  0.00    +0.000 C 
ATOM     24  C   UNL     1       2.702   2.952  20.761  0.00  0.00    +0.000 C 
ATOM     25  C   UNL     1       2.364   4.376  21.212  0.00  0.00    +0.000 C 
ATOM     26  C   UNL     1       1.114   4.969  20.566  0.00  0.00    +0.000 C 
ENDBRANCH  16  19
ENDBRANCH   6  13
BRANCH   1  27
ATOM     27  C   UNL     1      -4.077  11.413  17.597  0.00  0.00    +0.000 C 
BRANCH  27  29
ATOM     28  N   UNL     1      -6.182  10.316  18.746  0.00  0.00    +0.000 NA
ATOM     29  C   UNL     1      -5.249  10.789  18.241  0.00  0.00    +0.000 C 
ENDBRANCH  27  29
ENDBRANCH   1  27
TORSDOF 4
ENDMDL
MODEL 5
REMARK VINA RESULT:      -6.2      1.904      2.616
REMARK  Name = 
REMARK  4 active torsions:
REMARK  status: ('A' for Active; 'I' for Inactive)
REMARK    1  A    between atoms: C_2  and  C_3
REMARK    2  A    between atoms: C_3  and  N_4
REMARK    3  A    between atoms: N_9  and  C_10
REMARK    4  A    between atoms: N_13  and  C_14
REMARK                            x       y       z     vdW  Elec       q    Type
REMARK                         _______ _______ _______ _____ _____    ______ ____
ROOT
ATOM      1  N   UNL     1      -4.368  12.560  19.820  0.00  0.00    +0.000 N 
ATOM      2  C   UNL     1      -3.618  12.868  20.938  0.00  0.00    +0.000 A 
ATOM      3  O   UNL     1      -4.038  13.570  21.854  0.00  0.00    +0.000 OA
ATOM      4  C   UNL     1      -2.246  12.256  21.053  0.00  0.00    +0.000 A 
ATOM      5  O   UNL     1      -1.788  12.268  22.187  0.00  0.00    +0.000 OA
ATOM      6  N   UNL     1      -1.618  11.739  19.914  0.00  0.00    +0.000 N 
ATOM      7  C   UNL     1      -2.424  11.509  18.730  0.00  0.00    +0.000 A 
ATOM      8  C   UNL     1      -1.910  10.876  17.580  0.00  0.00    +0.000 A 
ATOM      9  C   UNL     1      -2.709  10.614  16.461  0.00  0.00    +0.000 A 
ATOM     10  C   UNL     1      -4.043  10.975  16.462  0.00  0.00    +0.000 A 
ATOM     11  C   UNL     1      -4.582  11.601  17.580  0.00  0.00    +0.000 A 
ATOM     12  C   UNL     1      -3.796  11.880  18.714  0.00  0.00    +0.000 A 
ENDROOT
BRANCH   6  13
ATOM     13  C   UNL     1      -0.172  11.347  19.975  0.00  0.00    +0.000 C 
ATOM     14  C   UNL     1       0.614  11.846  21.183  0.00  0.00    +0.000 C 
ATOM     15  C   UNL     1       1.201  13.250  21.049  0.00  0.00    +0.000 C 
ATOM     16  N   UNL     1       1.762  13.670  19.739  0.00  0.00    +0.000 NA
ATOM     17  C   UNL     1       1.078  13.088  18.573  0.00  0.00    +0.000 C 
ATOM     18  C   UNL     1       0.638  11.637  18.709  0.00  0.00    +0.000 C 
BRANCH  16  19
ATOM     19  C   UNL     1       1.777  15.186  19.676  0.00  0.00    +0.000 C 
ATOM     20  C   UNL     1       1.950  15.629  18.203  0.00  0.00    +0.000 C 
ATOM     21  C   UNL     1       2.162  17.121  17.950  0.00  0.00    +0.000 C 
ATOM     22  C   UNL     1       0.982  18.075  18.125  0.00  0.00    +0.000 C 
ATOM     23  C   UNL     1      -0.390  17.517  17.755  0.00  0.00    +0.000 C 
ATOM     24  C   UNL     1      -1.225  17.052  18.949  0.00  0.00    +0.000 C 
ATOM     25  C   UNL     1      -0.762  15.780  19.666  0.00  0.00    +0.000 C 
ATOM     26  C   UNL     1       0.587  15.901  20.371  0.00  0.00    +0.000 C 
ENDBRANCH  16  19
ENDBRANCH   6  13
BRANCH   1  27
ATOM     27  C   UNL     1      -5.793  12.861  19.933  0.00  0.00    +0.000 C 
BRANCH  27  29
ATOM     28  N   UNL     1      -6.328  15.335  19.191  0.00  0.00    +0.000 NA
ATOM     29  C   UNL     1      -6.081  14.246  19.514  0.00  0.00    +0.000 C 
ENDBRANCH  27  29
ENDBRANCH   1  27
TORSDOF 4
ENDMDL
MODEL 6
REMARK VINA RESULT:      -6.0      3.181      4.236
REMARK  Name = 
REMARK  4 active torsions:
REMARK  status: ('A' for Active; 'I' for Inactive)
REMARK    1  A    between atoms: C_2  and  C_3
REMARK    2  A    between atoms: C_3  and  N_4
REMARK    3  A    between atoms: N_9  and  C_10
REMARK    4  A    between atoms: N_13  and  C_14
REMARK                            x       y       z     vdW  Elec       q    Type
REMARK                         _______ _______ _______ _____ _____    ______ ____
ROOT
ATOM      1  N   UNL     1      -5.310  12.101  19.352  0.00  0.00    +0.000 N 
ATOM      2  C   UNL     1      -4.881  12.668  20.537  0.00  0.00    +0.000 A 
ATOM      3  O   UNL     1      -5.649  13.151  21.365  0.00  0.00    +0.000 OA
ATOM      4  C   UNL     1      -3.406  12.626  20.840  0.00  0.00    +0.000 A 
ATOM      5  O   UNL     1      -3.135  12.806  22.019  0.00  0.00    +0.000 OA
ATOM      6  N   UNL     1      -2.490  12.393  19.808  0.00  0.00    +0.000 N 
ATOM      7  C   UNL     1      -2.991  11.878  18.548  0.00  0.00    +0.000 A 
ATOM      8  C   UNL     1      -2.135  11.495  17.496  0.00  0.00    +0.000 A 
ATOM      9  C   UNL     1      -2.625  10.952  16.303  0.00  0.00    +0.000 A 
ATOM     10  C   UNL     1      -3.985  10.776  16.129  0.00  0.00    +0.000 A 
ATOM     11  C   UNL     1      -4.859  11.144  17.147  0.00  0.00    +0.000 A 
ATOM     12  C   UNL     1      -4.387  11.697  18.353  0.00  0.00    +0.000 A 
ENDROOT
BRANCH   6  13
ATOM     13  C   UNL     1      -1.024  12.584  20.057  0.00  0.00    +0.000 C 
ATOM     14  C   UNL     1      -0.519  12.207  21.447  0.00  0.00    +0.000 C 
ATOM     15  C   UNL     1      -0.642  13.299  22.507  0.00  0.00    +0.000 C 
ATOM     16  N   UNL     1      -0.373  14.708  22.121  0.00  0.00    +0.000 NA
ATOM     17  C   UNL     1      -0.748  15.038  20.736  0.00  0.00    +0.000 C 
ATOM     18  C   UNL     1      -0.472  13.965  19.692  0.00  0.00    +0.000 C 
BRANCH  16  19
ATOM     19  C   UNL     1      -1.054  15.628  23.115  0.00  0.00    +0.000 C 
ATOM     20  C   UNL     1      -1.216  14.886  24.464  0.00  0.00    +0.000 C 
ATOM     21  C   UNL     1      -2.038  15.586  25.545  0.00  0.00    +0.000 C 
ATOM     22  C   UNL     1      -1.442  16.799  26.256  0.00  0.00    +0.000 C 
ATOM     23  C   UNL     1       0.071  16.773  26.469  0.00  0.00    +0.000 C 
ATOM     24  C   UNL     1       0.865  17.597  25.453  0.00  0.00    +0.000 C 
ATOM     25  C   UNL     1       0.930  17.056  24.021  0.00  0.00    +0.000 C 
ATOM     26  C   UNL     1      -0.409  17.030  23.289  0.00  0.00    +0.000 C 
ENDBRANCH  16  19
ENDBRANCH   6  13
BRANCH   1  27
ATOM     27  C   UNL     1      -6.745  11.834  19.282  0.00  0.00    +0.000 C 
BRANCH  27  29
ATOM     28  N   UNL     1      -7.398   9.671  20.643  0.00  0.00    +0.000 NA
ATOM     29  C   UNL     1      -7.100  10.624  20.050  0.00  0.00    +0.000 C 
ENDBRANCH  27  29
ENDBRANCH   1  27
TORSDOF 4
ENDMDL
MODEL 7
REMARK VINA RESULT:      -6.0      1.853      2.428
REMARK  Name = 
REMARK  4 active torsions:
REMARK  status: ('A' for Active; 'I' for Inactive)
REMARK    1  A    between atoms: C_2  and  C_3
REMARK    2  A    between atoms: C_3  and  N_4
REMARK    3  A    between atoms: N_9  and  C_10
REMARK    4  A    between atoms: N_13  and  C_14
REMARK                            x       y       z     vdW  Elec       q    Type
REMARK                         _______ _______ _______ _____ _____    ______ ____
ROOT
ATOM      1  N   UNL     1      -5.427  12.506  18.289  0.00  0.00    +0.000 N 
ATOM      2  C   UNL     1      -5.380  13.155  19.507  0.00  0.00    +0.000 A 
ATOM      3  O   UNL     1      -6.235  13.958  19.871  0.00  0.00    +0.000 OA
ATOM      4  C   UNL     1      -4.256  12.804  20.447  0.00  0.00    +0.000 A 
ATOM      5  O   UNL     1      -4.460  13.125  21.609  0.00  0.00    +0.000 OA
ATOM      6  N   UNL     1      -3.113  12.164  19.954  0.00  0.00    +0.000 N 
ATOM      7  C   UNL     1      -3.174  11.568  18.634  0.00  0.00    +0.000 A 
ATOM      8  C   UNL     1      -2.119  10.796  18.105  0.00  0.00    +0.000 A 
ATOM      9  C   UNL     1      -2.207  10.184  16.850  0.00  0.00    +0.000 A 
ATOM     10  C   UNL     1      -3.354  10.322  16.090  0.00  0.00    +0.000 A 
ATOM     11  C   UNL     1      -4.413  11.077  16.581  0.00  0.00    +0.000 A 
ATOM     12  C   UNL     1      -4.344  11.707  17.838  0.00  0.00    +0.000 A 
ENDROOT
BRANCH   6  13
ATOM     13  C   UNL     1      -1.902  12.027  20.828  0.00  0.00    +0.000 C 
ATOM     14  C   UNL     1      -1.386  13.309  21.476  0.00  0.00    +0.000 C 
ATOM     15  C   UNL     1      -0.431  14.137  20.618  0.00  0.00    +0.000 C 
ATOM     16  N   UNL     1       0.568  13.434  19.774  0.00  0.00    +0.000 NA
ATOM     17  C   UNL     1       0.112  12.136  19.250  0.00  0.00    +0.000 C 
ATOM     18  C   UNL     1      -0.721  11.285  20.199  0.00  0.00    +0.000 C 
BRANCH  16  19
ATOM     19  C   UNL     1       1.005  14.362  18.656  0.00  0.00    +0.000 C 
ATOM     20  C   UNL     1       1.226  15.781  19.233  0.00  0.00    +0.000 C 
ATOM     21  C   UNL     1       1.503  16.900  18.230  0.00  0.00    +0.000 C 
ATOM     22  C   UNL     1       2.859  16.947  17.530  0.00  0.00    +0.000 C 
ATOM     23  C   UNL     1       4.053  16.468  18.355  0.00  0.00    +0.000 C 
ATOM     24  C   UNL     1       4.498  15.037  18.050  0.00  0.00    +0.000 C 
ATOM     25  C   UNL     1       3.569  13.909  18.510  0.00  0.00    +0.000 C 
ATOM     26  C   UNL     1       2.212  13.875  17.809  0.00  0.00    +0.000 C 
ENDBRANCH  16  19
ENDBRANCH   6  13
BRANCH   1  27
ATOM     27  C   UNL     1      -6.708  12.595  17.592  0.00  0.00    +0.000 C 
BRANCH  27  29
ATOM     28  N   UNL     1      -6.833  14.799  16.148  0.00  0.00    +0.000 NA
ATOM     29  C   UNL     1      -6.789  13.826  16.781  0.00  0.00    +0.000 C 
ENDBRANCH  27  29
ENDBRANCH   1  27
TORSDOF 4
ENDMDL
MODEL 8
REMARK VINA RESULT:      -5.9      8.831     10.878
REMARK  Name = 
REMARK  4 active torsions:
REMARK  status: ('A' for Active; 'I' for Inactive)
REMARK    1  A    between atoms: C_2  and  C_3
REMARK    2  A    between atoms: C_3  and  N_4
REMARK    3  A    between atoms: N_9  and  C_10
REMARK    4  A    between atoms: N_13  and  C_14
REMARK                            x       y       z     vdW  Elec       q    Type
REMARK                         _______ _______ _______ _____ _____    ______ ____
ROOT
ATOM      1  N   UNL     1       6.589  12.466  25.737  0.00  0.00    +0.000 N 
ATOM      2  C   UNL     1       6.116  12.480  24.440  0.00  0.00    +0.000 A 
ATOM      3  O   UNL     1       5.540  11.524  23.926  0.00  0.00    +0.000 OA
ATOM      4  C   UNL     1       6.265  13.756  23.652  0.00  0.00    +0.000 A 
ATOM      5  O   UNL     1       5.532  13.827  22.676  0.00  0.00    +0.000 OA
ATOM      6  N   UNL     1       7.183  14.726  24.069  0.00  0.00    +0.000 N 
ATOM      7  C   UNL     1       7.724  14.629  25.411  0.00  0.00    +0.000 A 
ATOM      8  C   UNL     1       8.555  15.626  25.964  0.00  0.00    +0.000 A 
ATOM      9  C   UNL     1       9.031  15.547  27.277  0.00  0.00    +0.000 A 
ATOM     10  C   UNL     1       8.689  14.472  28.075  0.00  0.00    +0.000 A 
ATOM     11  C   UNL     1       7.872  13.471  27.562  0.00  0.00    +0.000 A 
ATOM     12  C   UNL     1       7.385  13.527  26.242  0.00  0.00    +0.000 A 
ENDROOT
BRANCH   6  13
ATOM     13  C   UNL     1       7.505  15.881  23.169  0.00  0.00    +0.000 C 
ATOM     14  C   UNL     1       7.228  15.678  21.682  0.00  0.00    +0.000 C 
ATOM     15  C   UNL     1       8.348  15.003  20.893  0.00  0.00    +0.000 C 
ATOM     16  N   UNL     1       9.757  15.349  21.210  0.00  0.00    +0.000 NA
ATOM     17  C   UNL     1       9.999  15.666  22.627  0.00  0.00    +0.000 C 
ATOM     18  C   UNL     1       8.910  16.466  23.331  0.00  0.00    +0.000 C 
BRANCH  16  19
ATOM     19  C   UNL     1      10.658  14.226  20.731  0.00  0.00    +0.000 C 
ATOM     20  C   UNL     1       9.853  12.904  20.713  0.00  0.00    +0.000 C 
ATOM     21  C   UNL     1      10.633  11.623  20.424  0.00  0.00    +0.000 C 
ATOM     22  C   UNL     1      11.133  11.367  19.004  0.00  0.00    +0.000 C 
ATOM     23  C   UNL     1      10.239  11.881  17.877  0.00  0.00    +0.000 C 
ATOM     24  C   UNL     1      10.691  13.210  17.269  0.00  0.00    +0.000 C 
ATOM     25  C   UNL     1      10.530  14.461  18.138  0.00  0.00    +0.000 C 
ATOM     26  C   UNL     1      11.400  14.482  19.392  0.00  0.00    +0.000 C 
ENDBRANCH  16  19
ENDBRANCH   6  13
BRANCH   1  27
ATOM     27  C   UNL     1       6.094  11.366  26.561  0.00  0.00    +0.000 C 
BRANCH  27  29
ATOM     28  N   UNL     1       3.799  12.006  27.693  0.00  0.00    +0.000 NA
ATOM     29  C   UNL     1       4.810  11.713  27.199  0.00  0.00    +0.000 C 
ENDBRANCH  27  29
ENDBRANCH   1  27
TORSDOF 4
ENDMDL
MODEL 9
REMARK VINA RESULT:      -5.9      3.657      7.829
REMARK  Name = 
REMARK  4 active torsions:
REMARK  status: ('A' for Active; 'I' for Inactive)
REMARK    1  A    between atoms: C_2  and  C_3
REMARK    2  A    between atoms: C_3  and  N_4
REMARK    3  A    between atoms: N_9  and  C_10
REMARK    4  A    between atoms: N_13  and  C_14
REMARK                            x       y       z     vdW  Elec       q    Type
REMARK                         _______ _______ _______ _____ _____    ______ ____
ROOT
ATOM      1  N   UNL     1       0.097  10.974  19.233  0.00  0.00    +0.000 N 
ATOM      2  C   UNL     1       0.132  12.311  18.890  0.00  0.00    +0.000 A 
ATOM      3  O   UNL     1       0.511  12.712  17.793  0.00  0.00    +0.000 OA
ATOM      4  C   UNL     1      -0.379  13.308  19.899  0.00  0.00    +0.000 A 
ATOM      5  O   UNL     1      -0.654  14.400  19.423  0.00  0.00    +0.000 OA
ATOM      6  N   UNL     1      -0.502  12.936  21.242  0.00  0.00    +0.000 N 
ATOM      7  C   UNL     1      -0.448  11.525  21.572  0.00  0.00    +0.000 A 
ATOM      8  C   UNL     1      -0.687  11.046  22.877  0.00  0.00    +0.000 A 
ATOM      9  C   UNL     1      -0.681   9.679  23.175  0.00  0.00    +0.000 A 
ATOM     10  C   UNL     1      -0.440   8.752  22.178  0.00  0.00    +0.000 A 
ATOM     11  C   UNL     1      -0.200   9.190  20.881  0.00  0.00    +0.000 A 
ATOM     12  C   UNL     1      -0.195  10.561  20.559  0.00  0.00    +0.000 A 
ENDROOT
BRANCH   6  13
ATOM     13  C   UNL     1      -0.781  13.981  22.280  0.00  0.00    +0.000 C 
ATOM     14  C   UNL     1      -1.658  13.552  23.453  0.00  0.00    +0.000 C 
ATOM     15  C   UNL     1      -3.163  13.660  23.220  0.00  0.00    +0.000 C 
ATOM     16  N   UNL     1      -3.689  14.821  22.457  0.00  0.00    +0.000 NA
ATOM     17  C   UNL     1      -2.786  15.313  21.405  0.00  0.00    +0.000 C 
ATOM     18  C   UNL     1      -1.301  15.316  21.742  0.00  0.00    +0.000 C 
BRANCH  16  19
ATOM     19  C   UNL     1      -5.052  14.463  21.897  0.00  0.00    +0.000 C 
ATOM     20  C   UNL     1      -5.216  12.924  21.907  0.00  0.00    +0.000 C 
ATOM     21  C   UNL     1      -6.457  12.356  21.220  0.00  0.00    +0.000 C 
ATOM     22  C   UNL     1      -7.818  12.530  21.889  0.00  0.00    +0.000 C 
ATOM     23  C   UNL     1      -7.820  12.502  23.417  0.00  0.00    +0.000 C 
ATOM     24  C   UNL     1      -7.871  13.883  24.073  0.00  0.00    +0.000 C 
ATOM     25  C   UNL     1      -6.612  14.748  23.966  0.00  0.00    +0.000 C 
ATOM     26  C   UNL     1      -6.261  15.189  22.547  0.00  0.00    +0.000 C 
ENDBRANCH  16  19
ENDBRANCH   6  13
BRANCH   1  27
ATOM     27  C   UNL     1       0.242  10.047  18.113  0.00  0.00    +0.000 C 
BRANCH  27  29
ATOM     28  N   UNL     1       2.633   8.934  18.080  0.00  0.00    +0.000 NA
ATOM     29  C   UNL     1       1.585   9.435  18.097  0.00  0.00    +0.000 C 
ENDBRANCH  27  29
ENDBRANCH   1  27
TORSDOF 4
ENDMDL
