MODEL 1
REMARK VINA RESULT:      -8.3      0.000      0.000
REMARK  Name = 
REMARK  6 active torsions:
REMARK  status: ('A' for Active; 'I' for Inactive)
REMARK    1  A    between atoms: C_1  and  C_2
REMARK    2  A    between atoms: C_2  and  C_3
REMARK    3  A    between atoms: C_6  and  C_7
REMARK    4  A    between atoms: C_10  and  N_11
REMARK    5  A    between atoms: C_12  and  O_14
REMARK    6  A    between atoms: O_14  and  C_15
REMARK                            x       y       z     vdW  Elec       q    Type
REMARK                         _______ _______ _______ _____ _____    ______ ____
ROOT
ATOM      1  C   UNL     1       8.357   8.687  18.431  0.00  0.00    +0.000 A 
ATOM      2  C   UNL     1       7.420   8.695  17.386  0.00  0.00    +0.000 A 
ATOM      3  C   UNL     1       6.728   7.540  17.008  0.00  0.00    +0.000 A 
ATOM      4  C   UNL     1       6.956   6.330  17.657  0.00  0.00    +0.000 A 
ATOM      5  C   UNL     1       7.902   6.290  18.683  0.00  0.00    +0.000 A 
ATOM      6  C   UNL     1       8.583   7.454  19.070  0.00  0.00    +0.000 A 
ENDROOT
BRANCH   1  10
ATOM      7  C   UNL     1      10.437  12.283  19.652  0.00  0.00    +0.000 A 
ATOM      8  C   UNL     1       9.874  11.427  20.602  0.00  0.00    +0.000 A 
ATOM      9  C   UNL     1       9.199  10.268  20.202  0.00  0.00    +0.000 A 
ATOM     10  C   UNL     1       9.058   9.925  18.846  0.00  0.00    +0.000 A 
ATOM     11  C   UNL     1       9.619  10.808  17.904  0.00  0.00    +0.000 A 
ATOM     12  C   UNL     1      10.308  11.960  18.300  0.00  0.00    +0.000 A 
BRANCH   7  14
ATOM     13  C   UNL     1      10.337  14.419  20.972  0.00  0.00    +0.000 C 
ATOM     14  C   UNL     1      11.183  13.517  20.087  0.00  0.00    +0.000 C 
ENDBRANCH   7  14
ENDBRANCH   1  10
BRANCH   4  15
ATOM     15  N   UNL     1       6.305   5.136  17.309  0.00  0.00    +0.000 N 
ATOM     16  C   UNL     1       5.625   4.279  18.141  0.00  0.00    +0.000 C 
ATOM     17  O   UNL     1       5.569   4.294  19.361  0.00  0.00    +0.000 OA
ATOM     18  H   UNL     1       6.200   4.925  16.324  0.00  0.00    +0.000 HD
BRANCH  16  19
ATOM     19  O   UNL     1       4.954   3.353  17.359  0.00  0.00    +0.000 OA
BRANCH  19  20
ATOM     20  C   UNL     1       3.605   3.227  17.718  0.00  0.00    +0.000 A 
ATOM     21  C   UNL     1       2.782   4.342  17.583  0.00  0.00    +0.000 A 
ATOM     22  C   UNL     1       1.475   4.289  18.075  0.00  0.00    +0.000 A 
ATOM     23  C   UNL     1       0.998   3.128  18.695  0.00  0.00    +0.000 A 
ATOM     24  C   UNL     1       1.825   2.013  18.821  0.00  0.00    +0.000 A 
ATOM     25  C   UNL     1       3.126   2.071  18.344  0.00  0.00    +0.000 A 
ATOM     26  F   UNL     1       3.930   1.016  18.542  0.00  0.00    +0.000 F 
ENDBRANCH  19  20
ENDBRANCH  16  19
ENDBRANCH   4  15
TORSDOF 5
ENDMDL
MODEL 2
REMARK VINA RESULT:      -8.1      1.021      1.711
REMARK  Name = 
REMARK  6 active torsions:
REMARK  status: ('A' for Active; 'I' for Inactive)
REMARK    1  A    between atoms: C_1  and  C_2
REMARK    2  A    between atoms: C_2  and  C_3
REMARK    3  A    between atoms: C_6  and  C_7
REMARK    4  A    between atoms: C_10  and  N_11
REMARK    5  A    between atoms: C_12  and  O_14
REMARK    6  A    between atoms: O_14  and  C_15
REMARK                            x       y       z     vdW  Elec       q    Type
REMARK                         _______ _______ _______ _____ _____    ______ ____
ROOT
ATOM      1  C   UNL     1       8.406   8.803  18.470  0.00  0.00    +0.000 A 
ATOM      2  C   UNL     1       7.439   8.845  17.454  0.00  0.00    +0.000 A 
ATOM      3  C   UNL     1       6.716   7.708  17.077  0.00  0.00    +0.000 A 
ATOM      4  C   UNL     1       6.943   6.484  17.698  0.00  0.00    +0.000 A 
ATOM      5  C   UNL     1       7.918   6.410  18.695  0.00  0.00    +0.000 A 
ATOM      6  C   UNL     1       8.630   7.555  19.081  0.00  0.00    +0.000 A 
ENDROOT
BRANCH   1  10
ATOM      7  C   UNL     1      10.518  12.385  19.674  0.00  0.00    +0.000 A 
ATOM      8  C   UNL     1      10.435  12.025  18.327  0.00  0.00    +0.000 A 
ATOM      9  C   UNL     1       9.755  10.864  17.943  0.00  0.00    +0.000 A 
ATOM     10  C   UNL     1       9.140  10.022  18.886  0.00  0.00    +0.000 A 
ATOM     11  C   UNL     1       9.248  10.394  20.239  0.00  0.00    +0.000 A 
ATOM     12  C   UNL     1       9.914  11.562  20.626  0.00  0.00    +0.000 A 
BRANCH   7  14
ATOM     13  C   UNL     1      10.831  14.838  19.222  0.00  0.00    +0.000 C 
ATOM     14  C   UNL     1      11.231  13.648  20.081  0.00  0.00    +0.000 C 
ENDBRANCH   7  14
ENDBRANCH   1  10
BRANCH   4  15
ATOM     15  N   UNL     1       6.262   5.307  17.349  0.00  0.00    +0.000 N 
ATOM     16  C   UNL     1       5.700   4.381  18.196  0.00  0.00    +0.000 C 
ATOM     17  O   UNL     1       5.801   4.307  19.411  0.00  0.00    +0.000 OA
ATOM     18  H   UNL     1       6.033   5.166  16.373  0.00  0.00    +0.000 HD
BRANCH  16  19
ATOM     19  O   UNL     1       4.941   3.502  17.441  0.00  0.00    +0.000 OA
BRANCH  19  20
ATOM     20  C   UNL     1       3.656   3.316  17.967  0.00  0.00    +0.000 A 
ATOM     21  C   UNL     1       3.317   2.051  18.441  0.00  0.00    +0.000 A 
ATOM     22  C   UNL     1       1.997   1.799  18.828  0.00  0.00    +0.000 A 
ATOM     23  C   UNL     1       1.030   2.807  18.743  0.00  0.00    +0.000 A 
ATOM     24  C   UNL     1       1.377   4.072  18.275  0.00  0.00    +0.000 A 
ATOM     25  C   UNL     1       2.684   4.318  17.878  0.00  0.00    +0.000 A 
ATOM     26  F   UNL     1       2.982   5.518  17.359  0.00  0.00    +0.000 F 
ENDBRANCH  19  20
ENDBRANCH  16  19
ENDBRANCH   4  15
TORSDOF 5
ENDMDL
MODEL 3
REMARK VINA RESULT:      -8.1      1.076      1.790
REMARK  Name = 
REMARK  6 active torsions:
REMARK  status: ('A' for Active; 'I' for Inactive)
REMARK    1  A    between atoms: C_1  and  C_2
REMARK    2  A    between atoms: C_2  and  C_3
REMARK    3  A    between atoms: C_6  and  C_7
REMARK    4  A    between atoms: C_10  and  N_11
REMARK    5  A    between atoms: C_12  and  O_14
REMARK    6  A    between atoms: O_14  and  C_15
REMARK                            x       y       z     vdW  Elec       q    Type
REMARK                         _______ _______ _______ _____ _____    ______ ____
ROOT
ATOM      1  C   UNL     1       8.428   8.950  18.534  0.00  0.00    +0.000 A 
ATOM      2  C   UNL     1       8.668   7.748  19.218  0.00  0.00    +0.000 A 
ATOM      3  C   UNL     1       8.031   6.556  18.860  0.00  0.00    +0.000 A 
ATOM      4  C   UNL     1       7.121   6.525  17.807  0.00  0.00    +0.000 A 
ATOM      5  C   UNL     1       6.845   7.713  17.127  0.00  0.00    +0.000 A 
ATOM      6  C   UNL     1       7.497   8.904  17.480  0.00  0.00    +0.000 A 
ENDROOT
BRANCH   1  10
ATOM      7  C   UNL     1      10.530  12.580  19.607  0.00  0.00    +0.000 A 
ATOM      8  C   UNL     1      10.157  11.656  20.586  0.00  0.00    +0.000 A 
ATOM      9  C   UNL     1       9.474  10.486  20.235  0.00  0.00    +0.000 A 
ATOM     10  C   UNL     1       9.136  10.200  18.901  0.00  0.00    +0.000 A 
ATOM     11  C   UNL     1       9.506  11.150  17.931  0.00  0.00    +0.000 A 
ATOM     12  C   UNL     1      10.203  12.314  18.275  0.00  0.00    +0.000 A 
BRANCH   7  14
ATOM     13  C   UNL     1      12.330  14.204  18.947  0.00  0.00    +0.000 C 
ATOM     14  C   UNL     1      11.285  13.827  19.985  0.00  0.00    +0.000 C 
ENDBRANCH   7  14
ENDBRANCH   1  10
BRANCH   4  15
ATOM     15  N   UNL     1       6.438   5.363  17.414  0.00  0.00    +0.000 N 
ATOM     16  C   UNL     1       5.783   4.463  18.220  0.00  0.00    +0.000 C 
ATOM     17  O   UNL     1       5.780   4.402  19.439  0.00  0.00    +0.000 OA
ATOM     18  H   UNL     1       6.288   5.217  16.424  0.00  0.00    +0.000 HD
BRANCH  16  19
ATOM     19  O   UNL     1       5.065   3.597  17.412  0.00  0.00    +0.000 OA
BRANCH  19  20
ATOM     20  C   UNL     1       3.744   3.427  17.850  0.00  0.00    +0.000 A 
ATOM     21  C   UNL     1       3.339   2.152  18.239  0.00  0.00    +0.000 A 
ATOM     22  C   UNL     1       1.992   1.925  18.532  0.00  0.00    +0.000 A 
ATOM     23  C   UNL     1       1.061   2.966  18.439  0.00  0.00    +0.000 A 
ATOM     24  C   UNL     1       1.474   4.240  18.055  0.00  0.00    +0.000 A 
ATOM     25  C   UNL     1       2.809   4.463  17.752  0.00  0.00    +0.000 A 
ATOM     26  F   UNL     1       3.174   5.676  17.312  0.00  0.00    +0.000 F 
ENDBRANCH  19  20
ENDBRANCH  16  19
ENDBRANCH   4  15
TORSDOF 5
ENDMDL
MODEL 4
REMARK VINA RESULT:      -8.1      6.142      8.475
REMARK  Name = 
REMARK  6 active torsions:
REMARK  status: ('A' for Active; 'I' for Inactive)
REMARK    1  A    between atoms: C_1  and  C_2
REMARK    2  A    between atoms: C_2  and  C_3
REMARK    3  A    between atoms: C_6  and  C_7
REMARK    4  A    between atoms: C_10  and  N_11
REMARK    5  A    between atoms: C_12  and  O_14
REMARK    6  A    between atoms: O_14  and  C_15
REMARK                            x       y       z     vdW  Elec       q    Type
REMARK                         _______ _______ _______ _____ _____    ______ ____
ROOT
ATOM      1  C   UNL     1       0.423   9.564  20.443  0.00  0.00    +0.000 A 
ATOM      2  C   UNL     1       0.970   8.444  21.088  0.00  0.00    +0.000 A 
ATOM      3  C   UNL     1       1.855   7.578  20.438  0.00  0.00    +0.000 A 
ATOM      4  C   UNL     1       2.218   7.796  19.113  0.00  0.00    +0.000 A 
ATOM      5  C   UNL     1       1.668   8.889  18.440  0.00  0.00    +0.000 A 
ATOM      6  C   UNL     1       0.792   9.764  19.099  0.00  0.00    +0.000 A 
ENDROOT
BRANCH   1  10
ATOM      7  C   UNL     1      -2.201  12.303  22.529  0.00  0.00    +0.000 A 
ATOM      8  C   UNL     1      -1.541  11.283  23.218  0.00  0.00    +0.000 A 
ATOM      9  C   UNL     1      -0.697  10.398  22.539  0.00  0.00    +0.000 A 
ATOM     10  C   UNL     1      -0.486  10.495  21.153  0.00  0.00    +0.000 A 
ATOM     11  C   UNL     1      -1.172  11.519  20.474  0.00  0.00    +0.000 A 
ATOM     12  C   UNL     1      -2.005  12.417  21.151  0.00  0.00    +0.000 A 
BRANCH   7  14
ATOM     13  C   UNL     1      -3.957  12.574  24.306  0.00  0.00    +0.000 C 
ATOM     14  C   UNL     1      -3.090  13.269  23.267  0.00  0.00    +0.000 C 
ENDBRANCH   7  14
ENDBRANCH   1  10
BRANCH   4  15
ATOM     15  N   UNL     1       3.087   6.951  18.404  0.00  0.00    +0.000 N 
ATOM     16  C   UNL     1       3.013   5.584  18.282  0.00  0.00    +0.000 C 
ATOM     17  O   UNL     1       2.277   4.811  18.874  0.00  0.00    +0.000 OA
ATOM     18  H   UNL     1       3.778   7.382  17.803  0.00  0.00    +0.000 HD
BRANCH  16  19
ATOM     19  O   UNL     1       3.927   5.181  17.322  0.00  0.00    +0.000 OA
BRANCH  19  20
ATOM     20  C   UNL     1       5.244   5.520  17.662  0.00  0.00    +0.000 A 
ATOM     21  C   UNL     1       5.749   5.057  18.875  0.00  0.00    +0.000 A 
ATOM     22  C   UNL     1       7.001   5.505  19.308  0.00  0.00    +0.000 A 
ATOM     23  C   UNL     1       7.738   6.406  18.531  0.00  0.00    +0.000 A 
ATOM     24  C   UNL     1       7.230   6.860  17.316  0.00  0.00    +0.000 A 
ATOM     25  C   UNL     1       5.982   6.425  16.893  0.00  0.00    +0.000 A 
ATOM     26  F   UNL     1       5.476   6.931  15.758  0.00  0.00    +0.000 F 
ENDBRANCH  19  20
ENDBRANCH  16  19
ENDBRANCH   4  15
TORSDOF 5
ENDMDL
MODEL 5
REMARK VINA RESULT:      -8.1      5.298      7.558
REMARK  Name = 
REMARK  6 active torsions:
REMARK  status: ('A' for Active; 'I' for Inactive)
REMARK    1  A    between atoms: C_1  and  C_2
REMARK    2  A    between atoms: C_2  and  C_3
REMARK    3  A    between atoms: C_6  and  C_7
REMARK    4  A    between atoms: C_10  and  N_11
REMARK    5  A    between atoms: C_12  and  O_14
REMARK    6  A    between atoms: O_14  and  C_15
REMARK                            x       y       z     vdW  Elec       q    Type
REMARK                         _______ _______ _______ _____ _____    ______ ____
ROOT
ATOM      1  C   UNL     1       1.248   8.179  20.552  0.00  0.00    +0.000 A 
ATOM      2  C   UNL     1       1.906   8.330  19.321  0.00  0.00    +0.000 A 
ATOM      3  C   UNL     1       2.559   7.261  18.698  0.00  0.00    +0.000 A 
ATOM      4  C   UNL     1       2.586   6.002  19.291  0.00  0.00    +0.000 A 
ATOM      5  C   UNL     1       1.960   5.832  20.528  0.00  0.00    +0.000 A 
ATOM      6  C   UNL     1       1.294   6.902  21.142  0.00  0.00    +0.000 A 
ENDROOT
BRANCH   1  10
ATOM      7  C   UNL     1      -0.820  11.490  22.424  0.00  0.00    +0.000 A 
ATOM      8  C   UNL     1      -0.766  10.240  23.045  0.00  0.00    +0.000 A 
ATOM      9  C   UNL     1      -0.099   9.172  22.435  0.00  0.00    +0.000 A 
ATOM     10  C   UNL     1       0.529   9.310  21.185  0.00  0.00    +0.000 A 
ATOM     11  C   UNL     1       0.450  10.572  20.568  0.00  0.00    +0.000 A 
ATOM     12  C   UNL     1      -0.202  11.648  21.182  0.00  0.00    +0.000 A 
BRANCH   7  14
ATOM     13  C   UNL     1      -2.982  12.344  23.379  0.00  0.00    +0.000 C 
ATOM     14  C   UNL     1      -1.518  12.643  23.095  0.00  0.00    +0.000 C 
ENDBRANCH   7  14
ENDBRANCH   1  10
BRANCH   4  15
ATOM     15  N   UNL     1       3.240   4.899  18.722  0.00  0.00    +0.000 N 
ATOM     16  C   UNL     1       2.782   4.078  17.718  0.00  0.00    +0.000 C 
ATOM     17  O   UNL     1       1.669   4.042  17.219  0.00  0.00    +0.000 OA
ATOM     18  H   UNL     1       4.210   4.745  18.970  0.00  0.00    +0.000 HD
BRANCH  16  19
ATOM     19  O   UNL     1       3.826   3.263  17.311  0.00  0.00    +0.000 OA
BRANCH  19  20
ATOM     20  C   UNL     1       4.881   3.988  16.742  0.00  0.00    +0.000 A 
ATOM     21  C   UNL     1       4.843   4.239  15.372  0.00  0.00    +0.000 A 
ATOM     22  C   UNL     1       5.953   4.825  14.756  0.00  0.00    +0.000 A 
ATOM     23  C   UNL     1       7.086   5.157  15.506  0.00  0.00    +0.000 A 
ATOM     24  C   UNL     1       7.115   4.910  16.876  0.00  0.00    +0.000 A 
ATOM     25  C   UNL     1       6.019   4.317  17.486  0.00  0.00    +0.000 A 
ATOM     26  F   UNL     1       6.094   4.018  18.791  0.00  0.00    +0.000 F 
ENDBRANCH  19  20
ENDBRANCH  16  19
ENDBRANCH   4  15
TORSDOF 5
ENDMDL
MODEL 6
REMARK VINA RESULT:      -8.0      6.215      8.525
REMARK  Name = 
REMARK  6 active torsions:
REMARK  status: ('A' for Active; 'I' for Inactive)
REMARK    1  A    between atoms: C_1  and  C_2
REMARK    2  A    between atoms: C_2  and  C_3
REMARK    3  A    between atoms: C_6  and  C_7
REMARK    4  A    between atoms: C_10  and  N_11
REMARK    5  A    between atoms: C_12  and  O_14
REMARK    6  A    between atoms: O_14  and  C_15
REMARK                            x       y       z     vdW  Elec       q    Type
REMARK                         _______ _______ _______ _____ _____    ______ ____
ROOT
ATOM      1  C   UNL     1       0.389   9.721  20.419  0.00  0.00    +0.000 A 
ATOM      2  C   UNL     1       0.674   9.925  19.060  0.00  0.00    +0.000 A 
ATOM      3  C   UNL     1       1.510   9.060  18.345  0.00  0.00    +0.000 A 
ATOM      4  C   UNL     1       2.098   7.964  18.967  0.00  0.00    +0.000 A 
ATOM      5  C   UNL     1       1.850   7.753  20.326  0.00  0.00    +0.000 A 
ATOM      6  C   UNL     1       1.000   8.614  21.036  0.00  0.00    +0.000 A 
ENDROOT
BRANCH   1  10
ATOM      7  C   UNL     1      -2.315  12.336  22.564  0.00  0.00    +0.000 A 
ATOM      8  C   UNL     1      -2.128  12.477  21.187  0.00  0.00    +0.000 A 
ATOM      9  C   UNL     1      -1.250  11.633  20.499  0.00  0.00    +0.000 A 
ATOM     10  C   UNL     1      -0.526  10.624  21.158  0.00  0.00    +0.000 A 
ATOM     11  C   UNL     1      -0.716  10.507  22.547  0.00  0.00    +0.000 A 
ATOM     12  C   UNL     1      -1.605  11.339  23.237  0.00  0.00    +0.000 A 
BRANCH   7  14
ATOM     13  C   UNL     1      -4.026  12.494  24.397  0.00  0.00    +0.000 C 
ATOM     14  C   UNL     1      -3.278  13.232  23.298  0.00  0.00    +0.000 C 
ENDBRANCH   7  14
ENDBRANCH   1  10
BRANCH   4  15
ATOM     15  N   UNL     1       2.958   7.074  18.306  0.00  0.00    +0.000 N 
ATOM     16  C   UNL     1       2.895   5.700  18.293  0.00  0.00    +0.000 C 
ATOM     17  O   UNL     1       2.182   4.969  18.962  0.00  0.00    +0.000 OA
ATOM     18  H   UNL     1       3.629   7.462  17.655  0.00  0.00    +0.000 HD
BRANCH  16  19
ATOM     19  O   UNL     1       3.790   5.231  17.345  0.00  0.00    +0.000 OA
BRANCH  19  20
ATOM     20  C   UNL     1       5.120   5.528  17.672  0.00  0.00    +0.000 A 
ATOM     21  C   UNL     1       5.609   5.087  18.899  0.00  0.00    +0.000 A 
ATOM     22  C   UNL     1       6.878   5.499  19.315  0.00  0.00    +0.000 A 
ATOM     23  C   UNL     1       7.649   6.342  18.506  0.00  0.00    +0.000 A 
ATOM     24  C   UNL     1       7.157   6.774  17.277  0.00  0.00    +0.000 A 
ATOM     25  C   UNL     1       5.892   6.375  16.870  0.00  0.00    +0.000 A 
ATOM     26  F   UNL     1       5.405   6.861  15.719  0.00  0.00    +0.000 F 
ENDBRANCH  19  20
ENDBRANCH  16  19
ENDBRANCH   4  15
TORSDOF 5
ENDMDL
MODEL 7
REMARK VINA RESULT:      -8.0      1.088      1.971
REMARK  Name = 
REMARK  6 active torsions:
REMARK  status: ('A' for Active; 'I' for Inactive)
REMARK    1  A    between atoms: C_1  and  C_2
REMARK    2  A    between atoms: C_2  and  C_3
REMARK    3  A    between atoms: C_6  and  C_7
REMARK    4  A    between atoms: C_10  and  N_11
REMARK    5  A    between atoms: C_12  and  O_14
REMARK    6  A    between atoms: O_14  and  C_15
REMARK                            x       y       z     vdW  Elec       q    Type
REMARK                         _______ _______ _______ _____ _____    ______ ____
ROOT
ATOM      1  C   UNL     1       8.332   8.910  18.409  0.00  0.00    +0.000 A 
ATOM      2  C   UNL     1       8.636   7.700  19.051  0.00  0.00    +0.000 A 
ATOM      3  C   UNL     1       7.997   6.503  18.710  0.00  0.00    +0.000 A 
ATOM      4  C   UNL     1       7.021   6.477  17.718  0.00  0.00    +0.000 A 
ATOM      5  C   UNL     1       6.683   7.673  17.081  0.00  0.00    +0.000 A 
ATOM      6  C   UNL     1       7.336   8.867  17.415  0.00  0.00    +0.000 A 
ENDROOT
BRANCH   1  10
ATOM      7  C   UNL     1      10.370  12.593  19.424  0.00  0.00    +0.000 A 
ATOM      8  C   UNL     1       9.802  12.417  18.161  0.00  0.00    +0.000 A 
ATOM      9  C   UNL     1       9.148  11.224  17.836  0.00  0.00    +0.000 A 
ATOM     10  C   UNL     1       9.042  10.165  18.754  0.00  0.00    +0.000 A 
ATOM     11  C   UNL     1       9.634  10.355  20.016  0.00  0.00    +0.000 A 
ATOM     12  C   UNL     1      10.276  11.552  20.352  0.00  0.00    +0.000 A 
BRANCH   7  14
ATOM     13  C   UNL     1      10.498  15.065  18.992  0.00  0.00    +0.000 C 
ATOM     14  C   UNL     1      11.052  13.887  19.779  0.00  0.00    +0.000 C 
ENDBRANCH   7  14
ENDBRANCH   1  10
BRANCH   4  15
ATOM     15  N   UNL     1       6.334   5.311  17.346  0.00  0.00    +0.000 N 
ATOM     16  C   UNL     1       5.751   4.381  18.175  0.00  0.00    +0.000 C 
ATOM     17  O   UNL     1       5.833   4.293  19.390  0.00  0.00    +0.000 OA
ATOM     18  H   UNL     1       6.118   5.182  16.365  0.00  0.00    +0.000 HD
BRANCH  16  19
ATOM     19  O   UNL     1       4.994   3.518  17.398  0.00  0.00    +0.000 OA
BRANCH  19  20
ATOM     20  C   UNL     1       3.699   3.342  17.902  0.00  0.00    +0.000 A 
ATOM     21  C   UNL     1       3.333   2.074  18.347  0.00  0.00    +0.000 A 
ATOM     22  C   UNL     1       2.004   1.835  18.710  0.00  0.00    +0.000 A 
ATOM     23  C   UNL     1       1.053   2.858  18.628  0.00  0.00    +0.000 A 
ATOM     24  C   UNL     1       1.426   4.127  18.188  0.00  0.00    +0.000 A 
ATOM     25  C   UNL     1       2.743   4.360  17.816  0.00  0.00    +0.000 A 
ATOM     26  F   UNL     1       3.067   5.564  17.324  0.00  0.00    +0.000 F 
ENDBRANCH  19  20
ENDBRANCH  16  19
ENDBRANCH   4  15
TORSDOF 5
ENDMDL
MODEL 8
REMARK VINA RESULT:      -8.0      5.918      8.279
REMARK  Name = 
REMARK  6 active torsions:
REMARK  status: ('A' for Active; 'I' for Inactive)
REMARK    1  A    between atoms: C_1  and  C_2
REMARK    2  A    between atoms: C_2  and  C_3
REMARK    3  A    between atoms: C_6  and  C_7
REMARK    4  A    between atoms: C_10  and  N_11
REMARK    5  A    between atoms: C_12  and  O_14
REMARK    6  A    between atoms: O_14  and  C_15
REMARK                            x       y       z     vdW  Elec       q    Type
REMARK                         _______ _______ _______ _____ _____    ______ ____
ROOT
ATOM      1  C   UNL     1       0.594   9.493  20.362  0.00  0.00    +0.000 A 
ATOM      2  C   UNL     1       0.966   9.677  19.021  0.00  0.00    +0.000 A 
ATOM      3  C   UNL     1       1.821   8.785  18.364  0.00  0.00    +0.000 A 
ATOM      4  C   UNL     1       2.342   7.679  19.030  0.00  0.00    +0.000 A 
ATOM      5  C   UNL     1       2.006   7.488  20.372  0.00  0.00    +0.000 A 
ATOM      6  C   UNL     1       1.138   8.376  21.023  0.00  0.00    +0.000 A 
ENDROOT
BRANCH   1  10
ATOM      7  C   UNL     1      -2.166  12.193  22.320  0.00  0.00    +0.000 A 
ATOM      8  C   UNL     1      -1.954  12.266  20.942  0.00  0.00    +0.000 A 
ATOM      9  C   UNL     1      -1.058  11.394  20.314  0.00  0.00    +0.000 A 
ATOM     10  C   UNL     1      -0.341  10.425  21.036  0.00  0.00    +0.000 A 
ATOM     11  C   UNL     1      -0.557  10.376  22.426  0.00  0.00    +0.000 A 
ATOM     12  C   UNL     1      -1.464  11.236  23.057  0.00  0.00    +0.000 A 
BRANCH   7  14
ATOM     13  C   UNL     1      -3.826  12.468  24.187  0.00  0.00    +0.000 C 
ATOM     14  C   UNL     1      -3.149  13.117  22.989  0.00  0.00    +0.000 C 
ENDBRANCH   7  14
ENDBRANCH   1  10
BRANCH   4  15
ATOM     15  N   UNL     1       3.217   6.762  18.429  0.00  0.00    +0.000 N 
ATOM     16  C   UNL     1       2.903   5.545  17.870  0.00  0.00    +0.000 C 
ATOM     17  O   UNL     1       1.840   4.947  17.910  0.00  0.00    +0.000 OA
ATOM     18  H   UNL     1       4.170   7.060  18.259  0.00  0.00    +0.000 HD
BRANCH  16  19
ATOM     19  O   UNL     1       4.018   5.073  17.198  0.00  0.00    +0.000 OA
BRANCH  19  20
ATOM     20  C   UNL     1       5.213   5.598  17.708  0.00  0.00    +0.000 A 
ATOM     21  C   UNL     1       5.890   6.550  16.950  0.00  0.00    +0.000 A 
ATOM     22  C   UNL     1       7.156   6.975  17.362  0.00  0.00    +0.000 A 
ATOM     23  C   UNL     1       7.736   6.452  18.523  0.00  0.00    +0.000 A 
ATOM     24  C   UNL     1       7.051   5.505  19.281  0.00  0.00    +0.000 A 
ATOM     25  C   UNL     1       5.800   5.073  18.865  0.00  0.00    +0.000 A 
ATOM     26  F   UNL     1       5.189   4.106  19.565  0.00  0.00    +0.000 F 
ENDBRANCH  19  20
ENDBRANCH  16  19
ENDBRANCH   4  15
TORSDOF 5
ENDMDL
MODEL 9
REMARK VINA RESULT:      -7.9      6.137      8.538
REMARK  Name = 
REMARK  6 active torsions:
REMARK  status: ('A' for Active; 'I' for Inactive)
REMARK    1  A    between atoms: C_1  and  C_2
REMARK    2  A    between atoms: C_2  and  C_3
REMARK    3  A    between atoms: C_6  and  C_7
REMARK    4  A    between atoms: C_10  and  N_11
REMARK    5  A    between atoms: C_12  and  O_14
REMARK    6  A    between atoms: O_14  and  C_15
REMARK                            x       y       z     vdW  Elec       q    Type
REMARK                         _______ _______ _______ _____ _____    ______ ____
ROOT
ATOM      1  C   UNL     1       0.326   9.733  20.396  0.00  0.00    +0.000 A 
ATOM      2  C   UNL     1       0.888   8.629  21.055  0.00  0.00    +0.000 A 
ATOM      3  C   UNL     1       1.809   7.785  20.425  0.00  0.00    +0.000 A 
ATOM      4  C   UNL     1       2.195   8.012  19.108  0.00  0.00    +0.000 A 
ATOM      5  C   UNL     1       1.631   9.090  18.422  0.00  0.00    +0.000 A 
ATOM      6  C   UNL     1       0.719   9.942  19.061  0.00  0.00    +0.000 A 
ENDROOT
BRANCH   1  10
ATOM      7  C   UNL     1      -2.474  12.359  22.399  0.00  0.00    +0.000 A 
ATOM      8  C   UNL     1      -2.301  12.424  21.015  0.00  0.00    +0.000 A 
ATOM      9  C   UNL     1      -1.392  11.576  20.372  0.00  0.00    +0.000 A 
ATOM     10  C   UNL     1      -0.622  10.640  21.085  0.00  0.00    +0.000 A 
ATOM     11  C   UNL     1      -0.800  10.601  22.481  0.00  0.00    +0.000 A 
ATOM     12  C   UNL     1      -1.719  11.436  23.126  0.00  0.00    +0.000 A 
BRANCH   7  14
ATOM     13  C   UNL     1      -3.983  12.660  24.386  0.00  0.00    +0.000 C 
ATOM     14  C   UNL     1      -3.470  13.257  23.084  0.00  0.00    +0.000 C 
ENDBRANCH   7  14
ENDBRANCH   1  10
BRANCH   4  15
ATOM     15  N   UNL     1       3.101   7.190  18.419  0.00  0.00    +0.000 N 
ATOM     16  C   UNL     1       2.914   5.888  18.019  0.00  0.00    +0.000 C 
ATOM     17  O   UNL     1       1.997   5.134  18.302  0.00  0.00    +0.000 OA
ATOM     18  H   UNL     1       3.942   7.618  18.052  0.00  0.00    +0.000 HD
BRANCH  16  19
ATOM     19  O   UNL     1       3.961   5.534  17.184  0.00  0.00    +0.000 OA
BRANCH  19  20
ATOM     20  C   UNL     1       5.211   5.876  17.718  0.00  0.00    +0.000 A 
ATOM     21  C   UNL     1       6.000   6.783  17.015  0.00  0.00    +0.000 A 
ATOM     22  C   UNL     1       7.309   7.023  17.444  0.00  0.00    +0.000 A 
ATOM     23  C   UNL     1       7.819   6.362  18.568  0.00  0.00    +0.000 A 
ATOM     24  C   UNL     1       7.022   5.461  19.270  0.00  0.00    +0.000 A 
ATOM     25  C   UNL     1       5.727   5.213  18.837  0.00  0.00    +0.000 A 
ATOM     26  F   UNL     1       5.001   4.287  19.480  0.00  0.00    +0.000 F 
ENDBRANCH  19  20
ENDBRANCH  16  19
ENDBRANCH   4  15
TORSDOF 5
ENDMDL
