MODEL 1
REMARK VINA RESULT:      -8.8      0.000      0.000
REMARK  Name = 
REMARK  6 active torsions:
REMARK  status: ('A' for Active; 'I' for Inactive)
REMARK    1  A    between atoms: C_1  and  C_2
REMARK    2  A    between atoms: C_2  and  C_3
REMARK    3  A    between atoms: C_7  and  C_8
REMARK    4  A    between atoms: C_11  and  C_12
REMARK    5  A    between atoms: C_13  and  S_14
REMARK    6  A    between atoms: S_14  and  N_17
REMARK                            x       y       z     vdW  Elec       q    Type
REMARK                         _______ _______ _______ _____ _____    ______ ____
ROOT
ATOM      1  C   UNL     1       2.550   6.306  19.019  0.00  0.00    +0.000 A 
ATOM      2  C   UNL     1       2.481   6.032  20.389  0.00  0.00    +0.000 A 
ATOM      3  C   UNL     1       1.832   6.908  21.265  0.00  0.00    +0.000 A 
ATOM      4  C   UNL     1       1.274   8.110  20.799  0.00  0.00    +0.000 A 
ATOM      5  C   UNL     1       0.620   9.000  21.820  0.00  0.00    +0.000 C 
ATOM      6  C   UNL     1       1.416   8.428  19.436  0.00  0.00    +0.000 A 
ATOM      7  C   UNL     1       2.006   7.507  18.552  0.00  0.00    +0.000 A 
ENDROOT
BRANCH   1  12
ATOM      8  C   UNL     1       2.686   4.109  17.624  0.00  0.00    +0.000 A 
ATOM      9  N   UNL     1       3.582   3.503  16.842  0.00  0.00    +0.000 NA
ATOM     10  N   UNL     1       4.596   4.398  16.697  0.00  0.00    +0.000 N 
ATOM     11  C   UNL     1       4.452   5.470  17.572  0.00  0.00    +0.000 A 
ATOM     12  C   UNL     1       3.171   5.359  18.100  0.00  0.00    +0.000 A 
ATOM     13  N   UNL     1       5.419   6.402  17.929  0.00  0.00    +0.000 N 
ATOM     14  C   UNL     1       6.752   6.361  17.670  0.00  0.00    +0.000 C 
ATOM     15  O   UNL     1       7.517   6.840  18.512  0.00  0.00    +0.000 OA
ATOM     16  C   UNL     1       7.316   5.802  16.390  0.00  0.00    +0.000 C 
ATOM     17  C   UNL     1       6.320   5.413  15.329  0.00  0.00    +0.000 C 
ATOM     18  C   UNL     1       5.569   4.177  15.712  0.00  0.00    +0.000 C 
ATOM     19  O   UNL     1       5.704   3.085  15.173  0.00  0.00    +0.000 OA
ATOM     20  H   UNL     1       5.218   6.951  18.761  0.00  0.00    +0.000 HD
BRANCH   8  22
ATOM     21  C   UNL     1       1.372   2.640  19.230  0.00  0.00    +0.000 C 
ATOM     22  C   UNL     1       1.380   3.449  17.945  0.00  0.00    +0.000 C 
ENDBRANCH   8  22
ENDBRANCH   1  12
BRANCH   6  23
ATOM     23  S   UNL     1       1.094  10.076  18.799  0.00  0.00    +0.000 S 
ATOM     24  O   UNL     1       1.561  11.007  19.798  0.00  0.00    +0.000 OA
ATOM     25  O   UNL     1       1.620  10.129  17.442  0.00  0.00    +0.000 OA
BRANCH  23  26
ATOM     26  N   UNL     1      -0.590  10.210  18.686  0.00  0.00    +0.000 NA
ATOM     27  C   UNL     1      -1.168  10.311  17.321  0.00  0.00    +0.000 C 
ATOM     28  C   UNL     1      -2.690  10.135  17.418  0.00  0.00    +0.000 C 
ATOM     29  C   UNL     1      -3.302  11.131  18.370  0.00  0.00    +0.000 A 
ATOM     30  C   UNL     1      -4.674  11.408  18.341  0.00  0.00    +0.000 A 
ATOM     31  C   UNL     1      -5.216  12.368  19.199  0.00  0.00    +0.000 A 
ATOM     32  C   UNL     1      -4.388  13.085  20.059  0.00  0.00    +0.000 A 
ATOM     33  C   UNL     1      -3.031  12.782  20.125  0.00  0.00    +0.000 A 
ATOM     34  C   UNL     1      -2.494  11.760  19.329  0.00  0.00    +0.000 A 
ATOM     35  C   UNL     1      -1.079  11.299  19.577  0.00  0.00    +0.000 C 
ENDBRANCH  23  26
ENDBRANCH   6  23
TORSDOF 4
ENDMDL
MODEL 2
REMARK VINA RESULT:      -8.3      3.367      9.901
REMARK  Name = 
REMARK  6 active torsions:
REMARK  status: ('A' for Active; 'I' for Inactive)
REMARK    1  A    between atoms: C_1  and  C_2
REMARK    2  A    between atoms: C_2  and  C_3
REMARK    3  A    between atoms: C_7  and  C_8
REMARK    4  A    between atoms: C_11  and  C_12
REMARK    5  A    between atoms: C_13  and  S_14
REMARK    6  A    between atoms: S_14  and  N_17
REMARK                            x       y       z     vdW  Elec       q    Type
REMARK                         _______ _______ _______ _____ _____    ______ ____
ROOT
ATOM      1  C   UNL     1      -1.950  11.942  18.767  0.00  0.00    +0.000 A 
ATOM      2  C   UNL     1      -1.185  13.041  18.359  0.00  0.00    +0.000 A 
ATOM      3  C   UNL     1       0.202  13.053  18.533  0.00  0.00    +0.000 A 
ATOM      4  C   UNL     1       0.858  11.984  19.166  0.00  0.00    +0.000 A 
ATOM      5  C   UNL     1       2.349  12.099  19.331  0.00  0.00    +0.000 C 
ATOM      6  C   UNL     1       0.080  10.917  19.652  0.00  0.00    +0.000 A 
ATOM      7  C   UNL     1      -1.304  10.881  19.408  0.00  0.00    +0.000 A 
ENDROOT
BRANCH   1  12
ATOM      8  C   UNL     1      -4.099  11.556  17.344  0.00  0.00    +0.000 A 
ATOM      9  N   UNL     1      -5.416  11.711  17.500  0.00  0.00    +0.000 NA
ATOM     10  N   UNL     1      -5.584  12.036  18.810  0.00  0.00    +0.000 N 
ATOM     11  C   UNL     1      -4.368  12.317  19.422  0.00  0.00    +0.000 A 
ATOM     12  C   UNL     1      -3.388  11.906  18.525  0.00  0.00    +0.000 A 
ATOM     13  N   UNL     1      -4.164  12.967  20.633  0.00  0.00    +0.000 N 
ATOM     14  C   UNL     1      -5.075  13.645  21.379  0.00  0.00    +0.000 C 
ATOM     15  O   UNL     1      -4.683  14.629  22.011  0.00  0.00    +0.000 OA
ATOM     16  C   UNL     1      -6.513  13.213  21.496  0.00  0.00    +0.000 C 
ATOM     17  C   UNL     1      -6.875  11.898  20.857  0.00  0.00    +0.000 C 
ATOM     18  C   UNL     1      -6.872  11.999  19.364  0.00  0.00    +0.000 C 
ATOM     19  O   UNL     1      -7.876  11.962  18.661  0.00  0.00    +0.000 OA
ATOM     20  H   UNL     1      -3.219  13.309  20.798  0.00  0.00    +0.000 HD
BRANCH   8  22
ATOM     21  C   UNL     1      -2.781   9.794  16.070  0.00  0.00    +0.000 C 
ATOM     22  C   UNL     1      -3.532  11.112  16.029  0.00  0.00    +0.000 C 
ENDBRANCH   8  22
ENDBRANCH   1  12
BRANCH   6  23
ATOM     23  S   UNL     1       0.738   9.698  20.796  0.00  0.00    +0.000 S 
ATOM     24  O   UNL     1       1.514  10.422  21.774  0.00  0.00    +0.000 OA
ATOM     25  O   UNL     1      -0.371   8.853  21.216  0.00  0.00    +0.000 OA
BRANCH  23  26
ATOM     26  N   UNL     1       1.787   8.728  19.889  0.00  0.00    +0.000 NA
ATOM     27  C   UNL     1       1.587   8.713  18.416  0.00  0.00    +0.000 C 
ATOM     28  C   UNL     1       2.793   8.020  17.764  0.00  0.00    +0.000 C 
ATOM     29  C   UNL     1       3.003   6.635  18.324  0.00  0.00    +0.000 A 
ATOM     30  C   UNL     1       3.782   5.693  17.643  0.00  0.00    +0.000 A 
ATOM     31  C   UNL     1       3.928   4.401  18.153  0.00  0.00    +0.000 A 
ATOM     32  C   UNL     1       3.264   4.029  19.319  0.00  0.00    +0.000 A 
ATOM     33  C   UNL     1       2.525   4.975  20.025  0.00  0.00    +0.000 A 
ATOM     34  C   UNL     1       2.445   6.298  19.566  0.00  0.00    +0.000 A 
ATOM     35  C   UNL     1       1.831   7.351  20.455  0.00  0.00    +0.000 C 
ENDBRANCH  23  26
ENDBRANCH   6  23
TORSDOF 4
ENDMDL
MODEL 3
REMARK VINA RESULT:      -8.0      0.810      1.499
REMARK  Name = 
REMARK  6 active torsions:
REMARK  status: ('A' for Active; 'I' for Inactive)
REMARK    1  A    between atoms: C_1  and  C_2
REMARK    2  A    between atoms: C_2  and  C_3
REMARK    3  A    between atoms: C_7  and  C_8
REMARK    4  A    between atoms: C_11  and  C_12
REMARK    5  A    between atoms: C_13  and  S_14
REMARK    6  A    between atoms: S_14  and  N_17
REMARK                            x       y       z     vdW  Elec       q    Type
REMARK                         _______ _______ _______ _____ _____    ______ ____
ROOT
ATOM      1  C   UNL     1       2.353   6.827  18.985  0.00  0.00    +0.000 A 
ATOM      2  C   UNL     1       1.995   6.563  20.311  0.00  0.00    +0.000 A 
ATOM      3  C   UNL     1       1.370   7.539  21.094  0.00  0.00    +0.000 A 
ATOM      4  C   UNL     1       1.130   8.826  20.585  0.00  0.00    +0.000 A 
ATOM      5  C   UNL     1       0.478   9.816  21.510  0.00  0.00    +0.000 C 
ATOM      6  C   UNL     1       1.566   9.119  19.280  0.00  0.00    +0.000 A 
ATOM      7  C   UNL     1       2.127   8.110  18.477  0.00  0.00    +0.000 A 
ENDROOT
BRANCH   1  12
ATOM      8  C   UNL     1       2.456   4.487  17.843  0.00  0.00    +0.000 A 
ATOM      9  N   UNL     1       3.324   3.802  17.095  0.00  0.00    +0.000 NA
ATOM     10  N   UNL     1       4.318   4.684  16.803  0.00  0.00    +0.000 N 
ATOM     11  C   UNL     1       4.200   5.847  17.557  0.00  0.00    +0.000 A 
ATOM     12  C   UNL     1       2.945   5.787  18.152  0.00  0.00    +0.000 A 
ATOM     13  N   UNL     1       5.169   6.821  17.761  0.00  0.00    +0.000 N 
ATOM     14  C   UNL     1       6.490   6.761  17.447  0.00  0.00    +0.000 C 
ATOM     15  O   UNL     1       7.285   7.339  18.194  0.00  0.00    +0.000 OA
ATOM     16  C   UNL     1       7.003   6.064  16.215  0.00  0.00    +0.000 C 
ATOM     17  C   UNL     1       5.966   5.550  15.251  0.00  0.00    +0.000 C 
ATOM     18  C   UNL     1       5.250   4.359  15.806  0.00  0.00    +0.000 C 
ATOM     19  O   UNL     1       5.375   3.214  15.389  0.00  0.00    +0.000 OA
ATOM     20  H   UNL     1       4.998   7.460  18.534  0.00  0.00    +0.000 HD
BRANCH   8  22
ATOM     21  C   UNL     1       1.287   3.011  19.551  0.00  0.00    +0.000 C 
ATOM     22  C   UNL     1       1.173   3.857  18.296  0.00  0.00    +0.000 C 
ENDBRANCH   8  22
ENDBRANCH   1  12
BRANCH   6  23
ATOM     23  S   UNL     1       1.665  10.802  18.660  0.00  0.00    +0.000 S 
ATOM     24  O   UNL     1       2.322  11.583  19.680  0.00  0.00    +0.000 OA
ATOM     25  O   UNL     1       2.216  10.739  17.314  0.00  0.00    +0.000 OA
BRANCH  23  26
ATOM     26  N   UNL     1       0.066  11.340  18.518  0.00  0.00    +0.000 NA
ATOM     27  C   UNL     1      -0.531  11.997  19.710  0.00  0.00    +0.000 C 
ATOM     28  C   UNL     1      -1.855  12.657  19.294  0.00  0.00    +0.000 C 
ATOM     29  C   UNL     1      -2.794  11.661  18.663  0.00  0.00    +0.000 A 
ATOM     30  C   UNL     1      -4.163  11.933  18.548  0.00  0.00    +0.000 A 
ATOM     31  C   UNL     1      -5.026  10.980  18.003  0.00  0.00    +0.000 A 
ATOM     32  C   UNL     1      -4.537   9.737  17.608  0.00  0.00    +0.000 A 
ATOM     33  C   UNL     1      -3.171   9.478  17.676  0.00  0.00    +0.000 A 
ATOM     34  C   UNL     1      -2.286  10.462  18.142  0.00  0.00    +0.000 A 
ATOM     35  C   UNL     1      -0.799  10.245  17.997  0.00  0.00    +0.000 C 
ENDBRANCH  23  26
ENDBRANCH   6  23
TORSDOF 4
ENDMDL
MODEL 4
REMARK VINA RESULT:      -8.0      6.525      8.885
REMARK  Name = 
REMARK  6 active torsions:
REMARK  status: ('A' for Active; 'I' for Inactive)
REMARK    1  A    between atoms: C_1  and  C_2
REMARK    2  A    between atoms: C_2  and  C_3
REMARK    3  A    between atoms: C_7  and  C_8
REMARK    4  A    between atoms: C_11  and  C_12
REMARK    5  A    between atoms: C_13  and  S_14
REMARK    6  A    between atoms: S_14  and  N_17
REMARK                            x       y       z     vdW  Elec       q    Type
REMARK                         _______ _______ _______ _____ _____    ______ ____
ROOT
ATOM      1  C   UNL     1      -2.222  12.045  19.488  0.00  0.00    +0.000 A 
ATOM      2  C   UNL     1      -2.450  11.160  18.428  0.00  0.00    +0.000 A 
ATOM      3  C   UNL     1      -3.745  10.926  17.955  0.00  0.00    +0.000 A 
ATOM      4  C   UNL     1      -4.855  11.535  18.563  0.00  0.00    +0.000 A 
ATOM      5  C   UNL     1      -6.210  11.201  18.002  0.00  0.00    +0.000 C 
ATOM      6  C   UNL     1      -4.635  12.359  19.682  0.00  0.00    +0.000 A 
ATOM      7  C   UNL     1      -3.325  12.645  20.104  0.00  0.00    +0.000 A 
ENDROOT
BRANCH   1  12
ATOM      8  C   UNL     1      -0.051  11.638  20.870  0.00  0.00    +0.000 A 
ATOM      9  N   UNL     1       1.115  12.259  21.063  0.00  0.00    +0.000 NA
ATOM     10  N   UNL     1       1.126  13.285  20.171  0.00  0.00    +0.000 N 
ATOM     11  C   UNL     1      -0.122  13.457  19.582  0.00  0.00    +0.000 A 
ATOM     12  C   UNL     1      -0.865  12.336  19.936  0.00  0.00    +0.000 A 
ATOM     13  N   UNL     1      -0.574  14.562  18.873  0.00  0.00    +0.000 N 
ATOM     14  C   UNL     1       0.012  15.784  18.770  0.00  0.00    +0.000 C 
ATOM     15  O   UNL     1      -0.725  16.770  18.682  0.00  0.00    +0.000 OA
ATOM     16  C   UNL     1       1.506  15.967  18.713  0.00  0.00    +0.000 C 
ATOM     17  C   UNL     1       2.335  14.713  18.630  0.00  0.00    +0.000 C 
ATOM     18  C   UNL     1       2.327  13.968  19.927  0.00  0.00    +0.000 C 
ATOM     19  O   UNL     1       3.290  13.867  20.679  0.00  0.00    +0.000 OA
ATOM     20  H   UNL     1      -1.581  14.620  18.738  0.00  0.00    +0.000 HD
BRANCH   8  22
ATOM     21  C   UNL     1      -0.870  10.625  23.054  0.00  0.00    +0.000 C 
ATOM     22  C   UNL     1      -0.389  10.393  21.633  0.00  0.00    +0.000 C 
ENDBRANCH   8  22
ENDBRANCH   1  12
BRANCH   6  23
ATOM     23  S   UNL     1      -5.971  12.880  20.764  0.00  0.00    +0.000 S 
ATOM     24  O   UNL     1      -6.884  13.652  19.956  0.00  0.00    +0.000 OA
ATOM     25  O   UNL     1      -6.439  11.700  21.478  0.00  0.00    +0.000 OA
BRANCH  23  26
ATOM     26  N   UNL     1      -5.268  13.908  21.910  0.00  0.00    +0.000 NA
ATOM     27  C   UNL     1      -5.026  13.344  23.263  0.00  0.00    +0.000 C 
ATOM     28  C   UNL     1      -4.137  14.319  24.050  0.00  0.00    +0.000 C 
ATOM     29  C   UNL     1      -4.746  15.697  24.108  0.00  0.00    +0.000 A 
ATOM     30  C   UNL     1      -4.321  16.633  25.058  0.00  0.00    +0.000 A 
ATOM     31  C   UNL     1      -4.928  17.890  25.128  0.00  0.00    +0.000 A 
ATOM     32  C   UNL     1      -5.988  18.202  24.281  0.00  0.00    +0.000 A 
ATOM     33  C   UNL     1      -6.384  17.294  23.303  0.00  0.00    +0.000 A 
ATOM     34  C   UNL     1      -5.722  16.064  23.170  0.00  0.00    +0.000 A 
ATOM     35  C   UNL     1      -6.015  15.195  21.971  0.00  0.00    +0.000 C 
ENDBRANCH  23  26
ENDBRANCH   6  23
TORSDOF 4
ENDMDL
MODEL 5
REMARK VINA RESULT:      -8.0      3.648     10.181
REMARK  Name = 
REMARK  6 active torsions:
REMARK  status: ('A' for Active; 'I' for Inactive)
REMARK    1  A    between atoms: C_1  and  C_2
REMARK    2  A    between atoms: C_2  and  C_3
REMARK    3  A    between atoms: C_7  and  C_8
REMARK    4  A    between atoms: C_11  and  C_12
REMARK    5  A    between atoms: C_13  and  S_14
REMARK    6  A    between atoms: S_14  and  N_17
REMARK                            x       y       z     vdW  Elec       q    Type
REMARK                         _______ _______ _______ _____ _____    ______ ____
ROOT
ATOM      1  C   UNL     1      -2.094  12.841  20.827  0.00  0.00    +0.000 A 
ATOM      2  C   UNL     1      -1.221  13.924  20.678  0.00  0.00    +0.000 A 
ATOM      3  C   UNL     1       0.161  13.725  20.597  0.00  0.00    +0.000 A 
ATOM      4  C   UNL     1       0.712  12.438  20.712  0.00  0.00    +0.000 A 
ATOM      5  C   UNL     1       2.210  12.326  20.640  0.00  0.00    +0.000 C 
ATOM      6  C   UNL     1      -0.160  11.358  20.946  0.00  0.00    +0.000 A 
ATOM      7  C   UNL     1      -1.551  11.559  20.953  0.00  0.00    +0.000 A 
ENDROOT
BRANCH   1  12
ATOM      8  C   UNL     1      -4.390  13.386  21.934  0.00  0.00    +0.000 A 
ATOM      9  N   UNL     1      -5.671  13.420  21.560  0.00  0.00    +0.000 NA
ATOM     10  N   UNL     1      -5.656  13.233  20.213  0.00  0.00    +0.000 N 
ATOM     11  C   UNL     1      -4.396  12.847  19.770  0.00  0.00    +0.000 A 
ATOM     12  C   UNL     1      -3.538  13.047  20.846  0.00  0.00    +0.000 A 
ATOM     13  N   UNL     1      -4.070  12.281  18.544  0.00  0.00    +0.000 N 
ATOM     14  C   UNL     1      -4.917  11.796  17.598  0.00  0.00    +0.000 C 
ATOM     15  O   UNL     1      -4.543  10.826  16.934  0.00  0.00    +0.000 OA
ATOM     16  C   UNL     1      -6.255  12.422  17.306  0.00  0.00    +0.000 C 
ATOM     17  C   UNL     1      -6.563  13.714  18.017  0.00  0.00    +0.000 C 
ATOM     18  C   UNL     1      -6.821  13.487  19.473  0.00  0.00    +0.000 C 
ATOM     19  O   UNL     1      -7.916  13.596  20.012  0.00  0.00    +0.000 OA
ATOM     20  H   UNL     1      -3.158  11.833  18.491  0.00  0.00    +0.000 HD
BRANCH   8  22
ATOM     21  C   UNL     1      -3.986  12.401  24.242  0.00  0.00    +0.000 C 
ATOM     22  C   UNL     1      -4.003  13.636  23.360  0.00  0.00    +0.000 C 
ENDBRANCH   8  22
ENDBRANCH   1  12
BRANCH   6  23
ATOM     23  S   UNL     1       0.434   9.750  21.484  0.00  0.00    +0.000 S 
ATOM     24  O   UNL     1       1.223   9.974  22.671  0.00  0.00    +0.000 OA
ATOM     25  O   UNL     1      -0.713   8.853  21.523  0.00  0.00    +0.000 OA
BRANCH  23  26
ATOM     26  N   UNL     1       1.457   9.197  20.255  0.00  0.00    +0.000 NA
ATOM     27  C   UNL     1       0.994   9.388  18.856  0.00  0.00    +0.000 C 
ATOM     28  C   UNL     1       2.165   9.092  17.907  0.00  0.00    +0.000 C 
ATOM     29  C   UNL     1       2.727   7.711  18.137  0.00  0.00    +0.000 A 
ATOM     30  C   UNL     1       3.527   7.088  17.172  0.00  0.00    +0.000 A 
ATOM     31  C   UNL     1       4.001   5.791  17.381  0.00  0.00    +0.000 A 
ATOM     32  C   UNL     1       3.645   5.094  18.533  0.00  0.00    +0.000 A 
ATOM     33  C   UNL     1       2.888   5.724  19.517  0.00  0.00    +0.000 A 
ATOM     34  C   UNL     1       2.481   7.056  19.353  0.00  0.00    +0.000 A 
ATOM     35  C   UNL     1       1.859   7.786  20.518  0.00  0.00    +0.000 C 
ENDBRANCH  23  26
ENDBRANCH   6  23
TORSDOF 4
ENDMDL
MODEL 6
REMARK VINA RESULT:      -7.8      3.693     11.050
REMARK  Name = 
REMARK  6 active torsions:
REMARK  status: ('A' for Active; 'I' for Inactive)
REMARK    1  A    between atoms: C_1  and  C_2
REMARK    2  A    between atoms: C_2  and  C_3
REMARK    3  A    between atoms: C_7  and  C_8
REMARK    4  A    between atoms: C_11  and  C_12
REMARK    5  A    between atoms: C_13  and  S_14
REMARK    6  A    between atoms: S_14  and  N_17
REMARK                            x       y       z     vdW  Elec       q    Type
REMARK                         _______ _______ _______ _____ _____    ______ ____
ROOT
ATOM      1  C   UNL     1      -2.904  12.455  20.441  0.00  0.00    +0.000 A 
ATOM      2  C   UNL     1      -3.571  12.118  19.258  0.00  0.00    +0.000 A 
ATOM      3  C   UNL     1      -2.983  11.261  18.322  0.00  0.00    +0.000 A 
ATOM      4  C   UNL     1      -1.689  10.755  18.522  0.00  0.00    +0.000 A 
ATOM      5  C   UNL     1      -1.131   9.862  17.448  0.00  0.00    +0.000 C 
ATOM      6  C   UNL     1      -0.984  11.160  19.670  0.00  0.00    +0.000 A 
ATOM      7  C   UNL     1      -1.610  11.963  20.640  0.00  0.00    +0.000 A 
ENDROOT
BRANCH   1  12
ATOM      8  C   UNL     1      -2.972  14.261  22.318  0.00  0.00    +0.000 A 
ATOM      9  N   UNL     1      -3.885  14.780  23.142  0.00  0.00    +0.000 NA
ATOM     10  N   UNL     1      -5.074  14.261  22.732  0.00  0.00    +0.000 N 
ATOM     11  C   UNL     1      -4.887  13.239  21.807  0.00  0.00    +0.000 A 
ATOM     12  C   UNL     1      -3.546  13.297  21.444  0.00  0.00    +0.000 A 
ATOM     13  N   UNL     1      -5.815  12.287  21.404  0.00  0.00    +0.000 N 
ATOM     14  C   UNL     1      -7.026  12.016  21.958  0.00  0.00    +0.000 C 
ATOM     15  O   UNL     1      -7.419  10.846  21.938  0.00  0.00    +0.000 OA
ATOM     16  C   UNL     1      -7.910  13.085  22.543  0.00  0.00    +0.000 C 
ATOM     17  C   UNL     1      -7.456  14.510  22.360  0.00  0.00    +0.000 C 
ATOM     18  C   UNL     1      -6.267  14.817  23.215  0.00  0.00    +0.000 C 
ATOM     19  O   UNL     1      -6.285  15.554  24.194  0.00  0.00    +0.000 OA
ATOM     20  H   UNL     1      -5.435  11.474  20.923  0.00  0.00    +0.000 HD
BRANCH   8  22
ATOM     21  C   UNL     1      -1.202  15.554  23.606  0.00  0.00    +0.000 C 
ATOM     22  C   UNL     1      -1.534  14.670  22.417  0.00  0.00    +0.000 C 
ENDBRANCH   8  22
ENDBRANCH   1  12
BRANCH   6  23
ATOM     23  S   UNL     1       0.784  10.897  19.849  0.00  0.00    +0.000 S 
ATOM     24  O   UNL     1       1.409  11.462  18.677  0.00  0.00    +0.000 OA
ATOM     25  O   UNL     1       1.161  11.360  21.178  0.00  0.00    +0.000 OA
BRANCH  23  26
ATOM     26  N   UNL     1       1.010   9.221  19.823  0.00  0.00    +0.000 NA
ATOM     27  C   UNL     1       1.379   8.570  21.107  0.00  0.00    +0.000 C 
ATOM     28  C   UNL     1       1.256   7.048  20.939  0.00  0.00    +0.000 C 
ATOM     29  C   UNL     1       2.092   6.549  19.788  0.00  0.00    +0.000 A 
ATOM     30  C   UNL     1       2.430   5.196  19.675  0.00  0.00    +0.000 A 
ATOM     31  C   UNL     1       3.244   4.759  18.627  0.00  0.00    +0.000 A 
ATOM     32  C   UNL     1       3.759   5.674  17.713  0.00  0.00    +0.000 A 
ATOM     33  C   UNL     1       3.389   7.014  17.793  0.00  0.00    +0.000 A 
ATOM     34  C   UNL     1       2.503   7.446  18.790  0.00  0.00    +0.000 A 
ATOM     35  C   UNL     1       1.944   8.846  18.724  0.00  0.00    +0.000 C 
ENDBRANCH  23  26
ENDBRANCH   6  23
TORSDOF 4
ENDMDL
MODEL 7
REMARK VINA RESULT:      -7.8      3.056      4.763
REMARK  Name = 
REMARK  6 active torsions:
REMARK  status: ('A' for Active; 'I' for Inactive)
REMARK    1  A    between atoms: C_1  and  C_2
REMARK    2  A    between atoms: C_2  and  C_3
REMARK    3  A    between atoms: C_7  and  C_8
REMARK    4  A    between atoms: C_11  and  C_12
REMARK    5  A    between atoms: C_13  and  S_14
REMARK    6  A    between atoms: S_14  and  N_17
REMARK                            x       y       z     vdW  Elec       q    Type
REMARK                         _______ _______ _______ _____ _____    ______ ____
ROOT
ATOM      1  C   UNL     1       2.432   7.259  18.908  0.00  0.00    +0.000 A 
ATOM      2  C   UNL     1       2.025   7.777  17.673  0.00  0.00    +0.000 A 
ATOM      3  C   UNL     1       1.308   8.975  17.599  0.00  0.00    +0.000 A 
ATOM      4  C   UNL     1       0.935   9.665  18.764  0.00  0.00    +0.000 A 
ATOM      5  C   UNL     1       0.142  10.930  18.585  0.00  0.00    +0.000 C 
ATOM      6  C   UNL     1       1.271   9.102  20.010  0.00  0.00    +0.000 A 
ATOM      7  C   UNL     1       2.054   7.937  20.072  0.00  0.00    +0.000 A 
ENDROOT
BRANCH   1  12
ATOM      8  C   UNL     1       4.540   5.791  18.471  0.00  0.00    +0.000 A 
ATOM      9  N   UNL     1       4.910   4.525  18.680  0.00  0.00    +0.000 NA
ATOM     10  N   UNL     1       3.914   3.981  19.429  0.00  0.00    +0.000 N 
ATOM     11  C   UNL     1       2.811   4.825  19.495  0.00  0.00    +0.000 A 
ATOM     12  C   UNL     1       3.235   6.044  18.978  0.00  0.00    +0.000 A 
ATOM     13  N   UNL     1       1.522   4.498  19.897  0.00  0.00    +0.000 N 
ATOM     14  C   UNL     1       1.006   3.260  20.115  0.00  0.00    +0.000 C 
ATOM     15  O   UNL     1      -0.184   3.077  19.845  0.00  0.00    +0.000 OA
ATOM     16  C   UNL     1       1.812   2.136  20.711  0.00  0.00    +0.000 C 
ATOM     17  C   UNL     1       3.196   2.482  21.194  0.00  0.00    +0.000 C 
ATOM     18  C   UNL     1       4.124   2.740  20.050  0.00  0.00    +0.000 C 
ATOM     19  O   UNL     1       5.047   2.003  19.721  0.00  0.00    +0.000 OA
ATOM     20  H   UNL     1       0.796   5.164  19.641  0.00  0.00    +0.000 HD
BRANCH   8  22
ATOM     21  C   UNL     1       5.308   6.701  16.225  0.00  0.00    +0.000 C 
ATOM     22  C   UNL     1       5.440   6.739  17.737  0.00  0.00    +0.000 C 
ENDBRANCH   8  22
ENDBRANCH   1  12
BRANCH   6  23
ATOM     23  S   UNL     1       0.536   9.673  21.546  0.00  0.00    +0.000 S 
ATOM     24  O   UNL     1      -0.765   9.055  21.639  0.00  0.00    +0.000 OA
ATOM     25  O   UNL     1       1.521   9.474  22.600  0.00  0.00    +0.000 OA
BRANCH  23  26
ATOM     26  N   UNL     1       0.327  11.343  21.369  0.00  0.00    +0.000 NA
ATOM     27  C   UNL     1       1.557  12.174  21.312  0.00  0.00    +0.000 C 
ATOM     28  C   UNL     1       1.171  13.593  20.867  0.00  0.00    +0.000 C 
ATOM     29  C   UNL     1       0.123  14.189  21.773  0.00  0.00    +0.000 A 
ATOM     30  C   UNL     1      -0.109  15.569  21.796  0.00  0.00    +0.000 A 
ATOM     31  C   UNL     1      -1.051  16.110  22.675  0.00  0.00    +0.000 A 
ATOM     32  C   UNL     1      -1.734  15.283  23.563  0.00  0.00    +0.000 A 
ATOM     33  C   UNL     1      -1.542  13.905  23.512  0.00  0.00    +0.000 A 
ATOM     34  C   UNL     1      -0.662  13.347  22.574  0.00  0.00    +0.000 A 
ATOM     35  C   UNL     1      -0.637  11.850  22.386  0.00  0.00    +0.000 C 
ENDBRANCH  23  26
ENDBRANCH   6  23
TORSDOF 4
ENDMDL
MODEL 8
REMARK VINA RESULT:      -7.8      6.900      8.788
REMARK  Name = 
REMARK  6 active torsions:
REMARK  status: ('A' for Active; 'I' for Inactive)
REMARK    1  A    between atoms: C_1  and  C_2
REMARK    2  A    between atoms: C_2  and  C_3
REMARK    3  A    between atoms: C_7  and  C_8
REMARK    4  A    between atoms: C_11  and  C_12
REMARK    5  A    between atoms: C_13  and  S_14
REMARK    6  A    between atoms: S_14  and  N_17
REMARK                            x       y       z     vdW  Elec       q    Type
REMARK                         _______ _______ _______ _____ _____    ______ ____
ROOT
ATOM      1  C   UNL     1      -1.361  12.025  19.635  0.00  0.00    +0.000 A 
ATOM      2  C   UNL     1      -0.674  11.021  18.943  0.00  0.00    +0.000 A 
ATOM      3  C   UNL     1      -1.299  10.299  17.920  0.00  0.00    +0.000 A 
ATOM      4  C   UNL     1      -2.645  10.529  17.594  0.00  0.00    +0.000 A 
ATOM      5  C   UNL     1      -3.237   9.685  16.500  0.00  0.00    +0.000 C 
ATOM      6  C   UNL     1      -3.361  11.480  18.346  0.00  0.00    +0.000 A 
ATOM      7  C   UNL     1      -2.705  12.251  19.322  0.00  0.00    +0.000 A 
ENDROOT
BRANCH   1  12
ATOM      8  C   UNL     1      -0.645  12.634  22.065  0.00  0.00    +0.000 A 
ATOM      9  N   UNL     1       0.027  13.618  22.668  0.00  0.00    +0.000 NA
ATOM     10  N   UNL     1       0.534  14.376  21.659  0.00  0.00    +0.000 N 
ATOM     11  C   UNL     1      -0.009  14.013  20.432  0.00  0.00    +0.000 A 
ATOM     12  C   UNL     1      -0.687  12.820  20.655  0.00  0.00    +0.000 A 
ATOM     13  N   UNL     1       0.026  14.738  19.247  0.00  0.00    +0.000 N 
ATOM     14  C   UNL     1       0.410  16.029  19.071  0.00  0.00    +0.000 C 
ATOM     15  O   UNL     1      -0.169  16.688  18.203  0.00  0.00    +0.000 OA
ATOM     16  C   UNL     1       1.532  16.658  19.854  0.00  0.00    +0.000 C 
ATOM     17  C   UNL     1       2.319  15.744  20.755  0.00  0.00    +0.000 C 
ATOM     18  C   UNL     1       1.517  15.333  21.950  0.00  0.00    +0.000 C 
ATOM     19  O   UNL     1       1.734  15.707  23.096  0.00  0.00    +0.000 OA
ATOM     20  H   UNL     1      -0.633  14.444  18.529  0.00  0.00    +0.000 HD
BRANCH   8  22
ATOM     21  C   UNL     1      -0.518  10.231  22.885  0.00  0.00    +0.000 C 
ATOM     22  C   UNL     1      -1.284  11.542  22.867  0.00  0.00    +0.000 C 
ENDBRANCH   8  22
ENDBRANCH   1  12
BRANCH   6  23
ATOM     23  S   UNL     1      -5.153  11.592  18.288  0.00  0.00    +0.000 S 
ATOM     24  O   UNL     1      -5.483  12.362  17.113  0.00  0.00    +0.000 OA
ATOM     25  O   UNL     1      -5.679  10.245  18.457  0.00  0.00    +0.000 OA
BRANCH  23  26
ATOM     26  N   UNL     1      -5.607  12.480  19.656  0.00  0.00    +0.000 NA
ATOM     27  C   UNL     1      -6.512  11.808  20.624  0.00  0.00    +0.000 C 
ATOM     28  C   UNL     1      -6.570  12.651  21.907  0.00  0.00    +0.000 C 
ATOM     29  C   UNL     1      -6.997  14.068  21.618  0.00  0.00    +0.000 A 
ATOM     30  C   UNL     1      -7.473  14.901  22.638  0.00  0.00    +0.000 A 
ATOM     31  C   UNL     1      -7.907  16.195  22.344  0.00  0.00    +0.000 A 
ATOM     32  C   UNL     1      -7.909  16.651  21.028  0.00  0.00    +0.000 A 
ATOM     33  C   UNL     1      -7.393  15.846  20.017  0.00  0.00    +0.000 A 
ATOM     34  C   UNL     1      -6.875  14.577  20.316  0.00  0.00    +0.000 A 
ATOM     35  C   UNL     1      -6.123  13.818  19.251  0.00  0.00    +0.000 C 
ENDBRANCH  23  26
ENDBRANCH   6  23
TORSDOF 4
ENDMDL
MODEL 9
REMARK VINA RESULT:      -7.7      2.278      3.189
REMARK  Name = 
REMARK  6 active torsions:
REMARK  status: ('A' for Active; 'I' for Inactive)
REMARK    1  A    between atoms: C_1  and  C_2
REMARK    2  A    between atoms: C_2  and  C_3
REMARK    3  A    between atoms: C_7  and  C_8
REMARK    4  A    between atoms: C_11  and  C_12
REMARK    5  A    between atoms: C_13  and  S_14
REMARK    6  A    between atoms: S_14  and  N_17
REMARK                            x       y       z     vdW  Elec       q    Type
REMARK                         _______ _______ _______ _____ _____    ______ ____
ROOT
ATOM      1  C   UNL     1       2.508   6.544  18.868  0.00  0.00    +0.000 A 
ATOM      2  C   UNL     1       2.456   6.408  20.260  0.00  0.00    +0.000 A 
ATOM      3  C   UNL     1       1.799   7.358  21.049  0.00  0.00    +0.000 A 
ATOM      4  C   UNL     1       1.217   8.497  20.471  0.00  0.00    +0.000 A 
ATOM      5  C   UNL     1       0.556   9.475  21.403  0.00  0.00    +0.000 C 
ATOM      6  C   UNL     1       1.342   8.678  19.081  0.00  0.00    +0.000 A 
ATOM      7  C   UNL     1       1.940   7.683  18.288  0.00  0.00    +0.000 A 
ENDROOT
BRANCH   1  12
ATOM      8  C   UNL     1       2.663   4.227  17.686  0.00  0.00    +0.000 A 
ATOM      9  N   UNL     1       3.565   3.556  16.965  0.00  0.00    +0.000 NA
ATOM     10  N   UNL     1       4.572   4.442  16.738  0.00  0.00    +0.000 N 
ATOM     11  C   UNL     1       4.420   5.590  17.509  0.00  0.00    +0.000 A 
ATOM     12  C   UNL     1       3.138   5.520  18.043  0.00  0.00    +0.000 A 
ATOM     13  N   UNL     1       5.379   6.558  17.777  0.00  0.00    +0.000 N 
ATOM     14  C   UNL     1       6.713   6.502  17.525  0.00  0.00    +0.000 C 
ATOM     15  O   UNL     1       7.472   7.064  18.319  0.00  0.00    +0.000 OA
ATOM     16  C   UNL     1       7.283   5.830  16.304  0.00  0.00    +0.000 C 
ATOM     17  C   UNL     1       6.292   5.337  15.283  0.00  0.00    +0.000 C 
ATOM     18  C   UNL     1       5.549   4.136  15.780  0.00  0.00    +0.000 C 
ATOM     19  O   UNL     1       5.693   2.999  15.345  0.00  0.00    +0.000 OA
ATOM     20  H   UNL     1       5.173   7.182  18.555  0.00  0.00    +0.000 HD
BRANCH   8  22
ATOM     21  C   UNL     1       1.330   2.981  19.456  0.00  0.00    +0.000 C 
ATOM     22  C   UNL     1       1.361   3.590  18.066  0.00  0.00    +0.000 C 
ENDBRANCH   8  22
ENDBRANCH   1  12
BRANCH   6  23
ATOM     23  S   UNL     1       0.985  10.248  18.285  0.00  0.00    +0.000 S 
ATOM     24  O   UNL     1       2.134  10.574  17.474  0.00  0.00    +0.000 OA
ATOM     25  O   UNL     1      -0.334  10.140  17.679  0.00  0.00    +0.000 OA
BRANCH  23  26
ATOM     26  N   UNL     1       0.869  11.386  19.532  0.00  0.00    +0.000 NA
ATOM     27  C   UNL     1      -0.394  12.164  19.619  0.00  0.00    +0.000 C 
ATOM     28  C   UNL     1      -0.417  12.916  20.959  0.00  0.00    +0.000 C 
ATOM     29  C   UNL     1       0.802  13.789  21.122  0.00  0.00    +0.000 A 
ATOM     30  C   UNL     1       0.825  14.827  22.061  0.00  0.00    +0.000 A 
ATOM     31  C   UNL     1       1.944  15.656  22.167  0.00  0.00    +0.000 A 
ATOM     32  C   UNL     1       3.027  15.481  21.309  0.00  0.00    +0.000 A 
ATOM     33  C   UNL     1       3.030  14.422  20.405  0.00  0.00    +0.000 A 
ATOM     34  C   UNL     1       1.947  13.533  20.353  0.00  0.00    +0.000 A 
ATOM     35  C   UNL     1       2.066  12.273  19.531  0.00  0.00    +0.000 C 
ENDBRANCH  23  26
ENDBRANCH   6  23
TORSDOF 4
ENDMDL
