MODEL 1
REMARK VINA RESULT:      -6.3      0.000      0.000
REMARK  Name = 
REMARK  13 active torsions:
REMARK  status: ('A' for Active; 'I' for Inactive)
REMARK    1  A    between atoms: C_1  and  C_2
REMARK    2  A    between atoms: C_2  and  C_3
REMARK    3  A    between atoms: C_2  and  N_4
REMARK    4  A    between atoms: C_8  and  C_9
REMARK    5  A    between atoms: C_9  and  N_10
REMARK    6  A    between atoms: N_10  and  C_11
REMARK    7  A    between atoms: N_10  and  C_12
REMARK    8  A    between atoms: C_12  and  C_13
REMARK    9  A    between atoms: C_16  and  C_17
REMARK   10  A    between atoms: C_17  and  N_18
REMARK   11  A    between atoms: N_18  and  C_19
REMARK   12  A    between atoms: N_18  and  S_20
REMARK   13  A    between atoms: S_20  and  C_21
REMARK                            x       y       z     vdW  Elec       q    Type
REMARK                         _______ _______ _______ _____ _____    ______ ____
ROOT
ATOM      1  C   UNL     1       2.525   4.426  19.211  0.00  0.00    +0.000 C 
ENDROOT
BRANCH   1   2
ATOM      2  C   UNL     1       2.240   5.851  19.555  0.00  0.00    +0.000 A 
ATOM      3  C   UNL     1       1.921   6.492  20.735  0.00  0.00    +0.000 A 
ATOM      4  C   UNL     1       1.747   7.860  20.419  0.00  0.00    +0.000 A 
ATOM      5  C   UNL     1       1.975   7.983  19.064  0.00  0.00    +0.000 A 
ATOM      6  O   UNL     1       2.277   6.759  18.533  0.00  0.00    +0.000 OA
BRANCH   5   7
ATOM      7  C   UNL     1       1.907   9.125  18.105  0.00  0.00    +0.000 C 
BRANCH   7   8
ATOM      8  N   UNL     1       1.438  10.375  18.766  0.00  0.00    +0.000 NA
ATOM      9  C   UNL     1       2.123  11.576  18.207  0.00  0.00    +0.000 C 
BRANCH   8  10
ATOM     10  S   UNL     1      -0.267  10.544  18.739  0.00  0.00    +0.000 S 
ATOM     11  C   UNL     1      -0.468  12.296  18.463  0.00  0.00    +0.000 C 
ATOM     12  O   UNL     1      -0.767   9.868  17.559  0.00  0.00    +0.000 OA
ATOM     13  O   UNL     1      -0.759  10.223  20.056  0.00  0.00    +0.000 OA
ENDBRANCH   8  10
ENDBRANCH   7   8
ENDBRANCH   5   7
ENDBRANCH   1   2
BRANCH   1  14
ATOM     14  N   UNL     1       3.370   4.294  18.015  0.00  0.00    +0.000 NA
ATOM     15  C   UNL     1       2.640   3.609  16.945  0.00  0.00    +0.000 C 
BRANCH  14  16
ATOM     16  C   UNL     1       4.681   3.665  18.280  0.00  0.00    +0.000 C 
BRANCH  16  21
ATOM     17  N   UNL     1       6.535   5.347  17.710  0.00  0.00    +0.000 N 
ATOM     18  C   UNL     1       7.521   5.946  18.447  0.00  0.00    +0.000 A 
ATOM     19  N   UNL     1       7.405   5.613  19.710  0.00  0.00    +0.000 NA
ATOM     20  N   UNL     1       6.342   4.750  19.804  0.00  0.00    +0.000 NA
ATOM     21  C   UNL     1       5.812   4.593  18.600  0.00  0.00    +0.000 A 
BRANCH  17  23
ATOM     22  C   UNL     1       6.334   4.123  15.558  0.00  0.00    +0.000 C 
ATOM     23  C   UNL     1       6.384   5.485  16.269  0.00  0.00    +0.000 C 
ATOM     24  C   UNL     1       5.179   6.368  15.923  0.00  0.00    +0.000 C 
ENDBRANCH  17  23
ENDBRANCH  16  21
ENDBRANCH  14  16
ENDBRANCH   1  14
TORSDOF 8
ENDMDL
MODEL 2
REMARK VINA RESULT:      -6.2      3.101      7.926
REMARK  Name = 
REMARK  13 active torsions:
REMARK  status: ('A' for Active; 'I' for Inactive)
REMARK    1  A    between atoms: C_1  and  C_2
REMARK    2  A    between atoms: C_2  and  C_3
REMARK    3  A    between atoms: C_2  and  N_4
REMARK    4  A    between atoms: C_8  and  C_9
REMARK    5  A    between atoms: C_9  and  N_10
REMARK    6  A    between atoms: N_10  and  C_11
REMARK    7  A    between atoms: N_10  and  C_12
REMARK    8  A    between atoms: C_12  and  C_13
REMARK    9  A    between atoms: C_16  and  C_17
REMARK   10  A    between atoms: C_17  and  N_18
REMARK   11  A    between atoms: N_18  and  C_19
REMARK   12  A    between atoms: N_18  and  S_20
REMARK   13  A    between atoms: S_20  and  C_21
REMARK                            x       y       z     vdW  Elec       q    Type
REMARK                         _______ _______ _______ _____ _____    ______ ____
ROOT
ATOM      1  C   UNL     1       1.293   7.553  20.649  0.00  0.00    +0.000 C 
ENDROOT
BRANCH   1   2
ATOM      2  C   UNL     1       2.262   7.331  19.535  0.00  0.00    +0.000 A 
ATOM      3  C   UNL     1       2.436   7.929  18.303  0.00  0.00    +0.000 A 
ATOM      4  C   UNL     1       3.520   7.265  17.680  0.00  0.00    +0.000 A 
ATOM      5  C   UNL     1       3.951   6.301  18.566  0.00  0.00    +0.000 A 
ATOM      6  O   UNL     1       3.187   6.338  19.699  0.00  0.00    +0.000 OA
BRANCH   5   7
ATOM      7  C   UNL     1       5.004   5.242  18.508  0.00  0.00    +0.000 C 
BRANCH   7   8
ATOM      8  N   UNL     1       6.268   5.753  17.909  0.00  0.00    +0.000 NA
ATOM      9  C   UNL     1       7.431   5.518  18.813  0.00  0.00    +0.000 C 
BRANCH   8  10
ATOM     10  S   UNL     1       6.554   5.143  16.333  0.00  0.00    +0.000 S 
ATOM     11  C   UNL     1       5.313   3.869  16.191  0.00  0.00    +0.000 C 
ATOM     12  O   UNL     1       6.210   6.179  15.382  0.00  0.00    +0.000 OA
ATOM     13  O   UNL     1       7.857   4.524  16.334  0.00  0.00    +0.000 OA
ENDBRANCH   8  10
ENDBRANCH   7   8
ENDBRANCH   5   7
ENDBRANCH   1   2
BRANCH   1  14
ATOM     14  N   UNL     1       1.097   8.980  20.948  0.00  0.00    +0.000 NA
ATOM     15  C   UNL     1       1.328   9.242  22.371  0.00  0.00    +0.000 C 
BRANCH  14  16
ATOM     16  C   UNL     1      -0.207   9.507  20.493  0.00  0.00    +0.000 C 
BRANCH  16  21
ATOM     17  N   UNL     1      -1.078  11.274  18.847  0.00  0.00    +0.000 N 
ATOM     18  C   UNL     1      -0.588  12.475  18.410  0.00  0.00    +0.000 A 
ATOM     19  N   UNL     1       0.519  12.770  19.047  0.00  0.00    +0.000 NA
ATOM     20  N   UNL     1       0.784  11.725  19.898  0.00  0.00    +0.000 NA
ATOM     21  C   UNL     1      -0.180  10.826  19.783  0.00  0.00    +0.000 A 
BRANCH  17  23
ATOM     22  C   UNL     1      -3.450  11.630  18.204  0.00  0.00    +0.000 C 
ATOM     23  C   UNL     1      -2.282  10.639  18.332  0.00  0.00    +0.000 C 
ATOM     24  C   UNL     1      -1.998   9.900  17.019  0.00  0.00    +0.000 C 
ENDBRANCH  17  23
ENDBRANCH  16  21
ENDBRANCH  14  16
ENDBRANCH   1  14
TORSDOF 8
ENDMDL
MODEL 3
REMARK VINA RESULT:      -6.2      1.399      1.911
REMARK  Name = 
REMARK  13 active torsions:
REMARK  status: ('A' for Active; 'I' for Inactive)
REMARK    1  A    between atoms: C_1  and  C_2
REMARK    2  A    between atoms: C_2  and  C_3
REMARK    3  A    between atoms: C_2  and  N_4
REMARK    4  A    between atoms: C_8  and  C_9
REMARK    5  A    between atoms: C_9  and  N_10
REMARK    6  A    between atoms: N_10  and  C_11
REMARK    7  A    between atoms: N_10  and  C_12
REMARK    8  A    between atoms: C_12  and  C_13
REMARK    9  A    between atoms: C_16  and  C_17
REMARK   10  A    between atoms: C_17  and  N_18
REMARK   11  A    between atoms: N_18  and  C_19
REMARK   12  A    between atoms: N_18  and  S_20
REMARK   13  A    between atoms: S_20  and  C_21
REMARK                            x       y       z     vdW  Elec       q    Type
REMARK                         _______ _______ _______ _____ _____    ______ ____
ROOT
ATOM      1  C   UNL     1       2.955   4.916  19.525  0.00  0.00    +0.000 C 
ENDROOT
BRANCH   1   2
ATOM      2  C   UNL     1       2.537   6.335  19.319  0.00  0.00    +0.000 A 
ATOM      3  C   UNL     1       2.478   7.150  18.207  0.00  0.00    +0.000 A 
ATOM      4  C   UNL     1       2.013   8.410  18.652  0.00  0.00    +0.000 A 
ATOM      5  C   UNL     1       1.808   8.296  20.011  0.00  0.00    +0.000 A 
ATOM      6  O   UNL     1       2.126   7.031  20.422  0.00  0.00    +0.000 OA
BRANCH   5   7
ATOM      7  C   UNL     1       1.380   9.252  21.075  0.00  0.00    +0.000 C 
BRANCH   7   8
ATOM      8  N   UNL     1      -0.102   9.397  21.123  0.00  0.00    +0.000 NA
ATOM      9  C   UNL     1      -0.646   8.982  22.448  0.00  0.00    +0.000 C 
BRANCH   8  10
ATOM     10  S   UNL     1      -0.634  10.965  20.680  0.00  0.00    +0.000 S 
ATOM     11  C   UNL     1       0.906  11.822  20.401  0.00  0.00    +0.000 C 
ATOM     12  O   UNL     1      -1.303  10.867  19.398  0.00  0.00    +0.000 OA
ATOM     13  O   UNL     1      -1.287  11.545  21.827  0.00  0.00    +0.000 OA
ENDBRANCH   8  10
ENDBRANCH   7   8
ENDBRANCH   5   7
ENDBRANCH   1   2
BRANCH   1  14
ATOM     14  N   UNL     1       3.364   4.263  18.272  0.00  0.00    +0.000 NA
ATOM     15  C   UNL     1       2.332   3.324  17.823  0.00  0.00    +0.000 C 
BRANCH  14  16
ATOM     16  C   UNL     1       4.697   3.629  18.339  0.00  0.00    +0.000 C 
BRANCH  16  21
ATOM     17  N   UNL     1       6.576   5.226  17.627  0.00  0.00    +0.000 N 
ATOM     18  C   UNL     1       7.595   5.842  18.304  0.00  0.00    +0.000 A 
ATOM     19  N   UNL     1       7.504   5.586  19.586  0.00  0.00    +0.000 NA
ATOM     20  N   UNL     1       6.422   4.757  19.756  0.00  0.00    +0.000 NA
ATOM     21  C   UNL     1       5.858   4.544  18.577  0.00  0.00    +0.000 A 
BRANCH  17  23
ATOM     22  C   UNL     1       6.338   3.886  15.550  0.00  0.00    +0.000 C 
ATOM     23  C   UNL     1       6.392   5.285  16.184  0.00  0.00    +0.000 C 
ATOM     24  C   UNL     1       5.171   6.138  15.819  0.00  0.00    +0.000 C 
ENDBRANCH  17  23
ENDBRANCH  16  21
ENDBRANCH  14  16
ENDBRANCH   1  14
TORSDOF 8
ENDMDL
MODEL 4
REMARK VINA RESULT:      -6.2      4.021      5.915
REMARK  Name = 
REMARK  13 active torsions:
REMARK  status: ('A' for Active; 'I' for Inactive)
REMARK    1  A    between atoms: C_1  and  C_2
REMARK    2  A    between atoms: C_2  and  C_3
REMARK    3  A    between atoms: C_2  and  N_4
REMARK    4  A    between atoms: C_8  and  C_9
REMARK    5  A    between atoms: C_9  and  N_10
REMARK    6  A    between atoms: N_10  and  C_11
REMARK    7  A    between atoms: N_10  and  C_12
REMARK    8  A    between atoms: C_12  and  C_13
REMARK    9  A    between atoms: C_16  and  C_17
REMARK   10  A    between atoms: C_17  and  N_18
REMARK   11  A    between atoms: N_18  and  C_19
REMARK   12  A    between atoms: N_18  and  S_20
REMARK   13  A    between atoms: S_20  and  C_21
REMARK                            x       y       z     vdW  Elec       q    Type
REMARK                         _______ _______ _______ _____ _____    ______ ____
ROOT
ATOM      1  C   UNL     1       5.463   5.722  16.294  0.00  0.00    +0.000 C 
ENDROOT
BRANCH   1   2
ATOM      2  C   UNL     1       4.222   5.746  17.124  0.00  0.00    +0.000 A 
ATOM      3  C   UNL     1       3.522   6.761  17.746  0.00  0.00    +0.000 A 
ATOM      4  C   UNL     1       2.427   6.154  18.405  0.00  0.00    +0.000 A 
ATOM      5  C   UNL     1       2.514   4.801  18.147  0.00  0.00    +0.000 A 
ATOM      6  O   UNL     1       3.607   4.549  17.366  0.00  0.00    +0.000 OA
BRANCH   5   7
ATOM      7  C   UNL     1       1.717   3.614  18.579  0.00  0.00    +0.000 C 
BRANCH   7   8
ATOM      8  N   UNL     1       2.486   2.743  19.511  0.00  0.00    +0.000 NA
ATOM      9  C   UNL     1       3.955   2.878  19.294  0.00  0.00    +0.000 C 
BRANCH   8  10
ATOM     10  S   UNL     1       2.060   2.984  21.154  0.00  0.00    +0.000 S 
ATOM     11  C   UNL     1       2.327   4.736  21.360  0.00  0.00    +0.000 C 
ATOM     12  O   UNL     1       0.636   2.752  21.287  0.00  0.00    +0.000 OA
ATOM     13  O   UNL     1       3.017   2.269  21.962  0.00  0.00    +0.000 OA
ENDBRANCH   8  10
ENDBRANCH   7   8
ENDBRANCH   5   7
ENDBRANCH   1   2
BRANCH   1  14
ATOM     14  N   UNL     1       6.232   4.480  16.469  0.00  0.00    +0.000 NA
ATOM     15  C   UNL     1       7.558   4.771  17.018  0.00  0.00    +0.000 C 
BRANCH  14  16
ATOM     16  C   UNL     1       6.308   3.652  15.247  0.00  0.00    +0.000 C 
BRANCH  16  21
ATOM     17  N   UNL     1       6.620   3.950  12.716  0.00  0.00    +0.000 N 
ATOM     18  C   UNL     1       7.382   4.795  11.955  0.00  0.00    +0.000 A 
ATOM     19  N   UNL     1       8.007   5.655  12.723  0.00  0.00    +0.000 NA
ATOM     20  N   UNL     1       7.676   5.350  14.021  0.00  0.00    +0.000 NA
ATOM     21  C   UNL     1       6.836   4.327  14.019  0.00  0.00    +0.000 A 
BRANCH  17  23
ATOM     22  C   UNL     1       4.524   3.365  11.521  0.00  0.00    +0.000 C 
ATOM     23  C   UNL     1       5.816   2.860  12.183  0.00  0.00    +0.000 C 
ATOM     24  C   UNL     1       6.642   1.972  11.246  0.00  0.00    +0.000 C 
ENDBRANCH  17  23
ENDBRANCH  16  21
ENDBRANCH  14  16
ENDBRANCH   1  14
TORSDOF 8
ENDMDL
MODEL 5
REMARK VINA RESULT:      -6.1      2.159      3.710
REMARK  Name = 
REMARK  13 active torsions:
REMARK  status: ('A' for Active; 'I' for Inactive)
REMARK    1  A    between atoms: C_1  and  C_2
REMARK    2  A    between atoms: C_2  and  C_3
REMARK    3  A    between atoms: C_2  and  N_4
REMARK    4  A    between atoms: C_8  and  C_9
REMARK    5  A    between atoms: C_9  and  N_10
REMARK    6  A    between atoms: N_10  and  C_11
REMARK    7  A    between atoms: N_10  and  C_12
REMARK    8  A    between atoms: C_12  and  C_13
REMARK    9  A    between atoms: C_16  and  C_17
REMARK   10  A    between atoms: C_17  and  N_18
REMARK   11  A    between atoms: N_18  and  C_19
REMARK   12  A    between atoms: N_18  and  S_20
REMARK   13  A    between atoms: S_20  and  C_21
REMARK                            x       y       z     vdW  Elec       q    Type
REMARK                         _______ _______ _______ _____ _____    ______ ____
ROOT
ATOM      1  C   UNL     1       3.042   7.469  17.509  0.00  0.00    +0.000 C 
ENDROOT
BRANCH   1   2
ATOM      2  C   UNL     1       2.237   8.001  18.649  0.00  0.00    +0.000 A 
ATOM      3  C   UNL     1       2.090   7.607  19.964  0.00  0.00    +0.000 A 
ATOM      4  C   UNL     1       1.167   8.503  20.554  0.00  0.00    +0.000 A 
ATOM      5  C   UNL     1       0.804   9.398  19.569  0.00  0.00    +0.000 A 
ATOM      6  O   UNL     1       1.455   9.095  18.406  0.00  0.00    +0.000 OA
BRANCH   5   7
ATOM      7  C   UNL     1      -0.155  10.542  19.516  0.00  0.00    +0.000 C 
BRANCH   7   8
ATOM      8  N   UNL     1       0.490  11.822  19.924  0.00  0.00    +0.000 NA
ATOM      9  C   UNL     1       0.572  12.777  18.782  0.00  0.00    +0.000 C 
BRANCH   8  10
ATOM     10  S   UNL     1      -0.248  12.533  21.297  0.00  0.00    +0.000 S 
ATOM     11  C   UNL     1       0.749  13.991  21.549  0.00  0.00    +0.000 C 
ATOM     12  O   UNL     1      -1.571  12.984  20.913  0.00  0.00    +0.000 OA
ATOM     13  O   UNL     1      -0.053  11.639  22.411  0.00  0.00    +0.000 OA
ENDBRANCH   8  10
ENDBRANCH   7   8
ENDBRANCH   5   7
ENDBRANCH   1   2
BRANCH   1  14
ATOM     14  N   UNL     1       3.975   6.411  17.924  0.00  0.00    +0.000 NA
ATOM     15  C   UNL     1       5.296   6.630  17.327  0.00  0.00    +0.000 C 
BRANCH  14  16
ATOM     16  C   UNL     1       3.474   5.044  17.672  0.00  0.00    +0.000 C 
BRANCH  16  21
ATOM     17  N   UNL     1       3.052   3.331  19.537  0.00  0.00    +0.000 N 
ATOM     18  C   UNL     1       3.877   2.554  20.304  0.00  0.00    +0.000 A 
ATOM     19  N   UNL     1       5.122   2.699  19.919  0.00  0.00    +0.000 NA
ATOM     20  N   UNL     1       5.123   3.617  18.898  0.00  0.00    +0.000 NA
ATOM     21  C   UNL     1       3.875   3.995  18.662  0.00  0.00    +0.000 A 
BRANCH  17  23
ATOM     22  C   UNL     1       0.847   2.542  18.713  0.00  0.00    +0.000 C 
ATOM     23  C   UNL     1       1.610   3.424  19.713  0.00  0.00    +0.000 C 
ATOM     24  C   UNL     1       1.212   3.139  21.165  0.00  0.00    +0.000 C 
ENDBRANCH  17  23
ENDBRANCH  16  21
ENDBRANCH  14  16
ENDBRANCH   1  14
TORSDOF 8
ENDMDL
MODEL 6
REMARK VINA RESULT:      -6.1      4.428      6.738
REMARK  Name = 
REMARK  13 active torsions:
REMARK  status: ('A' for Active; 'I' for Inactive)
REMARK    1  A    between atoms: C_1  and  C_2
REMARK    2  A    between atoms: C_2  and  C_3
REMARK    3  A    between atoms: C_2  and  N_4
REMARK    4  A    between atoms: C_8  and  C_9
REMARK    5  A    between atoms: C_9  and  N_10
REMARK    6  A    between atoms: N_10  and  C_11
REMARK    7  A    between atoms: N_10  and  C_12
REMARK    8  A    between atoms: C_12  and  C_13
REMARK    9  A    between atoms: C_16  and  C_17
REMARK   10  A    between atoms: C_17  and  N_18
REMARK   11  A    between atoms: N_18  and  C_19
REMARK   12  A    between atoms: N_18  and  S_20
REMARK   13  A    between atoms: S_20  and  C_21
REMARK                            x       y       z     vdW  Elec       q    Type
REMARK                         _______ _______ _______ _____ _____    ______ ____
ROOT
ATOM      1  C   UNL     1       5.777   6.443  16.511  0.00  0.00    +0.000 C 
ENDROOT
BRANCH   1   2
ATOM      2  C   UNL     1       6.842   7.103  17.324  0.00  0.00    +0.000 A 
ATOM      3  C   UNL     1       7.730   6.637  18.273  0.00  0.00    +0.000 A 
ATOM      4  C   UNL     1       8.484   7.753  18.704  0.00  0.00    +0.000 A 
ATOM      5  C   UNL     1       8.020   8.840  17.993  0.00  0.00    +0.000 A 
ATOM      6  O   UNL     1       7.018   8.448  17.150  0.00  0.00    +0.000 OA
BRANCH   5   7
ATOM      7  C   UNL     1       8.346  10.298  18.005  0.00  0.00    +0.000 C 
BRANCH   7   8
ATOM      8  N   UNL     1       9.656  10.565  18.662  0.00  0.00    +0.000 NA
ATOM      9  C   UNL     1      10.630  11.166  17.706  0.00  0.00    +0.000 C 
BRANCH   8  10
ATOM     10  S   UNL     1       9.508  11.499  20.091  0.00  0.00    +0.000 S 
ATOM     11  C   UNL     1      11.197  11.979  20.405  0.00  0.00    +0.000 C 
ATOM     12  O   UNL     1       8.777  12.706  19.764  0.00  0.00    +0.000 OA
ATOM     13  O   UNL     1       9.072  10.618  21.146  0.00  0.00    +0.000 OA
ENDBRANCH   8  10
ENDBRANCH   7   8
ENDBRANCH   5   7
ENDBRANCH   1   2
BRANCH   1  14
ATOM     14  N   UNL     1       4.579   6.127  17.303  0.00  0.00    +0.000 NA
ATOM     15  C   UNL     1       3.945   7.356  17.786  0.00  0.00    +0.000 C 
BRANCH  14  16
ATOM     16  C   UNL     1       4.827   5.165  18.398  0.00  0.00    +0.000 C 
BRANCH  16  21
ATOM     17  N   UNL     1       3.136   3.494  19.365  0.00  0.00    +0.000 N 
ATOM     18  C   UNL     1       2.698   2.260  18.964  0.00  0.00    +0.000 A 
ATOM     19  N   UNL     1       3.228   1.947  17.807  0.00  0.00    +0.000 NA
ATOM     20  N   UNL     1       4.061   2.981  17.452  0.00  0.00    +0.000 NA
ATOM     21  C   UNL     1       4.002   3.917  18.387  0.00  0.00    +0.000 A 
BRANCH  17  23
ATOM     22  C   UNL     1       1.734   5.260  20.405  0.00  0.00    +0.000 C 
ATOM     23  C   UNL     1       2.760   4.135  20.617  0.00  0.00    +0.000 C 
ATOM     24  C   UNL     1       2.287   3.102  21.645  0.00  0.00    +0.000 C 
ENDBRANCH  17  23
ENDBRANCH  16  21
ENDBRANCH  14  16
ENDBRANCH   1  14
TORSDOF 8
ENDMDL
MODEL 7
REMARK VINA RESULT:      -6.1      1.623      2.458
REMARK  Name = 
REMARK  13 active torsions:
REMARK  status: ('A' for Active; 'I' for Inactive)
REMARK    1  A    between atoms: C_1  and  C_2
REMARK    2  A    between atoms: C_2  and  C_3
REMARK    3  A    between atoms: C_2  and  N_4
REMARK    4  A    between atoms: C_8  and  C_9
REMARK    5  A    between atoms: C_9  and  N_10
REMARK    6  A    between atoms: N_10  and  C_11
REMARK    7  A    between atoms: N_10  and  C_12
REMARK    8  A    between atoms: C_12  and  C_13
REMARK    9  A    between atoms: C_16  and  C_17
REMARK   10  A    between atoms: C_17  and  N_18
REMARK   11  A    between atoms: N_18  and  C_19
REMARK   12  A    between atoms: N_18  and  S_20
REMARK   13  A    between atoms: S_20  and  C_21
REMARK                            x       y       z     vdW  Elec       q    Type
REMARK                         _______ _______ _______ _____ _____    ______ ____
ROOT
ATOM      1  C   UNL     1       2.742   5.413  19.341  0.00  0.00    +0.000 C 
ENDROOT
BRANCH   1   2
ATOM      2  C   UNL     1       2.649   6.762  18.707  0.00  0.00    +0.000 A 
ATOM      3  C   UNL     1       3.408   7.412  17.754  0.00  0.00    +0.000 A 
ATOM      4  C   UNL     1       2.828   8.690  17.576  0.00  0.00    +0.000 A 
ATOM      5  C   UNL     1       1.743   8.751  18.425  0.00  0.00    +0.000 A 
ATOM      6  O   UNL     1       1.630   7.577  19.117  0.00  0.00    +0.000 OA
BRANCH   5   7
ATOM      7  C   UNL     1       0.751   9.817  18.758  0.00  0.00    +0.000 C 
BRANCH   7   8
ATOM      8  N   UNL     1       1.365  10.912  19.560  0.00  0.00    +0.000 NA
ATOM      9  C   UNL     1       1.765  12.059  18.696  0.00  0.00    +0.000 C 
BRANCH   8  10
ATOM     10  S   UNL     1       0.379  11.414  20.869  0.00  0.00    +0.000 S 
ATOM     11  C   UNL     1       0.755  13.155  20.977  0.00  0.00    +0.000 C 
ATOM     12  O   UNL     1      -1.005  11.303  20.456  0.00  0.00    +0.000 OA
ATOM     13  O   UNL     1       0.864  10.760  22.058  0.00  0.00    +0.000 OA
ENDBRANCH   8  10
ENDBRANCH   7   8
ENDBRANCH   5   7
ENDBRANCH   1   2
BRANCH   1  14
ATOM     14  N   UNL     1       3.248   4.390  18.414  0.00  0.00    +0.000 NA
ATOM     15  C   UNL     1       2.448   3.166  18.516  0.00  0.00    +0.000 C 
BRANCH  14  16
ATOM     16  C   UNL     1       4.693   4.119  18.559  0.00  0.00    +0.000 C 
BRANCH  16  21
ATOM     17  N   UNL     1       6.498   5.356  17.217  0.00  0.00    +0.000 N 
ATOM     18  C   UNL     1       6.930   5.273  15.921  0.00  0.00    +0.000 A 
ATOM     19  N   UNL     1       6.311   4.297  15.302  0.00  0.00    +0.000 NA
ATOM     20  N   UNL     1       5.428   3.747  16.198  0.00  0.00    +0.000 NA
ATOM     21  C   UNL     1       5.544   4.380  17.355  0.00  0.00    +0.000 A 
BRANCH  17  23
ATOM     22  C   UNL     1       7.898   5.732  19.234  0.00  0.00    +0.000 C 
ATOM     23  C   UNL     1       6.965   6.346  18.179  0.00  0.00    +0.000 C 
ATOM     24  C   UNL     1       7.597   7.548  17.469  0.00  0.00    +0.000 C 
ENDBRANCH  17  23
ENDBRANCH  16  21
ENDBRANCH  14  16
ENDBRANCH   1  14
TORSDOF 8
ENDMDL
MODEL 8
REMARK VINA RESULT:      -6.1      2.500      4.158
REMARK  Name = 
REMARK  13 active torsions:
REMARK  status: ('A' for Active; 'I' for Inactive)
REMARK    1  A    between atoms: C_1  and  C_2
REMARK    2  A    between atoms: C_2  and  C_3
REMARK    3  A    between atoms: C_2  and  N_4
REMARK    4  A    between atoms: C_8  and  C_9
REMARK    5  A    between atoms: C_9  and  N_10
REMARK    6  A    between atoms: N_10  and  C_11
REMARK    7  A    between atoms: N_10  and  C_12
REMARK    8  A    between atoms: C_12  and  C_13
REMARK    9  A    between atoms: C_16  and  C_17
REMARK   10  A    between atoms: C_17  and  N_18
REMARK   11  A    between atoms: N_18  and  C_19
REMARK   12  A    between atoms: N_18  and  S_20
REMARK   13  A    between atoms: S_20  and  C_21
REMARK                            x       y       z     vdW  Elec       q    Type
REMARK                         _______ _______ _______ _____ _____    ______ ____
ROOT
ATOM      1  C   UNL     1       2.995   7.230  18.127  0.00  0.00    +0.000 C 
ENDROOT
BRANCH   1   2
ATOM      2  C   UNL     1       2.200   7.786  19.263  0.00  0.00    +0.000 A 
ATOM      3  C   UNL     1       1.904   7.315  20.527  0.00  0.00    +0.000 A 
ATOM      4  C   UNL     1       1.085   8.292  21.141  0.00  0.00    +0.000 A 
ATOM      5  C   UNL     1       0.930   9.309  20.222  0.00  0.00    +0.000 A 
ATOM      6  O   UNL     1       1.609   9.004  19.076  0.00  0.00    +0.000 OA
BRANCH   5   7
ATOM      7  C   UNL     1       0.159  10.588  20.218  0.00  0.00    +0.000 C 
BRANCH   7   8
ATOM      8  N   UNL     1       0.538  11.465  21.362  0.00  0.00    +0.000 NA
ATOM      9  C   UNL     1       1.226  12.702  20.892  0.00  0.00    +0.000 C 
BRANCH   8  10
ATOM     10  S   UNL     1      -0.782  11.823  22.394  0.00  0.00    +0.000 S 
ATOM     11  C   UNL     1      -2.053  12.292  21.233  0.00  0.00    +0.000 C 
ATOM     12  O   UNL     1      -1.211  10.588  23.018  0.00  0.00    +0.000 OA
ATOM     13  O   UNL     1      -0.422  12.977  23.179  0.00  0.00    +0.000 OA
ENDBRANCH   8  10
ENDBRANCH   7   8
ENDBRANCH   5   7
ENDBRANCH   1   2
BRANCH   1  14
ATOM     14  N   UNL     1       3.529   5.891  18.417  0.00  0.00    +0.000 NA
ATOM     15  C   UNL     1       4.991   5.888  18.311  0.00  0.00    +0.000 C 
BRANCH  14  16
ATOM     16  C   UNL     1       2.914   4.818  17.608  0.00  0.00    +0.000 C 
BRANCH  16  21
ATOM     17  N   UNL     1       2.781   2.939  19.351  0.00  0.00    +0.000 N 
ATOM     18  C   UNL     1       3.226   1.644  19.375  0.00  0.00    +0.000 A 
ATOM     19  N   UNL     1       3.759   1.329  18.219  0.00  0.00    +0.000 NA
ATOM     20  N   UNL     1       3.695   2.449  17.427  0.00  0.00    +0.000 NA
ATOM     21  C   UNL     1       3.100   3.418  18.105  0.00  0.00    +0.000 A 
BRANCH  17  23
ATOM     22  C   UNL     1       0.666   3.894  20.233  0.00  0.00    +0.000 C 
ATOM     23  C   UNL     1       2.157   3.616  20.478  0.00  0.00    +0.000 C 
ATOM     24  C   UNL     1       2.400   2.851  21.784  0.00  0.00    +0.000 C 
ENDBRANCH  17  23
ENDBRANCH  16  21
ENDBRANCH  14  16
ENDBRANCH   1  14
TORSDOF 8
ENDMDL
MODEL 9
REMARK VINA RESULT:      -6.0      3.188      8.218
REMARK  Name = 
REMARK  13 active torsions:
REMARK  status: ('A' for Active; 'I' for Inactive)
REMARK    1  A    between atoms: C_1  and  C_2
REMARK    2  A    between atoms: C_2  and  C_3
REMARK    3  A    between atoms: C_2  and  N_4
REMARK    4  A    between atoms: C_8  and  C_9
REMARK    5  A    between atoms: C_9  and  N_10
REMARK    6  A    between atoms: N_10  and  C_11
REMARK    7  A    between atoms: N_10  and  C_12
REMARK    8  A    between atoms: C_12  and  C_13
REMARK    9  A    between atoms: C_16  and  C_17
REMARK   10  A    between atoms: C_17  and  N_18
REMARK   11  A    between atoms: N_18  and  C_19
REMARK   12  A    between atoms: N_18  and  S_20
REMARK   13  A    between atoms: S_20  and  C_21
REMARK                            x       y       z     vdW  Elec       q    Type
REMARK                         _______ _______ _______ _____ _____    ______ ____
ROOT
ATOM      1  C   UNL     1       1.887   9.937  18.130  0.00  0.00    +0.000 C 
ENDROOT
BRANCH   1   2
ATOM      2  C   UNL     1       2.446   8.553  18.183  0.00  0.00    +0.000 A 
ATOM      3  C   UNL     1       3.400   7.892  17.436  0.00  0.00    +0.000 A 
ATOM      4  C   UNL     1       3.483   6.579  17.957  0.00  0.00    +0.000 A 
ATOM      5  C   UNL     1       2.580   6.511  18.998  0.00  0.00    +0.000 A 
ATOM      6  O   UNL     1       1.946   7.714  19.139  0.00  0.00    +0.000 OA
BRANCH   5   7
ATOM      7  C   UNL     1       2.145   5.418  19.918  0.00  0.00    +0.000 C 
BRANCH   7   8
ATOM      8  N   UNL     1       2.653   4.089  19.476  0.00  0.00    +0.000 NA
ATOM      9  C   UNL     1       3.065   3.251  20.639  0.00  0.00    +0.000 C 
BRANCH   8  10
ATOM     10  S   UNL     1       1.556   3.262  18.452  0.00  0.00    +0.000 S 
ATOM     11  C   UNL     1       2.568   1.944  17.801  0.00  0.00    +0.000 C 
ATOM     12  O   UNL     1       0.542   2.647  19.284  0.00  0.00    +0.000 OA
ATOM     13  O   UNL     1       1.206   4.154  17.375  0.00  0.00    +0.000 OA
ENDBRANCH   8  10
ENDBRANCH   7   8
ENDBRANCH   5   7
ENDBRANCH   1   2
BRANCH   1  14
ATOM     14  N   UNL     1       0.690  10.093  18.970  0.00  0.00    +0.000 NA
ATOM     15  C   UNL     1      -0.519  10.103  18.142  0.00  0.00    +0.000 C 
BRANCH  14  16
ATOM     16  C   UNL     1       0.749  11.257  19.878  0.00  0.00    +0.000 C 
BRANCH  16  21
ATOM     17  N   UNL     1      -0.958  11.853  21.700  0.00  0.00    +0.000 N 
ATOM     18  C   UNL     1      -1.160  11.412  22.980  0.00  0.00    +0.000 A 
ATOM     19  N   UNL     1      -0.330  10.436  23.258  0.00  0.00    +0.000 NA
ATOM     20  N   UNL     1       0.460  10.251  22.149  0.00  0.00    +0.000 NA
ATOM     21  C   UNL     1       0.078  11.100  21.207  0.00  0.00    +0.000 A 
BRANCH  17  23
ATOM     22  C   UNL     1      -3.206  12.845  21.344  0.00  0.00    +0.000 C 
ATOM     23  C   UNL     1      -1.696  12.942  21.078  0.00  0.00    +0.000 C 
ATOM     24  C   UNL     1      -1.119  14.303  21.486  0.00  0.00    +0.000 C 
ENDBRANCH  17  23
ENDBRANCH  16  21
ENDBRANCH  14  16
ENDBRANCH   1  14
TORSDOF 8
ENDMDL
