MODEL 1
REMARK VINA RESULT:      -7.7      0.000      0.000
REMARK  Name = 
REMARK  4 active torsions:
REMARK  status: ('A' for Active; 'I' for Inactive)
REMARK    1  A    between atoms: C_1  and  C_2
REMARK    2  A    between atoms: C_12  and  C_13
REMARK    3  A    between atoms: N_15  and  C_16
REMARK    4  A    between atoms: C_16  and  C_17
REMARK                            x       y       z     vdW  Elec       q    Type
REMARK                         _______ _______ _______ _____ _____    ______ ____
ROOT
ATOM      1  C   UNL     1       7.722   5.334  19.756  0.00  0.00    +0.000 C 
ATOM      2  C   UNL     1       6.430   5.511  19.018  0.00  0.00    +0.000 A 
ATOM      3  N   UNL     1       5.397   4.785  19.524  0.00  0.00    +0.000 NA
ATOM      4  C   UNL     1       4.178   4.902  18.971  0.00  0.00    +0.000 A 
ATOM      5  N   UNL     1       3.147   4.191  19.502  0.00  0.00    +0.000 N 
ATOM      6  C   UNL     1       1.796   4.248  18.992  0.00  0.00    +0.000 C 
ATOM      7  C   UNL     1       0.963   3.888  20.218  0.00  0.00    +0.000 C 
ATOM      8  C   UNL     1       1.845   2.900  20.969  0.00  0.00    +0.000 C 
ATOM      9  C   UNL     1       3.276   3.373  20.689  0.00  0.00    +0.000 C 
ATOM     10  N   UNL     1       3.941   5.706  17.926  0.00  0.00    +0.000 NA
ATOM     11  C   UNL     1       4.982   6.420  17.441  0.00  0.00    +0.000 A 
ATOM     12  C   UNL     1       6.269   6.353  17.933  0.00  0.00    +0.000 A 
ENDROOT
BRANCH  12  13
ATOM     13  C   UNL     1       7.289   7.224  17.309  0.00  0.00    +0.000 C 
ATOM     14  O   UNL     1       7.870   6.837  16.300  0.00  0.00    +0.000 OA
ATOM     15  N   UNL     1       7.571   8.423  17.925  0.00  0.00    +0.000 N 
ATOM     16  H   UNL     1       7.257   8.589  18.869  0.00  0.00    +0.000 HD
BRANCH  15  17
ATOM     17  C   UNL     1       8.570   9.331  17.403  0.00  0.00    +0.000 C 
BRANCH  17  18
ATOM     18  C   UNL     1       8.889  10.422  18.390  0.00  0.00    +0.000 A 
ATOM     19  C   UNL     1       9.185  10.112  19.725  0.00  0.00    +0.000 A 
ATOM     20  C   UNL     1       9.494  11.121  20.641  0.00  0.00    +0.000 A 
ATOM     21  C   UNL     1       9.486  12.457  20.236  0.00  0.00    +0.000 A 
ATOM     22  C   UNL     1       9.173  12.775  18.918  0.00  0.00    +0.000 A 
ATOM     23 CL   UNL     1       9.157  14.422  18.415  0.00  0.00    +0.000 Cl
ATOM     24  C   UNL     1       8.873  11.769  17.995  0.00  0.00    +0.000 A 
ENDBRANCH  17  18
ENDBRANCH  15  17
ENDBRANCH  12  13
TORSDOF 3
ENDMDL
MODEL 2
REMARK VINA RESULT:      -7.7      5.387      7.339
REMARK  Name = 
REMARK  4 active torsions:
REMARK  status: ('A' for Active; 'I' for Inactive)
REMARK    1  A    between atoms: C_1  and  C_2
REMARK    2  A    between atoms: C_12  and  C_13
REMARK    3  A    between atoms: N_15  and  C_16
REMARK    4  A    between atoms: C_16  and  C_17
REMARK                            x       y       z     vdW  Elec       q    Type
REMARK                         _______ _______ _______ _____ _____    ______ ____
ROOT
ATOM      1  C   UNL     1       2.223   8.871  17.765  0.00  0.00    +0.000 C 
ATOM      2  C   UNL     1       1.767   8.601  19.168  0.00  0.00    +0.000 A 
ATOM      3  N   UNL     1       1.156   9.659  19.766  0.00  0.00    +0.000 NA
ATOM      4  C   UNL     1       0.664   9.516  21.009  0.00  0.00    +0.000 A 
ATOM      5  N   UNL     1       0.031  10.572  21.588  0.00  0.00    +0.000 N 
ATOM      6  C   UNL     1      -0.542  10.527  22.913  0.00  0.00    +0.000 C 
ATOM      7  C   UNL     1      -1.639  11.584  22.837  0.00  0.00    +0.000 C 
ATOM      8  C   UNL     1      -1.060  12.629  21.893  0.00  0.00    +0.000 C 
ATOM      9  C   UNL     1      -0.213  11.824  20.902  0.00  0.00    +0.000 C 
ATOM     10  N   UNL     1       0.760   8.366  21.688  0.00  0.00    +0.000 NA
ATOM     11  C   UNL     1       1.369   7.328  21.072  0.00  0.00    +0.000 A 
ATOM     12  C   UNL     1       1.918   7.385  19.809  0.00  0.00    +0.000 A 
ENDROOT
BRANCH  12  13
ATOM     13  C   UNL     1       2.522   6.149  19.264  0.00  0.00    +0.000 C 
ATOM     14  O   UNL     1       2.080   5.675  18.223  0.00  0.00    +0.000 OA
ATOM     15  N   UNL     1       3.537   5.561  19.985  0.00  0.00    +0.000 N 
ATOM     16  H   UNL     1       3.700   5.838  20.942  0.00  0.00    +0.000 HD
BRANCH  15  17
ATOM     17  C   UNL     1       4.174   4.338  19.545  0.00  0.00    +0.000 C 
BRANCH  17  18
ATOM     18  C   UNL     1       5.284   4.617  18.568  0.00  0.00    +0.000 A 
ATOM     19  C   UNL     1       6.414   5.348  18.963  0.00  0.00    +0.000 A 
ATOM     20  C   UNL     1       7.453   5.599  18.062  0.00  0.00    +0.000 A 
ATOM     21  C   UNL     1       7.361   5.143  16.746  0.00  0.00    +0.000 A 
ATOM     22  C   UNL     1       6.233   4.435  16.340  0.00  0.00    +0.000 A 
ATOM     23 CL   UNL     1       6.113   3.873  14.717  0.00  0.00    +0.000 Cl
ATOM     24  C   UNL     1       5.196   4.172  17.240  0.00  0.00    +0.000 A 
ENDBRANCH  17  18
ENDBRANCH  15  17
ENDBRANCH  12  13
TORSDOF 3
ENDMDL
MODEL 3
REMARK VINA RESULT:      -7.6      6.631      8.722
REMARK  Name = 
REMARK  4 active torsions:
REMARK  status: ('A' for Active; 'I' for Inactive)
REMARK    1  A    between atoms: C_1  and  C_2
REMARK    2  A    between atoms: C_12  and  C_13
REMARK    3  A    between atoms: N_15  and  C_16
REMARK    4  A    between atoms: C_16  and  C_17
REMARK                            x       y       z     vdW  Elec       q    Type
REMARK                         _______ _______ _______ _____ _____    ______ ____
ROOT
ATOM      1  C   UNL     1       0.975   8.208  21.378  0.00  0.00    +0.000 C 
ATOM      2  C   UNL     1       1.625   8.160  20.028  0.00  0.00    +0.000 A 
ATOM      3  N   UNL     1       2.349   7.031  19.800  0.00  0.00    +0.000 NA
ATOM      4  C   UNL     1       2.936   6.858  18.603  0.00  0.00    +0.000 A 
ATOM      5  N   UNL     1       3.636   5.714  18.377  0.00  0.00    +0.000 N 
ATOM      6  C   UNL     1       4.299   5.421  17.127  0.00  0.00    +0.000 C 
ATOM      7  C   UNL     1       4.324   3.896  17.114  0.00  0.00    +0.000 C 
ATOM      8  C   UNL     1       4.476   3.530  18.585  0.00  0.00    +0.000 C 
ATOM      9  C   UNL     1       3.715   4.630  19.333  0.00  0.00    +0.000 C 
ATOM     10  N   UNL     1       2.842   7.766  17.623  0.00  0.00    +0.000 NA
ATOM     11  C   UNL     1       2.115   8.878  17.871  0.00  0.00    +0.000 A 
ATOM     12  C   UNL     1       1.492   9.149  19.071  0.00  0.00    +0.000 A 
ENDROOT
BRANCH  12  13
ATOM     13  C   UNL     1       0.707  10.400  19.171  0.00  0.00    +0.000 C 
ATOM     14  O   UNL     1       1.294  11.477  19.153  0.00  0.00    +0.000 OA
ATOM     15  N   UNL     1      -0.657  10.290  19.325  0.00  0.00    +0.000 N 
ATOM     16  H   UNL     1      -1.064   9.402  19.581  0.00  0.00    +0.000 HD
BRANCH  15  17
ATOM     17  C   UNL     1      -1.505  11.456  19.456  0.00  0.00    +0.000 C 
BRANCH  17  18
ATOM     18  C   UNL     1      -2.628  11.432  18.453  0.00  0.00    +0.000 A 
ATOM     19  C   UNL     1      -3.913  11.864  18.813  0.00  0.00    +0.000 A 
ATOM     20  C   UNL     1      -4.955  11.856  17.882  0.00  0.00    +0.000 A 
ATOM     21  C   UNL     1      -4.729  11.391  16.586  0.00  0.00    +0.000 A 
ATOM     22  C   UNL     1      -3.462  10.942  16.226  0.00  0.00    +0.000 A 
ATOM     23 CL   UNL     1      -3.179  10.365  14.629  0.00  0.00    +0.000 Cl
ATOM     24  C   UNL     1      -2.413  10.958  17.150  0.00  0.00    +0.000 A 
ENDBRANCH  17  18
ENDBRANCH  15  17
ENDBRANCH  12  13
TORSDOF 3
ENDMDL
MODEL 4
REMARK VINA RESULT:      -7.5      5.071      7.070
REMARK  Name = 
REMARK  4 active torsions:
REMARK  status: ('A' for Active; 'I' for Inactive)
REMARK    1  A    between atoms: C_1  and  C_2
REMARK    2  A    between atoms: C_12  and  C_13
REMARK    3  A    between atoms: N_15  and  C_16
REMARK    4  A    between atoms: C_16  and  C_17
REMARK                            x       y       z     vdW  Elec       q    Type
REMARK                         _______ _______ _______ _____ _____    ______ ____
ROOT
ATOM      1  C   UNL     1       2.125   9.090  17.789  0.00  0.00    +0.000 C 
ATOM      2  C   UNL     1       1.697   8.749  19.185  0.00  0.00    +0.000 A 
ATOM      3  N   UNL     1       1.068   9.765  19.836  0.00  0.00    +0.000 NA
ATOM      4  C   UNL     1       0.597   9.556  21.078  0.00  0.00    +0.000 A 
ATOM      5  N   UNL     1      -0.054  10.570  21.709  0.00  0.00    +0.000 N 
ATOM      6  C   UNL     1      -0.607  10.454  23.039  0.00  0.00    +0.000 C 
ATOM      7  C   UNL     1      -1.731  11.484  23.023  0.00  0.00    +0.000 C 
ATOM      8  C   UNL     1      -1.193  12.583  22.116  0.00  0.00    +0.000 C 
ATOM      9  C   UNL     1      -0.340  11.843  21.081  0.00  0.00    +0.000 C 
ATOM     10  N   UNL     1       0.732   8.381  21.706  0.00  0.00    +0.000 NA
ATOM     11  C   UNL     1       1.359   7.386  21.038  0.00  0.00    +0.000 A 
ATOM     12  C   UNL     1       1.888   7.512  19.771  0.00  0.00    +0.000 A 
ENDROOT
BRANCH  12  13
ATOM     13  C   UNL     1       2.516   6.316  19.167  0.00  0.00    +0.000 C 
ATOM     14  O   UNL     1       2.043   5.849  18.136  0.00  0.00    +0.000 OA
ATOM     15  N   UNL     1       3.588   5.754  19.823  0.00  0.00    +0.000 N 
ATOM     16  H   UNL     1       3.785   6.015  20.777  0.00  0.00    +0.000 HD
BRANCH  15  17
ATOM     17  C   UNL     1       4.252   4.570  19.322  0.00  0.00    +0.000 C 
BRANCH  17  18
ATOM     18  C   UNL     1       5.217   4.908  18.216  0.00  0.00    +0.000 A 
ATOM     19  C   UNL     1       5.333   4.077  17.093  0.00  0.00    +0.000 A 
ATOM     20  C   UNL     1       6.218   4.394  16.059  0.00  0.00    +0.000 A 
ATOM     21  C   UNL     1       7.017   5.535  16.149  0.00  0.00    +0.000 A 
ATOM     22  C   UNL     1       6.923   6.354  17.270  0.00  0.00    +0.000 A 
ATOM     23 CL   UNL     1       7.909   7.761  17.388  0.00  0.00    +0.000 Cl
ATOM     24  C   UNL     1       6.032   6.048  18.302  0.00  0.00    +0.000 A 
ENDBRANCH  17  18
ENDBRANCH  15  17
ENDBRANCH  12  13
TORSDOF 3
ENDMDL
MODEL 5
REMARK VINA RESULT:      -7.5      5.250      7.306
REMARK  Name = 
REMARK  4 active torsions:
REMARK  status: ('A' for Active; 'I' for Inactive)
REMARK    1  A    between atoms: C_1  and  C_2
REMARK    2  A    between atoms: C_12  and  C_13
REMARK    3  A    between atoms: N_15  and  C_16
REMARK    4  A    between atoms: C_16  and  C_17
REMARK                            x       y       z     vdW  Elec       q    Type
REMARK                         _______ _______ _______ _____ _____    ______ ____
ROOT
ATOM      1  C   UNL     1       1.446   4.158  17.711  0.00  0.00    +0.000 C 
ATOM      2  C   UNL     1       2.857   4.637  17.878  0.00  0.00    +0.000 A 
ATOM      3  N   UNL     1       3.666   4.361  16.819  0.00  0.00    +0.000 NA
ATOM      4  C   UNL     1       4.941   4.787  16.838  0.00  0.00    +0.000 A 
ATOM      5  N   UNL     1       5.733   4.529  15.763  0.00  0.00    +0.000 N 
ATOM      6  C   UNL     1       7.114   4.947  15.674  0.00  0.00    +0.000 C 
ATOM      7  C   UNL     1       7.333   5.051  14.168  0.00  0.00    +0.000 C 
ATOM      8  C   UNL     1       6.449   3.947  13.604  0.00  0.00    +0.000 C 
ATOM      9  C   UNL     1       5.251   3.889  14.558  0.00  0.00    +0.000 C 
ATOM     10  N   UNL     1       5.451   5.469  17.872  0.00  0.00    +0.000 NA
ATOM     11  C   UNL     1       4.628   5.733  18.911  0.00  0.00    +0.000 A 
ATOM     12  C   UNL     1       3.314   5.324  18.987  0.00  0.00    +0.000 A 
ENDROOT
BRANCH  12  13
ATOM     13  C   UNL     1       2.537   5.722  20.182  0.00  0.00    +0.000 C 
ATOM     14  O   UNL     1       2.247   4.872  21.017  0.00  0.00    +0.000 OA
ATOM     15  N   UNL     1       2.138   7.036  20.279  0.00  0.00    +0.000 N 
ATOM     16  H   UNL     1       2.182   7.635  19.468  0.00  0.00    +0.000 HD
BRANCH  15  17
ATOM     17  C   UNL     1       1.355   7.514  21.398  0.00  0.00    +0.000 C 
BRANCH  17  18
ATOM     18  C   UNL     1       0.731   8.852  21.101  0.00  0.00    +0.000 A 
ATOM     19  C   UNL     1       0.857   9.430  19.829  0.00  0.00    +0.000 A 
ATOM     20  C   UNL     1       0.269  10.665  19.546  0.00  0.00    +0.000 A 
ATOM     21  C   UNL     1      -0.432  11.350  20.540  0.00  0.00    +0.000 A 
ATOM     22  C   UNL     1      -0.544  10.793  21.810  0.00  0.00    +0.000 A 
ATOM     23 CL   UNL     1      -1.404  11.635  23.042  0.00  0.00    +0.000 Cl
ATOM     24  C   UNL     1       0.033   9.553  22.097  0.00  0.00    +0.000 A 
ENDBRANCH  17  18
ENDBRANCH  15  17
ENDBRANCH  12  13
TORSDOF 3
ENDMDL
MODEL 6
REMARK VINA RESULT:      -7.5      7.069      9.564
REMARK  Name = 
REMARK  4 active torsions:
REMARK  status: ('A' for Active; 'I' for Inactive)
REMARK    1  A    between atoms: C_1  and  C_2
REMARK    2  A    between atoms: C_12  and  C_13
REMARK    3  A    between atoms: N_15  and  C_16
REMARK    4  A    between atoms: C_16  and  C_17
REMARK                            x       y       z     vdW  Elec       q    Type
REMARK                         _______ _______ _______ _____ _____    ______ ____
ROOT
ATOM      1  C   UNL     1      -1.199   9.975  17.541  0.00  0.00    +0.000 C 
ATOM      2  C   UNL     1      -0.601  10.400  18.849  0.00  0.00    +0.000 A 
ATOM      3  N   UNL     1      -1.398  11.225  19.581  0.00  0.00    +0.000 NA
ATOM      4  C   UNL     1      -0.984  11.631  20.794  0.00  0.00    +0.000 A 
ATOM      5  N   UNL     1      -1.800  12.435  21.528  0.00  0.00    +0.000 N 
ATOM      6  C   UNL     1      -1.460  12.922  22.845  0.00  0.00    +0.000 C 
ATOM      7  C   UNL     1      -2.829  13.153  23.478  0.00  0.00    +0.000 C 
ATOM      8  C   UNL     1      -3.695  13.586  22.302  0.00  0.00    +0.000 C 
ATOM      9  C   UNL     1      -3.132  12.812  21.105  0.00  0.00    +0.000 C 
ATOM     10  N   UNL     1       0.195  11.258  21.309  0.00  0.00    +0.000 NA
ATOM     11  C   UNL     1       0.968  10.436  20.565  0.00  0.00    +0.000 A 
ATOM     12  C   UNL     1       0.635   9.982  19.306  0.00  0.00    +0.000 A 
ENDROOT
BRANCH  12  13
ATOM     13  C   UNL     1       1.579   9.061  18.635  0.00  0.00    +0.000 C 
ATOM     14  O   UNL     1       1.960   9.319  17.498  0.00  0.00    +0.000 OA
ATOM     15  N   UNL     1       1.955   7.923  19.313  0.00  0.00    +0.000 N 
ATOM     16  H   UNL     1       1.437   7.629  20.128  0.00  0.00    +0.000 HD
BRANCH  15  17
ATOM     17  C   UNL     1       2.855   6.952  18.729  0.00  0.00    +0.000 C 
BRANCH  17  18
ATOM     18  C   UNL     1       2.323   5.551  18.880  0.00  0.00    +0.000 A 
ATOM     19  C   UNL     1       1.904   4.824  17.756  0.00  0.00    +0.000 A 
ATOM     20  C   UNL     1       1.422   3.519  17.890  0.00  0.00    +0.000 A 
ATOM     21  C   UNL     1       1.329   2.935  19.154  0.00  0.00    +0.000 A 
ATOM     22  C   UNL     1       1.723   3.658  20.277  0.00  0.00    +0.000 A 
ATOM     23 CL   UNL     1       1.607   2.944  21.839  0.00  0.00    +0.000 Cl
ATOM     24  C   UNL     1       2.216   4.959  20.148  0.00  0.00    +0.000 A 
ENDBRANCH  17  18
ENDBRANCH  15  17
ENDBRANCH  12  13
TORSDOF 3
ENDMDL
MODEL 7
REMARK VINA RESULT:      -7.4      5.896      8.143
REMARK  Name = 
REMARK  4 active torsions:
REMARK  status: ('A' for Active; 'I' for Inactive)
REMARK    1  A    between atoms: C_1  and  C_2
REMARK    2  A    between atoms: C_12  and  C_13
REMARK    3  A    between atoms: N_15  and  C_16
REMARK    4  A    between atoms: C_16  and  C_17
REMARK                            x       y       z     vdW  Elec       q    Type
REMARK                         _______ _______ _______ _____ _____    ______ ____
ROOT
ATOM      1  C   UNL     1       1.899   5.509  20.395  0.00  0.00    +0.000 C 
ATOM      2  C   UNL     1       2.553   6.301  19.303  0.00  0.00    +0.000 A 
ATOM      3  N   UNL     1       3.383   5.571  18.509  0.00  0.00    +0.000 NA
ATOM      4  C   UNL     1       3.986   6.168  17.467  0.00  0.00    +0.000 A 
ATOM      5  N   UNL     1       4.793   5.423  16.664  0.00  0.00    +0.000 N 
ATOM      6  C   UNL     1       5.484   5.959  15.514  0.00  0.00    +0.000 C 
ATOM      7  C   UNL     1       5.656   4.729  14.627  0.00  0.00    +0.000 C 
ATOM      8  C   UNL     1       5.839   3.594  15.626  0.00  0.00    +0.000 C 
ATOM      9  C   UNL     1       4.974   3.996  16.826  0.00  0.00    +0.000 C 
ATOM     10  N   UNL     1       3.807   7.465  17.183  0.00  0.00    +0.000 NA
ATOM     11  C   UNL     1       2.976   8.168  17.984  0.00  0.00    +0.000 A 
ATOM     12  C   UNL     1       2.327   7.647  19.083  0.00  0.00    +0.000 A 
ENDROOT
BRANCH  12  13
ATOM     13  C   UNL     1       1.425   8.544  19.839  0.00  0.00    +0.000 C 
ATOM     14  O   UNL     1       1.329   8.410  21.055  0.00  0.00    +0.000 OA
ATOM     15  N   UNL     1       0.696   9.470  19.126  0.00  0.00    +0.000 N 
ATOM     16  H   UNL     1       0.618   9.383  18.124  0.00  0.00    +0.000 HD
BRANCH  15  17
ATOM     17  C   UNL     1      -0.229  10.374  19.775  0.00  0.00    +0.000 C 
BRANCH  17  18
ATOM     18  C   UNL     1      -1.400  10.695  18.884  0.00  0.00    +0.000 A 
ATOM     19  C   UNL     1      -2.382  11.606  19.298  0.00  0.00    +0.000 A 
ATOM     20  C   UNL     1      -3.463  11.916  18.468  0.00  0.00    +0.000 A 
ATOM     21  C   UNL     1      -3.587  11.297  17.223  0.00  0.00    +0.000 A 
ATOM     22  C   UNL     1      -2.628  10.376  16.813  0.00  0.00    +0.000 A 
ATOM     23 CL   UNL     1      -2.778   9.607  15.280  0.00  0.00    +0.000 Cl
ATOM     24  C   UNL     1      -1.539  10.070  17.634  0.00  0.00    +0.000 A 
ENDBRANCH  17  18
ENDBRANCH  15  17
ENDBRANCH  12  13
TORSDOF 3
ENDMDL
MODEL 8
REMARK VINA RESULT:      -7.4      2.978      8.330
REMARK  Name = 
REMARK  4 active torsions:
REMARK  status: ('A' for Active; 'I' for Inactive)
REMARK    1  A    between atoms: C_1  and  C_2
REMARK    2  A    between atoms: C_12  and  C_13
REMARK    3  A    between atoms: N_15  and  C_16
REMARK    4  A    between atoms: C_16  and  C_17
REMARK                            x       y       z     vdW  Elec       q    Type
REMARK                         _______ _______ _______ _____ _____    ______ ____
ROOT
ATOM      1  C   UNL     1       8.304   5.432  19.753  0.00  0.00    +0.000 C 
ATOM      2  C   UNL     1       7.945   6.516  18.782  0.00  0.00    +0.000 A 
ATOM      3  N   UNL     1       8.490   7.728  19.076  0.00  0.00    +0.000 NA
ATOM      4  C   UNL     1       8.275   8.763  18.246  0.00  0.00    +0.000 A 
ATOM      5  N   UNL     1       8.846   9.963  18.535  0.00  0.00    +0.000 N 
ATOM      6  C   UNL     1       8.689  11.138  17.710  0.00  0.00    +0.000 C 
ATOM      7  C   UNL     1       9.952  11.934  18.020  0.00  0.00    +0.000 C 
ATOM      8  C   UNL     1      10.225  11.610  19.483  0.00  0.00    +0.000 C 
ATOM      9  C   UNL     1       9.743  10.166  19.653  0.00  0.00    +0.000 C 
ATOM     10  N   UNL     1       7.533   8.648  17.136  0.00  0.00    +0.000 NA
ATOM     11  C   UNL     1       7.005   7.434  16.863  0.00  0.00    +0.000 A 
ATOM     12  C   UNL     1       7.157   6.321  17.662  0.00  0.00    +0.000 A 
ENDROOT
BRANCH  12  13
ATOM     13  C   UNL     1       6.539   5.056  17.205  0.00  0.00    +0.000 C 
ATOM     14  O   UNL     1       7.198   4.283  16.517  0.00  0.00    +0.000 OA
ATOM     15  N   UNL     1       5.225   4.826  17.544  0.00  0.00    +0.000 N 
ATOM     16  H   UNL     1       4.655   5.583  17.891  0.00  0.00    +0.000 HD
BRANCH  15  17
ATOM     17  C   UNL     1       4.528   3.629  17.122  0.00  0.00    +0.000 C 
BRANCH  17  18
ATOM     18  C   UNL     1       3.286   3.400  17.941  0.00  0.00    +0.000 A 
ATOM     19  C   UNL     1       2.528   2.232  17.774  0.00  0.00    +0.000 A 
ATOM     20  C   UNL     1       1.381   2.009  18.542  0.00  0.00    +0.000 A 
ATOM     21  C   UNL     1       0.965   2.966  19.468  0.00  0.00    +0.000 A 
ATOM     22  C   UNL     1       1.700   4.138  19.625  0.00  0.00    +0.000 A 
ATOM     23 CL   UNL     1       1.188   5.323  20.764  0.00  0.00    +0.000 Cl
ATOM     24  C   UNL     1       2.853   4.361  18.868  0.00  0.00    +0.000 A 
ENDBRANCH  17  18
ENDBRANCH  15  17
ENDBRANCH  12  13
TORSDOF 3
ENDMDL
MODEL 9
REMARK VINA RESULT:      -7.3      4.827      7.106
REMARK  Name = 
REMARK  4 active torsions:
REMARK  status: ('A' for Active; 'I' for Inactive)
REMARK    1  A    between atoms: C_1  and  C_2
REMARK    2  A    between atoms: C_12  and  C_13
REMARK    3  A    between atoms: N_15  and  C_16
REMARK    4  A    between atoms: C_16  and  C_17
REMARK                            x       y       z     vdW  Elec       q    Type
REMARK                         _______ _______ _______ _____ _____    ______ ____
ROOT
ATOM      1  C   UNL     1       3.398   3.183  17.175  0.00  0.00    +0.000 C 
ATOM      2  C   UNL     1       4.484   4.150  16.809  0.00  0.00    +0.000 A 
ATOM      3  N   UNL     1       5.080   3.888  15.614  0.00  0.00    +0.000 NA
ATOM      4  C   UNL     1       6.035   4.719  15.161  0.00  0.00    +0.000 A 
ATOM      5  N   UNL     1       6.606   4.463  13.953  0.00  0.00    +0.000 N 
ATOM      6  C   UNL     1       7.633   5.293  13.367  0.00  0.00    +0.000 C 
ATOM      7  C   UNL     1       7.454   5.040  11.874  0.00  0.00    +0.000 C 
ATOM      8  C   UNL     1       7.005   3.586  11.812  0.00  0.00    +0.000 C 
ATOM      9  C   UNL     1       6.180   3.384  13.087  0.00  0.00    +0.000 C 
ATOM     10  N   UNL     1       6.430   5.797  15.850  0.00  0.00    +0.000 NA
ATOM     11  C   UNL     1       5.822   6.038  17.033  0.00  0.00    +0.000 A 
ATOM     12  C   UNL     1       4.846   5.235  17.585  0.00  0.00    +0.000 A 
ENDROOT
BRANCH  12  13
ATOM     13  C   UNL     1       4.258   5.656  18.876  0.00  0.00    +0.000 C 
ATOM     14  O   UNL     1       4.854   5.399  19.917  0.00  0.00    +0.000 OA
ATOM     15  N   UNL     1       3.034   6.285  18.847  0.00  0.00    +0.000 N 
ATOM     16  H   UNL     1       2.473   6.256  18.009  0.00  0.00    +0.000 HD
BRANCH  15  17
ATOM     17  C   UNL     1       2.368   6.712  20.060  0.00  0.00    +0.000 C 
BRANCH  17  18
ATOM     18  C   UNL     1       1.735   8.068  19.891  0.00  0.00    +0.000 A 
ATOM     19  C   UNL     1       1.755   8.713  18.646  0.00  0.00    +0.000 A 
ATOM     20  C   UNL     1       1.158   9.966  18.482  0.00  0.00    +0.000 A 
ATOM     21  C   UNL     1       0.556  10.600  19.569  0.00  0.00    +0.000 A 
ATOM     22  C   UNL     1       0.550   9.975  20.813  0.00  0.00    +0.000 A 
ATOM     23 CL   UNL     1      -0.189  10.755  22.159  0.00  0.00    +0.000 Cl
ATOM     24  C   UNL     1       1.136   8.718  20.981  0.00  0.00    +0.000 A 
ENDBRANCH  17  18
ENDBRANCH  15  17
ENDBRANCH  12  13
TORSDOF 3
ENDMDL
