MODEL 1
REMARK VINA RESULT:      -8.5      0.000      0.000
REMARK  Name = 
REMARK  11 active torsions:
REMARK  status: ('A' for Active; 'I' for Inactive)
REMARK    1  A    between atoms: C_1  and  O_2
REMARK    2  A    between atoms: O_2  and  C_3
REMARK    3  A    between atoms: C_6  and  C_7
REMARK    4  A    between atoms: C_7  and  C_8
REMARK    5  A    between atoms: C_8  and  N_9
REMARK    6  A    between atoms: N_9  and  C_10
REMARK    7  A    between atoms: C_12  and  C_13
REMARK    8  A    between atoms: C_13  and  C_14
REMARK    9  A    between atoms: C_25  and  C_26
REMARK   10  A    between atoms: C_29  and  O_30
REMARK   11  A    between atoms: O_30  and  C_31
REMARK                            x       y       z     vdW  Elec       q    Type
REMARK                         _______ _______ _______ _____ _____    ______ ____
ROOT
ATOM      1  C   UNL     1       7.052   6.441  17.280  0.00  0.00    +0.000 A 
ATOM      2  O   UNL     1       5.933   6.114  16.413  0.00  0.00    +0.000 OA
ATOM      3  C   UNL     1       5.312   4.984  17.033  0.00  0.00    +0.000 A 
ATOM      4  N   UNL     1       5.907   4.642  18.143  0.00  0.00    +0.000 NA
ATOM      5  C   UNL     1       6.931   5.517  18.303  0.00  0.00    +0.000 A 
ENDROOT
BRANCH   1   6
ATOM      6  N   UNL     1       7.936   7.488  17.031  0.00  0.00    +0.000 N 
ATOM      7  H   UNL     1       8.541   7.517  16.198  0.00  0.00    +0.000 HD
BRANCH   6   8
ATOM      8  C   UNL     1       7.724   8.804  17.681  0.00  0.00    +0.000 C 
BRANCH   8   9
ATOM      9  C   UNL     1       8.866   9.360  18.593  0.00  0.00    +0.000 C 
BRANCH   9  13
ATOM     10  C   UNL     1       9.663  13.654  18.046  0.00  0.00    +0.000 A 
ATOM     11  C   UNL     1       8.561  13.016  17.471  0.00  0.00    +0.000 A 
ATOM     12  C   UNL     1       8.230  11.674  17.747  0.00  0.00    +0.000 A 
ATOM     13  C   UNL     1       9.085  10.862  18.490  0.00  0.00    +0.000 A 
ATOM     14  C   UNL     1      10.190  11.484  19.070  0.00  0.00    +0.000 A 
ATOM     15  C   UNL     1      10.511  12.842  18.859  0.00  0.00    +0.000 A 
BRANCH  10  17
ATOM     16  C   UNL     1       9.604  15.901  19.027  0.00  0.00    +0.000 C 
ATOM     17  O   UNL     1       9.742  15.032  17.865  0.00  0.00    +0.000 OA
ENDBRANCH  10  17
BRANCH  15  18
ATOM     18  O   UNL     1      11.667  13.100  19.579  0.00  0.00    +0.000 OA
ATOM     19  C   UNL     1      12.331  11.915  19.903  0.00  0.00    +0.000 C 
ENDBRANCH  15  18
ENDBRANCH   9  13
ENDBRANCH   8   9
ENDBRANCH   6   8
ENDBRANCH   1   6
BRANCH   5  20
ATOM     20  C   UNL     1       7.659   5.416  19.504  0.00  0.00    +0.000 C 
ATOM     21  N   UNL     1       8.252   5.348  20.499  0.00  0.00    +0.000 NA
ENDBRANCH   5  20
BRANCH   3  22
ATOM     22  C   UNL     1       4.090   4.191  16.543  0.00  0.00    +0.000 C 
BRANCH  22  23
ATOM     23  C   UNL     1       3.216   3.638  17.733  0.00  0.00    +0.000 A 
ATOM     24  C   UNL     1       2.948   2.214  17.736  0.00  0.00    +0.000 A 
ATOM     25  C   UNL     1       2.114   1.641  18.693  0.00  0.00    +0.000 A 
ATOM     26  C   UNL     1       1.602   2.467  19.688  0.00  0.00    +0.000 A 
ATOM     27  C   UNL     1       1.817   3.878  19.693  0.00  0.00    +0.000 A 
ATOM     28  C   UNL     1       1.125   4.692  20.585  0.00  0.00    +0.000 A 
ATOM     29  C   UNL     1       1.151   6.114  20.516  0.00  0.00    +0.000 A 
ATOM     30  C   UNL     1       2.279   6.857  20.234  0.00  0.00    +0.000 A 
ATOM     31  C   UNL     1       2.846   6.039  19.238  0.00  0.00    +0.000 A 
ATOM     32  C   UNL     1       2.672   4.538  18.819  0.00  0.00    +0.000 A 
ENDBRANCH  22  23
ENDBRANCH   3  22
TORSDOF 9
ENDMDL
MODEL 2
REMARK VINA RESULT:      -8.3      5.686      9.057
REMARK  Name = 
REMARK  11 active torsions:
REMARK  status: ('A' for Active; 'I' for Inactive)
REMARK    1  A    between atoms: C_1  and  O_2
REMARK    2  A    between atoms: O_2  and  C_3
REMARK    3  A    between atoms: C_6  and  C_7
REMARK    4  A    between atoms: C_7  and  C_8
REMARK    5  A    between atoms: C_8  and  N_9
REMARK    6  A    between atoms: N_9  and  C_10
REMARK    7  A    between atoms: C_12  and  C_13
REMARK    8  A    between atoms: C_13  and  C_14
REMARK    9  A    between atoms: C_25  and  C_26
REMARK   10  A    between atoms: C_29  and  O_30
REMARK   11  A    between atoms: O_30  and  C_31
REMARK                            x       y       z     vdW  Elec       q    Type
REMARK                         _______ _______ _______ _____ _____    ______ ____
ROOT
ATOM      1  C   UNL     1       1.211   8.813  20.468  0.00  0.00    +0.000 A 
ATOM      2  O   UNL     1       1.030   9.459  19.180  0.00  0.00    +0.000 OA
ATOM      3  C   UNL     1       0.162  10.564  19.448  0.00  0.00    +0.000 A 
ATOM      4  N   UNL     1      -0.153  10.649  20.712  0.00  0.00    +0.000 NA
ATOM      5  C   UNL     1       0.484   9.620  21.324  0.00  0.00    +0.000 A 
ENDROOT
BRANCH   1   6
ATOM      6  N   UNL     1       1.990   7.673  20.653  0.00  0.00    +0.000 N 
ATOM      7  H   UNL     1       2.034   7.171  21.551  0.00  0.00    +0.000 HD
BRANCH   6   8
ATOM      8  C   UNL     1       2.417   6.871  19.481  0.00  0.00    +0.000 C 
BRANCH   8   9
ATOM      9  C   UNL     1       3.254   5.577  19.746  0.00  0.00    +0.000 C 
BRANCH   9  13
ATOM     10  C   UNL     1       6.059   4.249  16.627  0.00  0.00    +0.000 A 
ATOM     11  C   UNL     1       4.683   4.344  16.407  0.00  0.00    +0.000 A 
ATOM     12  C   UNL     1       3.798   4.890  17.358  0.00  0.00    +0.000 A 
ATOM     13  C   UNL     1       4.234   5.218  18.640  0.00  0.00    +0.000 A 
ATOM     14  C   UNL     1       5.605   5.127  18.875  0.00  0.00    +0.000 A 
ATOM     15  C   UNL     1       6.523   4.640  17.919  0.00  0.00    +0.000 A 
BRANCH  10  17
ATOM     16  C   UNL     1       6.496   4.455  14.222  0.00  0.00    +0.000 C 
ATOM     17  O   UNL     1       6.838   3.901  15.526  0.00  0.00    +0.000 OA
ENDBRANCH  10  17
BRANCH  15  18
ATOM     18  O   UNL     1       7.778   4.687  18.505  0.00  0.00    +0.000 OA
ATOM     19  C   UNL     1       7.863   5.732  19.426  0.00  0.00    +0.000 C 
ENDBRANCH  15  18
ENDBRANCH   9  13
ENDBRANCH   8   9
ENDBRANCH   6   8
ENDBRANCH   1   6
BRANCH   5  20
ATOM     20  C   UNL     1       0.384   9.570  22.729  0.00  0.00    +0.000 C 
ATOM     21  N   UNL     1       0.311   9.544  23.886  0.00  0.00    +0.000 NA
ENDBRANCH   5  20
BRANCH   3  22
ATOM     22  C   UNL     1      -0.396  11.591  18.450  0.00  0.00    +0.000 C 
BRANCH  22  23
ATOM     23  C   UNL     1      -1.909  11.323  18.094  0.00  0.00    +0.000 A 
ATOM     24  C   UNL     1      -2.166  10.523  16.914  0.00  0.00    +0.000 A 
ATOM     25  C   UNL     1      -3.466  10.302  16.464  0.00  0.00    +0.000 A 
ATOM     26  C   UNL     1      -4.512  10.814  17.224  0.00  0.00    +0.000 A 
ATOM     27  C   UNL     1      -4.291  11.636  18.370  0.00  0.00    +0.000 A 
ATOM     28  C   UNL     1      -5.356  12.293  18.980  0.00  0.00    +0.000 A 
ATOM     29  C   UNL     1      -5.181  13.269  20.002  0.00  0.00    +0.000 A 
ATOM     30  C   UNL     1      -4.258  13.167  21.022  0.00  0.00    +0.000 A 
ATOM     31  C   UNL     1      -3.178  12.626  20.297  0.00  0.00    +0.000 A 
ATOM     32  C   UNL     1      -3.042  11.872  18.929  0.00  0.00    +0.000 A 
ENDBRANCH  22  23
ENDBRANCH   3  22
TORSDOF 9
ENDMDL
MODEL 3
REMARK VINA RESULT:      -8.2      1.400      2.846
REMARK  Name = 
REMARK  11 active torsions:
REMARK  status: ('A' for Active; 'I' for Inactive)
REMARK    1  A    between atoms: C_1  and  O_2
REMARK    2  A    between atoms: O_2  and  C_3
REMARK    3  A    between atoms: C_6  and  C_7
REMARK    4  A    between atoms: C_7  and  C_8
REMARK    5  A    between atoms: C_8  and  N_9
REMARK    6  A    between atoms: N_9  and  C_10
REMARK    7  A    between atoms: C_12  and  C_13
REMARK    8  A    between atoms: C_13  and  C_14
REMARK    9  A    between atoms: C_25  and  C_26
REMARK   10  A    between atoms: C_29  and  O_30
REMARK   11  A    between atoms: O_30  and  C_31
REMARK                            x       y       z     vdW  Elec       q    Type
REMARK                         _______ _______ _______ _____ _____    ______ ____
ROOT
ATOM      1  C   UNL     1       6.914   7.289  17.314  0.00  0.00    +0.000 A 
ATOM      2  O   UNL     1       5.565   7.816  17.201  0.00  0.00    +0.000 OA
ATOM      3  C   UNL     1       4.722   6.659  17.215  0.00  0.00    +0.000 A 
ATOM      4  N   UNL     1       5.404   5.554  17.346  0.00  0.00    +0.000 NA
ATOM      5  C   UNL     1       6.706   5.926  17.424  0.00  0.00    +0.000 A 
ENDROOT
BRANCH   1   6
ATOM      6  N   UNL     1       8.052   8.090  17.330  0.00  0.00    +0.000 N 
ATOM      7  H   UNL     1       8.851   7.932  16.699  0.00  0.00    +0.000 HD
BRANCH   6   8
ATOM      8  C   UNL     1       7.987   9.456  17.905  0.00  0.00    +0.000 C 
BRANCH   8   9
ATOM      9  C   UNL     1       9.143   9.903  18.859  0.00  0.00    +0.000 C 
BRANCH   9  13
ATOM     10  C   UNL     1      10.847  13.917  18.267  0.00  0.00    +0.000 A 
ATOM     11  C   UNL     1      11.641  12.773  18.373  0.00  0.00    +0.000 A 
ATOM     12  C   UNL     1      11.098  11.473  18.434  0.00  0.00    +0.000 A 
ATOM     13  C   UNL     1       9.725  11.274  18.552  0.00  0.00    +0.000 A 
ATOM     14  C   UNL     1       8.918  12.407  18.448  0.00  0.00    +0.000 A 
ATOM     15  C   UNL     1       9.435  13.715  18.326  0.00  0.00    +0.000 A 
BRANCH  10  17
ATOM     16  C   UNL     1      11.220  15.803  16.744  0.00  0.00    +0.000 C 
ATOM     17  O   UNL     1      11.513  15.108  17.991  0.00  0.00    +0.000 OA
ENDBRANCH  10  17
BRANCH  15  18
ATOM     18  O   UNL     1       8.348  14.573  18.259  0.00  0.00    +0.000 OA
ATOM     19  C   UNL     1       8.294  15.402  19.381  0.00  0.00    +0.000 C 
ENDBRANCH  15  18
ENDBRANCH   9  13
ENDBRANCH   8   9
ENDBRANCH   6   8
ENDBRANCH   1   6
BRANCH   5  20
ATOM     20  C   UNL     1       7.634   4.899  17.683  0.00  0.00    +0.000 C 
ATOM     21  N   UNL     1       8.388   4.041  17.888  0.00  0.00    +0.000 NA
ENDBRANCH   5  20
BRANCH   3  22
ATOM     22  C   UNL     1       3.191   6.605  17.096  0.00  0.00    +0.000 C 
BRANCH  22  23
ATOM     23  C   UNL     1       2.490   6.333  18.482  0.00  0.00    +0.000 A 
ATOM     24  C   UNL     1       2.348   7.467  19.373  0.00  0.00    +0.000 A 
ATOM     25  C   UNL     1       1.823   7.315  20.654  0.00  0.00    +0.000 A 
ATOM     26  C   UNL     1       1.375   6.053  21.026  0.00  0.00    +0.000 A 
ATOM     27  C   UNL     1       1.533   4.909  20.188  0.00  0.00    +0.000 A 
ATOM     28  C   UNL     1       1.257   3.635  20.676  0.00  0.00    +0.000 A 
ATOM     29  C   UNL     1       1.572   2.446  19.959  0.00  0.00    +0.000 A 
ATOM     30  C   UNL     1       1.409   2.294  18.597  0.00  0.00    +0.000 A 
ATOM     31  C   UNL     1       1.834   3.569  18.175  0.00  0.00    +0.000 A 
ATOM     32  C   UNL     1       1.993   4.962  18.879  0.00  0.00    +0.000 A 
ENDBRANCH  22  23
ENDBRANCH   3  22
TORSDOF 9
ENDMDL
MODEL 4
REMARK VINA RESULT:      -8.1      0.931      1.713
REMARK  Name = 
REMARK  11 active torsions:
REMARK  status: ('A' for Active; 'I' for Inactive)
REMARK    1  A    between atoms: C_1  and  O_2
REMARK    2  A    between atoms: O_2  and  C_3
REMARK    3  A    between atoms: C_6  and  C_7
REMARK    4  A    between atoms: C_7  and  C_8
REMARK    5  A    between atoms: C_8  and  N_9
REMARK    6  A    between atoms: N_9  and  C_10
REMARK    7  A    between atoms: C_12  and  C_13
REMARK    8  A    between atoms: C_13  and  C_14
REMARK    9  A    between atoms: C_25  and  C_26
REMARK   10  A    between atoms: C_29  and  O_30
REMARK   11  A    between atoms: O_30  and  C_31
REMARK                            x       y       z     vdW  Elec       q    Type
REMARK                         _______ _______ _______ _____ _____    ______ ____
ROOT
ATOM      1  C   UNL     1       7.001   6.609  17.170  0.00  0.00    +0.000 A 
ATOM      2  O   UNL     1       5.836   6.289  16.364  0.00  0.00    +0.000 OA
ATOM      3  C   UNL     1       5.307   5.096  16.950  0.00  0.00    +0.000 A 
ATOM      4  N   UNL     1       5.993   4.711  17.990  0.00  0.00    +0.000 NA
ATOM      5  C   UNL     1       6.991   5.618  18.135  0.00  0.00    +0.000 A 
ENDROOT
BRANCH   1   6
ATOM      6  N   UNL     1       7.823   7.707  16.930  0.00  0.00    +0.000 N 
ATOM      7  H   UNL     1       8.232   7.903  16.005  0.00  0.00    +0.000 HD
BRANCH   6   8
ATOM      8  C   UNL     1       7.777   8.877  17.840  0.00  0.00    +0.000 C 
BRANCH   8   9
ATOM      9  C   UNL     1       8.903   9.010  18.917  0.00  0.00    +0.000 C 
BRANCH   9  13
ATOM     10  C   UNL     1       9.721  13.177  20.073  0.00  0.00    +0.000 A 
ATOM     11  C   UNL     1      10.064  12.093  20.884  0.00  0.00    +0.000 A 
ATOM     12  C   UNL     1       9.922  10.755  20.463  0.00  0.00    +0.000 A 
ATOM     13  C   UNL     1       9.278  10.442  19.269  0.00  0.00    +0.000 A 
ATOM     14  C   UNL     1       8.928  11.514  18.449  0.00  0.00    +0.000 A 
ATOM     15  C   UNL     1       9.114  12.864  18.820  0.00  0.00    +0.000 A 
BRANCH  10  17
ATOM     16  C   UNL     1      11.192  15.122  19.815  0.00  0.00    +0.000 C 
ATOM     17  O   UNL     1      10.120  14.434  20.521  0.00  0.00    +0.000 OA
ENDBRANCH  10  17
BRANCH  15  18
ATOM     18  O   UNL     1       8.646  13.638  17.770  0.00  0.00    +0.000 OA
ATOM     19  C   UNL     1       7.636  12.977  17.069  0.00  0.00    +0.000 C 
ENDBRANCH  15  18
ENDBRANCH   9  13
ENDBRANCH   8   9
ENDBRANCH   6   8
ENDBRANCH   1   6
BRANCH   5  20
ATOM     20  C   UNL     1       7.808   5.472  19.274  0.00  0.00    +0.000 C 
ATOM     21  N   UNL     1       8.487   5.369  20.209  0.00  0.00    +0.000 NA
ENDBRANCH   5  20
BRANCH   3  22
ATOM     22  C   UNL     1       4.084   4.282  16.495  0.00  0.00    +0.000 C 
BRANCH  22  23
ATOM     23  C   UNL     1       3.261   3.705  17.709  0.00  0.00    +0.000 A 
ATOM     24  C   UNL     1       3.047   2.272  17.725  0.00  0.00    +0.000 A 
ATOM     25  C   UNL     1       2.260   1.673  18.706  0.00  0.00    +0.000 A 
ATOM     26  C   UNL     1       1.742   2.485  19.709  0.00  0.00    +0.000 A 
ATOM     27  C   UNL     1       1.904   3.903  19.702  0.00  0.00    +0.000 A 
ATOM     28  C   UNL     1       1.203   4.696  20.607  0.00  0.00    +0.000 A 
ATOM     29  C   UNL     1       1.174   6.117  20.530  0.00  0.00    +0.000 A 
ATOM     30  C   UNL     1       2.265   6.901  20.216  0.00  0.00    +0.000 A 
ATOM     31  C   UNL     1       2.838   6.099  19.210  0.00  0.00    +0.000 A 
ATOM     32  C   UNL     1       2.710   4.590  18.803  0.00  0.00    +0.000 A 
ENDBRANCH  22  23
ENDBRANCH   3  22
TORSDOF 9
ENDMDL
MODEL 5
REMARK VINA RESULT:      -8.0      1.576      3.074
REMARK  Name = 
REMARK  11 active torsions:
REMARK  status: ('A' for Active; 'I' for Inactive)
REMARK    1  A    between atoms: C_1  and  O_2
REMARK    2  A    between atoms: O_2  and  C_3
REMARK    3  A    between atoms: C_6  and  C_7
REMARK    4  A    between atoms: C_7  and  C_8
REMARK    5  A    between atoms: C_8  and  N_9
REMARK    6  A    between atoms: N_9  and  C_10
REMARK    7  A    between atoms: C_12  and  C_13
REMARK    8  A    between atoms: C_13  and  C_14
REMARK    9  A    between atoms: C_25  and  C_26
REMARK   10  A    between atoms: C_29  and  O_30
REMARK   11  A    between atoms: O_30  and  C_31
REMARK                            x       y       z     vdW  Elec       q    Type
REMARK                         _______ _______ _______ _____ _____    ______ ____
ROOT
ATOM      1  C   UNL     1       6.817   6.626  17.328  0.00  0.00    +0.000 A 
ATOM      2  O   UNL     1       5.644   7.124  18.024  0.00  0.00    +0.000 OA
ATOM      3  C   UNL     1       4.544   6.761  17.185  0.00  0.00    +0.000 A 
ATOM      4  N   UNL     1       4.927   6.105  16.124  0.00  0.00    +0.000 NA
ATOM      5  C   UNL     1       6.277   6.007  16.215  0.00  0.00    +0.000 A 
ENDROOT
BRANCH   1   6
ATOM      6  N   UNL     1       8.117   6.779  17.805  0.00  0.00    +0.000 N 
ATOM      7  H   UNL     1       8.928   6.324  17.361  0.00  0.00    +0.000 HD
BRANCH   6   8
ATOM      8  C   UNL     1       8.458   7.941  18.659  0.00  0.00    +0.000 C 
BRANCH   8   9
ATOM      9  C   UNL     1       8.325   9.370  18.037  0.00  0.00    +0.000 C 
BRANCH   9  13
ATOM     10  C   UNL     1      10.886  12.569  19.642  0.00  0.00    +0.000 A 
ATOM     11  C   UNL     1       9.982  11.861  20.438  0.00  0.00    +0.000 A 
ATOM     12  C   UNL     1       9.255  10.752  19.960  0.00  0.00    +0.000 A 
ATOM     13  C   UNL     1       9.282  10.403  18.611  0.00  0.00    +0.000 A 
ATOM     14  C   UNL     1      10.179  11.102  17.804  0.00  0.00    +0.000 A 
ATOM     15  C   UNL     1      10.964  12.178  18.271  0.00  0.00    +0.000 A 
BRANCH  10  17
ATOM     16  C   UNL     1      11.350  14.905  20.228  0.00  0.00    +0.000 C 
ATOM     17  O   UNL     1      11.696  13.492  20.299  0.00  0.00    +0.000 OA
ENDBRANCH  10  17
BRANCH  15  18
ATOM     18  O   UNL     1      11.717  12.625  17.197  0.00  0.00    +0.000 OA
ATOM     19  C   UNL     1      11.189  13.806  16.672  0.00  0.00    +0.000 C 
ENDBRANCH  15  18
ENDBRANCH   9  13
ENDBRANCH   8   9
ENDBRANCH   6   8
ENDBRANCH   1   6
BRANCH   5  20
ATOM     20  C   UNL     1       6.915   5.232  15.226  0.00  0.00    +0.000 C 
ATOM     21  N   UNL     1       7.457   4.597  14.420  0.00  0.00    +0.000 NA
ENDBRANCH   5  20
BRANCH   3  22
ATOM     22  C   UNL     1       3.051   7.055  17.405  0.00  0.00    +0.000 C 
BRANCH  22  23
ATOM     23  C   UNL     1       2.445   6.227  18.602  0.00  0.00    +0.000 A 
ATOM     24  C   UNL     1       2.008   6.982  19.759  0.00  0.00    +0.000 A 
ATOM     25  C   UNL     1       1.540   6.339  20.903  0.00  0.00    +0.000 A 
ATOM     26  C   UNL     1       1.440   4.953  20.874  0.00  0.00    +0.000 A 
ATOM     27  C   UNL     1       1.896   4.178  19.765  0.00  0.00    +0.000 A 
ATOM     28  C   UNL     1       1.966   2.790  19.857  0.00  0.00    +0.000 A 
ATOM     29  C   UNL     1       2.584   1.978  18.864  0.00  0.00    +0.000 A 
ATOM     30  C   UNL     1       2.468   2.191  17.506  0.00  0.00    +0.000 A 
ATOM     31  C   UNL     1       2.543   3.597  17.489  0.00  0.00    +0.000 A 
ATOM     32  C   UNL     1       2.327   4.721  18.562  0.00  0.00    +0.000 A 
ENDBRANCH  22  23
ENDBRANCH   3  22
TORSDOF 9
ENDMDL
MODEL 6
REMARK VINA RESULT:      -8.0      5.882      9.690
REMARK  Name = 
REMARK  11 active torsions:
REMARK  status: ('A' for Active; 'I' for Inactive)
REMARK    1  A    between atoms: C_1  and  O_2
REMARK    2  A    between atoms: O_2  and  C_3
REMARK    3  A    between atoms: C_6  and  C_7
REMARK    4  A    between atoms: C_7  and  C_8
REMARK    5  A    between atoms: C_8  and  N_9
REMARK    6  A    between atoms: N_9  and  C_10
REMARK    7  A    between atoms: C_12  and  C_13
REMARK    8  A    between atoms: C_13  and  C_14
REMARK    9  A    between atoms: C_25  and  C_26
REMARK   10  A    between atoms: C_29  and  O_30
REMARK   11  A    between atoms: O_30  and  C_31
REMARK                            x       y       z     vdW  Elec       q    Type
REMARK                         _______ _______ _______ _____ _____    ______ ____
ROOT
ATOM      1  C   UNL     1       1.966   8.831  18.515  0.00  0.00    +0.000 A 
ATOM      2  O   UNL     1       2.409   7.795  17.598  0.00  0.00    +0.000 OA
ATOM      3  C   UNL     1       2.571   6.632  18.416  0.00  0.00    +0.000 A 
ATOM      4  N   UNL     1       2.258   6.858  19.662  0.00  0.00    +0.000 NA
ATOM      5  C   UNL     1       1.879   8.159  19.722  0.00  0.00    +0.000 A 
ENDROOT
BRANCH   1   6
ATOM      6  N   UNL     1       1.697  10.139  18.124  0.00  0.00    +0.000 N 
ATOM      7  H   UNL     1       2.221  10.613  17.374  0.00  0.00    +0.000 HD
BRANCH   6   8
ATOM      8  C   UNL     1       0.377  10.745  18.425  0.00  0.00    +0.000 C 
BRANCH   8   9
ATOM      9  C   UNL     1      -0.892   9.844  18.269  0.00  0.00    +0.000 C 
BRANCH   9  13
ATOM     10  C   UNL     1      -4.679  11.738  17.068  0.00  0.00    +0.000 A 
ATOM     11  C   UNL     1      -4.299  11.604  18.405  0.00  0.00    +0.000 A 
ATOM     12  C   UNL     1      -3.033  11.117  18.790  0.00  0.00    +0.000 A 
ATOM     13  C   UNL     1      -2.150  10.590  17.850  0.00  0.00    +0.000 A 
ATOM     14  C   UNL     1      -2.516  10.715  16.510  0.00  0.00    +0.000 A 
ATOM     15  C   UNL     1      -3.753  11.255  16.094  0.00  0.00    +0.000 A 
BRANCH  10  17
ATOM     16  C   UNL     1      -6.958  12.303  17.775  0.00  0.00    +0.000 C 
ATOM     17  O   UNL     1      -5.859  12.437  16.828  0.00  0.00    +0.000 OA
ENDBRANCH  10  17
BRANCH  15  18
ATOM     18  O   UNL     1      -3.767  11.210  14.709  0.00  0.00    +0.000 OA
ATOM     19  C   UNL     1      -3.386   9.951  14.243  0.00  0.00    +0.000 C 
ENDBRANCH  15  18
ENDBRANCH   9  13
ENDBRANCH   8   9
ENDBRANCH   6   8
ENDBRANCH   1   6
BRANCH   5  20
ATOM     20  C   UNL     1       1.384   8.610  20.961  0.00  0.00    +0.000 C 
ATOM     21  N   UNL     1       0.983   8.966  21.989  0.00  0.00    +0.000 NA
ENDBRANCH   5  20
BRANCH   3  22
ATOM     22  C   UNL     1       3.051   5.236  17.988  0.00  0.00    +0.000 C 
BRANCH  22  23
ATOM     23  C   UNL     1       4.623   5.124  17.954  0.00  0.00    +0.000 A 
ATOM     24  C   UNL     1       5.318   5.367  19.202  0.00  0.00    +0.000 A 
ATOM     25  C   UNL     1       6.710   5.379  19.260  0.00  0.00    +0.000 A 
ATOM     26  C   UNL     1       7.411   5.082  18.097  0.00  0.00    +0.000 A 
ATOM     27  C   UNL     1       6.758   4.875  16.845  0.00  0.00    +0.000 A 
ATOM     28  C   UNL     1       7.501   4.782  15.671  0.00  0.00    +0.000 A 
ATOM     29  C   UNL     1       6.906   4.765  14.377  0.00  0.00    +0.000 A 
ATOM     30  C   UNL     1       5.749   4.081  14.064  0.00  0.00    +0.000 A 
ATOM     31  C   UNL     1       5.010   4.337  15.235  0.00  0.00    +0.000 A 
ATOM     32  C   UNL     1       5.381   4.790  16.690  0.00  0.00    +0.000 A 
ENDBRANCH  22  23
ENDBRANCH   3  22
TORSDOF 9
ENDMDL
MODEL 7
REMARK VINA RESULT:      -8.0      1.392      2.652
REMARK  Name = 
REMARK  11 active torsions:
REMARK  status: ('A' for Active; 'I' for Inactive)
REMARK    1  A    between atoms: C_1  and  O_2
REMARK    2  A    between atoms: O_2  and  C_3
REMARK    3  A    between atoms: C_6  and  C_7
REMARK    4  A    between atoms: C_7  and  C_8
REMARK    5  A    between atoms: C_8  and  N_9
REMARK    6  A    between atoms: N_9  and  C_10
REMARK    7  A    between atoms: C_12  and  C_13
REMARK    8  A    between atoms: C_13  and  C_14
REMARK    9  A    between atoms: C_25  and  C_26
REMARK   10  A    between atoms: C_29  and  O_30
REMARK   11  A    between atoms: O_30  and  C_31
REMARK                            x       y       z     vdW  Elec       q    Type
REMARK                         _______ _______ _______ _____ _____    ______ ____
ROOT
ATOM      1  C   UNL     1       7.126   7.148  17.438  0.00  0.00    +0.000 A 
ATOM      2  O   UNL     1       5.838   7.365  16.801  0.00  0.00    +0.000 OA
ATOM      3  C   UNL     1       4.951   6.456  17.461  0.00  0.00    +0.000 A 
ATOM      4  N   UNL     1       5.550   5.774  18.398  0.00  0.00    +0.000 NA
ATOM      5  C   UNL     1       6.839   6.196  18.400  0.00  0.00    +0.000 A 
ENDROOT
BRANCH   1   6
ATOM      6  N   UNL     1       8.284   7.835  17.082  0.00  0.00    +0.000 N 
ATOM      7  H   UNL     1       8.857   7.570  16.268  0.00  0.00    +0.000 HD
BRANCH   6   8
ATOM      8  C   UNL     1       8.494   9.224  17.554  0.00  0.00    +0.000 C 
BRANCH   8   9
ATOM      9  C   UNL     1       9.000   9.429  19.020  0.00  0.00    +0.000 C 
BRANCH   9  13
ATOM     10  C   UNL     1      10.952  13.268  19.927  0.00  0.00    +0.000 A 
ATOM     11  C   UNL     1      11.059  12.649  18.679  0.00  0.00    +0.000 A 
ATOM     12  C   UNL     1      10.333  11.488  18.343  0.00  0.00    +0.000 A 
ATOM     13  C   UNL     1       9.588  10.804  19.301  0.00  0.00    +0.000 A 
ATOM     14  C   UNL     1       9.473  11.409  20.551  0.00  0.00    +0.000 A 
ATOM     15  C   UNL     1      10.141  12.604  20.896  0.00  0.00    +0.000 A 
BRANCH  10  17
ATOM     16  C   UNL     1      10.971  15.643  19.313  0.00  0.00    +0.000 C 
ATOM     17  O   UNL     1      11.545  14.522  20.046  0.00  0.00    +0.000 OA
ENDBRANCH  10  17
BRANCH  15  18
ATOM     18  O   UNL     1       9.799  12.894  22.208  0.00  0.00    +0.000 OA
ATOM     19  C   UNL     1       8.875  13.939  22.267  0.00  0.00    +0.000 C 
ENDBRANCH  15  18
ENDBRANCH   9  13
ENDBRANCH   8   9
ENDBRANCH   6   8
ENDBRANCH   1   6
BRANCH   5  20
ATOM     20  C   UNL     1       7.666   5.676  19.415  0.00  0.00    +0.000 C 
ATOM     21  N   UNL     1       8.332   5.238  20.258  0.00  0.00    +0.000 NA
ENDBRANCH   5  20
BRANCH   3  22
ATOM     22  C   UNL     1       3.457   6.226  17.183  0.00  0.00    +0.000 C 
BRANCH  22  23
ATOM     23  C   UNL     1       2.613   6.086  18.508  0.00  0.00    +0.000 A 
ATOM     24  C   UNL     1       2.408   7.296  19.278  0.00  0.00    +0.000 A 
ATOM     25  C   UNL     1       1.753   7.264  20.507  0.00  0.00    +0.000 A 
ATOM     26  C   UNL     1       1.241   6.045  20.938  0.00  0.00    +0.000 A 
ATOM     27  C   UNL     1       1.457   4.830  20.222  0.00  0.00    +0.000 A 
ATOM     28  C   UNL     1       1.104   3.607  20.787  0.00  0.00    +0.000 A 
ATOM     29  C   UNL     1       1.463   2.356  20.211  0.00  0.00    +0.000 A 
ATOM     30  C   UNL     1       1.435   2.088  18.857  0.00  0.00    +0.000 A 
ATOM     31  C   UNL     1       1.930   3.315  18.373  0.00  0.00    +0.000 A 
ATOM     32  C   UNL     1       2.048   4.761  18.967  0.00  0.00    +0.000 A 
ENDBRANCH  22  23
ENDBRANCH   3  22
TORSDOF 9
ENDMDL
MODEL 8
REMARK VINA RESULT:      -7.9      1.760      3.040
REMARK  Name = 
REMARK  11 active torsions:
REMARK  status: ('A' for Active; 'I' for Inactive)
REMARK    1  A    between atoms: C_1  and  O_2
REMARK    2  A    between atoms: O_2  and  C_3
REMARK    3  A    between atoms: C_6  and  C_7
REMARK    4  A    between atoms: C_7  and  C_8
REMARK    5  A    between atoms: C_8  and  N_9
REMARK    6  A    between atoms: N_9  and  C_10
REMARK    7  A    between atoms: C_12  and  C_13
REMARK    8  A    between atoms: C_13  and  C_14
REMARK    9  A    between atoms: C_25  and  C_26
REMARK   10  A    between atoms: C_29  and  O_30
REMARK   11  A    between atoms: O_30  and  C_31
REMARK                            x       y       z     vdW  Elec       q    Type
REMARK                         _______ _______ _______ _____ _____    ______ ____
ROOT
ATOM      1  C   UNL     1       6.785   6.335  16.646  0.00  0.00    +0.000 A 
ATOM      2  O   UNL     1       5.664   6.078  17.535  0.00  0.00    +0.000 OA
ATOM      3  C   UNL     1       4.807   5.205  16.792  0.00  0.00    +0.000 A 
ATOM      4  N   UNL     1       5.297   4.912  15.619  0.00  0.00    +0.000 NA
ATOM      5  C   UNL     1       6.482   5.567  15.536  0.00  0.00    +0.000 A 
ENDROOT
BRANCH   1   6
ATOM      6  N   UNL     1       7.858   7.156  16.982  0.00  0.00    +0.000 N 
ATOM      7  H   UNL     1       8.753   7.135  16.472  0.00  0.00    +0.000 HD
BRANCH   6   8
ATOM      8  C   UNL     1       7.624   8.397  17.759  0.00  0.00    +0.000 C 
BRANCH   8   9
ATOM      9  C   UNL     1       8.702   8.814  18.812  0.00  0.00    +0.000 C 
BRANCH   9  13
ATOM     10  C   UNL     1       9.616  13.118  18.909  0.00  0.00    +0.000 A 
ATOM     11  C   UNL     1      10.248  12.198  19.749  0.00  0.00    +0.000 A 
ATOM     12  C   UNL     1      10.054  10.806  19.635  0.00  0.00    +0.000 A 
ATOM     13  C   UNL     1       9.092  10.284  18.774  0.00  0.00    +0.000 A 
ATOM     14  C   UNL     1       8.452  11.190  17.928  0.00  0.00    +0.000 A 
ATOM     15  C   UNL     1       8.672  12.584  17.981  0.00  0.00    +0.000 A 
BRANCH  10  17
ATOM     16  C   UNL     1      10.689  15.029  17.809  0.00  0.00    +0.000 C 
ATOM     17  O   UNL     1      10.067  14.433  18.984  0.00  0.00    +0.000 OA
ENDBRANCH  10  17
BRANCH  15  18
ATOM     18  O   UNL     1       7.865  13.156  17.010  0.00  0.00    +0.000 OA
ATOM     19  C   UNL     1       6.977  14.075  17.574  0.00  0.00    +0.000 C 
ENDBRANCH  15  18
ENDBRANCH   9  13
ENDBRANCH   8   9
ENDBRANCH   6   8
ENDBRANCH   1   6
BRANCH   5  20
ATOM     20  C   UNL     1       7.258   5.312  14.389  0.00  0.00    +0.000 C 
ATOM     21  N   UNL     1       7.907   5.118  13.446  0.00  0.00    +0.000 NA
ENDBRANCH   5  20
BRANCH   3  22
ATOM     22  C   UNL     1       3.451   4.622  17.223  0.00  0.00    +0.000 C 
BRANCH  22  23
ATOM     23  C   UNL     1       2.926   5.254  18.569  0.00  0.00    +0.000 A 
ATOM     24  C   UNL     1       2.788   4.357  19.698  0.00  0.00    +0.000 A 
ATOM     25  C   UNL     1       2.250   4.796  20.905  0.00  0.00    +0.000 A 
ATOM     26  C   UNL     1       1.914   6.140  21.015  0.00  0.00    +0.000 A 
ATOM     27  C   UNL     1       2.002   7.042  19.912  0.00  0.00    +0.000 A 
ATOM     28  C   UNL     1       1.468   8.324  20.006  0.00  0.00    +0.000 A 
ATOM     29  C   UNL     1       1.355   9.200  18.889  0.00  0.00    +0.000 A 
ATOM     30  C   UNL     1       2.320   9.340  17.913  0.00  0.00    +0.000 A 
ATOM     31  C   UNL     1       2.709   7.993  17.783  0.00  0.00    +0.000 A 
ATOM     32  C   UNL     1       2.572   6.719  18.687  0.00  0.00    +0.000 A 
ENDBRANCH  22  23
ENDBRANCH   3  22
TORSDOF 9
ENDMDL
MODEL 9
REMARK VINA RESULT:      -7.9      5.571      9.387
REMARK  Name = 
REMARK  11 active torsions:
REMARK  status: ('A' for Active; 'I' for Inactive)
REMARK    1  A    between atoms: C_1  and  O_2
REMARK    2  A    between atoms: O_2  and  C_3
REMARK    3  A    between atoms: C_6  and  C_7
REMARK    4  A    between atoms: C_7  and  C_8
REMARK    5  A    between atoms: C_8  and  N_9
REMARK    6  A    between atoms: N_9  and  C_10
REMARK    7  A    between atoms: C_12  and  C_13
REMARK    8  A    between atoms: C_13  and  C_14
REMARK    9  A    between atoms: C_25  and  C_26
REMARK   10  A    between atoms: C_29  and  O_30
REMARK   11  A    between atoms: O_30  and  C_31
REMARK                            x       y       z     vdW  Elec       q    Type
REMARK                         _______ _______ _______ _____ _____    ______ ____
ROOT
ATOM      1  C   UNL     1       1.792   7.851  20.049  0.00  0.00    +0.000 A 
ATOM      2  O   UNL     1       2.252   6.478  20.163  0.00  0.00    +0.000 OA
ATOM      3  C   UNL     1       2.752   6.155  18.862  0.00  0.00    +0.000 A 
ATOM      4  N   UNL     1       2.662   7.160  18.035  0.00  0.00    +0.000 NA
ATOM      5  C   UNL     1       2.109   8.176  18.742  0.00  0.00    +0.000 A 
ENDROOT
BRANCH   1   6
ATOM      6  N   UNL     1       1.217   8.559  21.102  0.00  0.00    +0.000 N 
ATOM      7  H   UNL     1       1.765   8.902  21.904  0.00  0.00    +0.000 HD
BRANCH   6   8
ATOM      8  C   UNL     1      -0.083   9.245  20.908  0.00  0.00    +0.000 C 
BRANCH   8   9
ATOM      9  C   UNL     1      -0.063  10.694  20.320  0.00  0.00    +0.000 C 
BRANCH   9  13
ATOM     10  C   UNL     1      -3.896  11.668  18.388  0.00  0.00    +0.000 A 
ATOM     11  C   UNL     1      -3.451  12.318  19.541  0.00  0.00    +0.000 A 
ATOM     12  C   UNL     1      -2.170  12.102  20.089  0.00  0.00    +0.000 A 
ATOM     13  C   UNL     1      -1.337  11.101  19.595  0.00  0.00    +0.000 A 
ATOM     14  C   UNL     1      -1.768  10.442  18.444  0.00  0.00    +0.000 A 
ATOM     15  C   UNL     1      -3.021  10.682  17.839  0.00  0.00    +0.000 A 
BRANCH  10  17
ATOM     16  C   UNL     1      -6.302  11.364  18.026  0.00  0.00    +0.000 C 
ATOM     17  O   UNL     1      -5.083  12.138  17.833  0.00  0.00    +0.000 OA
ENDBRANCH  10  17
BRANCH  15  18
ATOM     18  O   UNL     1      -3.103   9.846  16.737  0.00  0.00    +0.000 OA
ATOM     19  C   UNL     1      -2.863  10.549  15.555  0.00  0.00    +0.000 C 
ENDBRANCH  15  18
ENDBRANCH   9  13
ENDBRANCH   8   9
ENDBRANCH   6   8
ENDBRANCH   1   6
BRANCH   5  20
ATOM     20  C   UNL     1       2.014   9.418  18.083  0.00  0.00    +0.000 C 
ATOM     21  N   UNL     1       1.953  10.444  17.546  0.00  0.00    +0.000 NA
ENDBRANCH   5  20
BRANCH   3  22
ATOM     22  C   UNL     1       3.344   4.819  18.383  0.00  0.00    +0.000 C 
BRANCH  22  23
ATOM     23  C   UNL     1       4.901   4.902  18.150  0.00  0.00    +0.000 A 
ATOM     24  C   UNL     1       5.715   5.223  19.305  0.00  0.00    +0.000 A 
ATOM     25  C   UNL     1       7.091   5.406  19.188  0.00  0.00    +0.000 A 
ATOM     26  C   UNL     1       7.669   5.201  17.940  0.00  0.00    +0.000 A 
ATOM     27  C   UNL     1       6.892   4.920  16.776  0.00  0.00    +0.000 A 
ATOM     28  C   UNL     1       7.486   4.923  15.517  0.00  0.00    +0.000 A 
ATOM     29  C   UNL     1       6.738   4.837  14.308  0.00  0.00    +0.000 A 
ATOM     30  C   UNL     1       5.642   4.018  14.130  0.00  0.00    +0.000 A 
ATOM     31  C   UNL     1       5.032   4.178  15.389  0.00  0.00    +0.000 A 
ATOM     32  C   UNL     1       5.527   4.667  16.794  0.00  0.00    +0.000 A 
ENDBRANCH  22  23
ENDBRANCH   3  22
TORSDOF 9
ENDMDL
