MODEL 1
REMARK VINA RESULT:      -9.0      0.000      0.000
REMARK  Name = 
REMARK  10 active torsions:
REMARK  status: ('A' for Active; 'I' for Inactive)
REMARK    1  A    between atoms: C_1  and  C_2
REMARK    2  A    between atoms: C_2  and  C_3
REMARK    3  A    between atoms: C_2  and  C_4
REMARK    4  A    between atoms: C_2  and  C_5
REMARK    5  A    between atoms: C_5  and  N_6
REMARK    6  A    between atoms: C_5  and  C_17
REMARK    7  A    between atoms: C_7  and  C_9
REMARK    8  A    between atoms: C_15  and  O_16
REMARK    9  A    between atoms: N_19  and  C_20
REMARK   10  A    between atoms: C_24  and  C_25
REMARK                            x       y       z     vdW  Elec       q    Type
REMARK                         _______ _______ _______ _____ _____    ______ ____
ROOT
ATOM      1  C   UNL     1       3.194   4.782  19.502  0.00  0.00    +0.000 C 
ENDROOT
BRANCH   1   3
ATOM      2  C   UNL     1       2.656   2.360  18.920  0.00  0.00    +0.000 C 
ATOM      3  C   UNL     1       2.077   3.791  19.017  0.00  0.00    +0.000 C 
ATOM      4  C   UNL     1       1.459   4.129  17.651  0.00  0.00    +0.000 C 
ATOM      5  C   UNL     1       0.939   3.751  20.064  0.00  0.00    +0.000 C 
ENDBRANCH   1   3
BRANCH   1   6
ATOM      6  N   UNL     1       2.738   6.138  19.838  0.00  0.00    +0.000 N 
ATOM      7  C   UNL     1       2.503   7.169  18.969  0.00  0.00    +0.000 C 
ATOM      8  O   UNL     1       2.852   7.146  17.794  0.00  0.00    +0.000 OA
ATOM      9  H   UNL     1       2.521   6.315  20.815  0.00  0.00    +0.000 HD
BRANCH   7  10
ATOM     10  C   UNL     1       1.772   8.352  19.499  0.00  0.00    +0.000 A 
ATOM     11  C   UNL     1       1.380   8.289  20.845  0.00  0.00    +0.000 A 
ATOM     12  C   UNL     1       0.720   9.362  21.428  0.00  0.00    +0.000 A 
ATOM     13 CL   UNL     1       0.280   9.294  23.091  0.00  0.00    +0.000 Cl
ATOM     14  C   UNL     1       0.420  10.502  20.680  0.00  0.00    +0.000 A 
ATOM     15  C   UNL     1       0.797  10.570  19.337  0.00  0.00    +0.000 A 
ATOM     16  C   UNL     1       1.478   9.500  18.750  0.00  0.00    +0.000 A 
BRANCH  16  17
ATOM     17  O   UNL     1       1.856   9.593  17.437  0.00  0.00    +0.000 OA
ATOM     18  H   UNL     1       2.619   9.006  17.282  0.00  0.00    +0.000 HD
ENDBRANCH  16  17
ENDBRANCH   7  10
ENDBRANCH   1   6
BRANCH   1  19
ATOM     19  C   UNL     1       4.517   4.752  18.688  0.00  0.00    +0.000 C 
ATOM     20  O   UNL     1       5.577   4.514  19.271  0.00  0.00    +0.000 OA
ATOM     21  N   UNL     1       4.380   4.948  17.329  0.00  0.00    +0.000 N 
ATOM     22  H   UNL     1       3.463   5.281  17.021  0.00  0.00    +0.000 HD
BRANCH  21  23
ATOM     23  C   UNL     1       5.391   4.890  16.350  0.00  0.00    +0.000 A 
ATOM     24  C   UNL     1       6.667   5.419  16.541  0.00  0.00    +0.000 A 
ATOM     25  C   UNL     1       7.630   5.339  15.534  0.00  0.00    +0.000 A 
ATOM     26  C   UNL     1       7.320   4.734  14.319  0.00  0.00    +0.000 A 
ATOM     27  C   UNL     1       6.045   4.192  14.102  0.00  0.00    +0.000 A 
ATOM     28  C   UNL     1       5.091   4.261  15.134  0.00  0.00    +0.000 A 
BRANCH  27  29
ATOM     29  C   UNL     1       5.694   3.565  12.777  0.00  0.00    +0.000 C 
ATOM     30  F   UNL     1       4.393   3.754  12.412  0.00  0.00    +0.000 F 
ATOM     31  F   UNL     1       6.439   4.053  11.748  0.00  0.00    +0.000 F 
ATOM     32  F   UNL     1       5.884   2.216  12.771  0.00  0.00    +0.000 F 
ENDBRANCH  27  29
ENDBRANCH  21  23
ENDBRANCH   1  19
TORSDOF 7
ENDMDL
MODEL 2
REMARK VINA RESULT:      -8.9      0.176      1.063
REMARK  Name = 
REMARK  10 active torsions:
REMARK  status: ('A' for Active; 'I' for Inactive)
REMARK    1  A    between atoms: C_1  and  C_2
REMARK    2  A    between atoms: C_2  and  C_3
REMARK    3  A    between atoms: C_2  and  C_4
REMARK    4  A    between atoms: C_2  and  C_5
REMARK    5  A    between atoms: C_5  and  N_6
REMARK    6  A    between atoms: C_5  and  C_17
REMARK    7  A    between atoms: C_7  and  C_9
REMARK    8  A    between atoms: C_15  and  O_16
REMARK    9  A    between atoms: N_19  and  C_20
REMARK   10  A    between atoms: C_24  and  C_25
REMARK                            x       y       z     vdW  Elec       q    Type
REMARK                         _______ _______ _______ _____ _____    ______ ____
ROOT
ATOM      1  C   UNL     1       3.139   4.822  19.510  0.00  0.00    +0.000 C 
ENDROOT
BRANCH   1   3
ATOM      2  C   UNL     1       0.940   3.642  20.024  0.00  0.00    +0.000 C 
ATOM      3  C   UNL     1       2.089   3.773  18.998  0.00  0.00    +0.000 C 
ATOM      4  C   UNL     1       2.648   2.362  18.756  0.00  0.00    +0.000 C 
ATOM      5  C   UNL     1       1.465   4.276  17.676  0.00  0.00    +0.000 C 
ENDBRANCH   1   3
BRANCH   1   6
ATOM      6  N   UNL     1       2.595   6.137  19.875  0.00  0.00    +0.000 N 
ATOM      7  C   UNL     1       2.558   7.261  19.094  0.00  0.00    +0.000 C 
ATOM      8  O   UNL     1       3.176   7.364  18.040  0.00  0.00    +0.000 OA
ATOM      9  H   UNL     1       2.150   6.208  20.786  0.00  0.00    +0.000 HD
BRANCH   7  10
ATOM     10  C   UNL     1       1.704   8.387  19.562  0.00  0.00    +0.000 A 
ATOM     11  C   UNL     1       1.306   8.348  20.907  0.00  0.00    +0.000 A 
ATOM     12  C   UNL     1       0.534   9.374  21.434  0.00  0.00    +0.000 A 
ATOM     13 CL   UNL     1       0.085   9.340  23.095  0.00  0.00    +0.000 Cl
ATOM     14  C   UNL     1       0.128  10.440  20.630  0.00  0.00    +0.000 A 
ATOM     15  C   UNL     1       0.510  10.483  19.287  0.00  0.00    +0.000 A 
ATOM     16  C   UNL     1       1.303   9.462  18.756  0.00  0.00    +0.000 A 
BRANCH  16  17
ATOM     17  O   UNL     1       1.684   9.531  17.443  0.00  0.00    +0.000 OA
ATOM     18  H   UNL     1       2.556   9.963  17.386  0.00  0.00    +0.000 HD
ENDBRANCH  16  17
ENDBRANCH   7  10
ENDBRANCH   1   6
BRANCH   1  19
ATOM     19  C   UNL     1       4.463   4.895  18.702  0.00  0.00    +0.000 C 
ATOM     20  O   UNL     1       5.537   4.911  19.307  0.00  0.00    +0.000 OA
ATOM     21  N   UNL     1       4.320   4.883  17.329  0.00  0.00    +0.000 N 
ATOM     22  H   UNL     1       3.367   5.020  16.983  0.00  0.00    +0.000 HD
BRANCH  21  23
ATOM     23  C   UNL     1       5.344   4.857  16.363  0.00  0.00    +0.000 A 
ATOM     24  C   UNL     1       6.608   5.405  16.578  0.00  0.00    +0.000 A 
ATOM     25  C   UNL     1       7.585   5.357  15.582  0.00  0.00    +0.000 A 
ATOM     26  C   UNL     1       7.300   4.765  14.354  0.00  0.00    +0.000 A 
ATOM     27  C   UNL     1       6.038   4.204  14.113  0.00  0.00    +0.000 A 
ATOM     28  C   UNL     1       5.070   4.241  15.134  0.00  0.00    +0.000 A 
BRANCH  27  29
ATOM     29  C   UNL     1       5.715   3.589  12.775  0.00  0.00    +0.000 C 
ATOM     30  F   UNL     1       6.459   4.094  11.749  0.00  0.00    +0.000 F 
ATOM     31  F   UNL     1       5.918   2.243  12.750  0.00  0.00    +0.000 F 
ATOM     32  F   UNL     1       4.415   3.778  12.413  0.00  0.00    +0.000 F 
ENDBRANCH  27  29
ENDBRANCH  21  23
ENDBRANCH   1  19
TORSDOF 7
ENDMDL
MODEL 3
REMARK VINA RESULT:      -8.4      1.049      1.470
REMARK  Name = 
REMARK  10 active torsions:
REMARK  status: ('A' for Active; 'I' for Inactive)
REMARK    1  A    between atoms: C_1  and  C_2
REMARK    2  A    between atoms: C_2  and  C_3
REMARK    3  A    between atoms: C_2  and  C_4
REMARK    4  A    between atoms: C_2  and  C_5
REMARK    5  A    between atoms: C_5  and  N_6
REMARK    6  A    between atoms: C_5  and  C_17
REMARK    7  A    between atoms: C_7  and  C_9
REMARK    8  A    between atoms: C_15  and  O_16
REMARK    9  A    between atoms: N_19  and  C_20
REMARK   10  A    between atoms: C_24  and  C_25
REMARK                            x       y       z     vdW  Elec       q    Type
REMARK                         _______ _______ _______ _____ _____    ______ ____
ROOT
ATOM      1  C   UNL     1       3.272   4.310  19.164  0.00  0.00    +0.000 C 
ENDROOT
BRANCH   1   3
ATOM      2  C   UNL     1       1.129   3.297  18.229  0.00  0.00    +0.000 C 
ATOM      3  C   UNL     1       2.352   3.038  19.138  0.00  0.00    +0.000 C 
ATOM      4  C   UNL     1       1.817   2.597  20.510  0.00  0.00    +0.000 C 
ATOM      5  C   UNL     1       3.134   1.853  18.524  0.00  0.00    +0.000 C 
ENDBRANCH   1   3
BRANCH   1   6
ATOM      6  N   UNL     1       2.577   5.599  19.039  0.00  0.00    +0.000 N 
ATOM      7  C   UNL     1       2.181   6.425  20.056  0.00  0.00    +0.000 C 
ATOM      8  O   UNL     1       2.177   6.083  21.233  0.00  0.00    +0.000 OA
ATOM      9  H   UNL     1       2.420   5.940  18.095  0.00  0.00    +0.000 HD
BRANCH   7  10
ATOM     10  C   UNL     1       1.760   7.804  19.686  0.00  0.00    +0.000 A 
ATOM     11  C   UNL     1       0.977   8.488  20.629  0.00  0.00    +0.000 A 
ATOM     12  C   UNL     1       0.565   9.790  20.378  0.00  0.00    +0.000 A 
ATOM     13 CL   UNL     1      -0.360  10.637  21.556  0.00  0.00    +0.000 Cl
ATOM     14  C   UNL     1       0.906  10.424  19.181  0.00  0.00    +0.000 A 
ATOM     15  C   UNL     1       1.677   9.747  18.233  0.00  0.00    +0.000 A 
ATOM     16  C   UNL     1       2.109   8.443  18.488  0.00  0.00    +0.000 A 
BRANCH  16  17
ATOM     17  O   UNL     1       2.879   7.804  17.555  0.00  0.00    +0.000 OA
ATOM     18  H   UNL     1       2.591   6.874  17.486  0.00  0.00    +0.000 HD
ENDBRANCH  16  17
ENDBRANCH   7  10
ENDBRANCH   1   6
BRANCH   1  19
ATOM     19  C   UNL     1       4.570   4.216  18.317  0.00  0.00    +0.000 C 
ATOM     20  O   UNL     1       5.559   3.652  18.791  0.00  0.00    +0.000 OA
ATOM     21  N   UNL     1       4.487   4.744  17.045  0.00  0.00    +0.000 N 
ATOM     22  H   UNL     1       3.654   5.308  16.854  0.00  0.00    +0.000 HD
BRANCH  21  23
ATOM     23  C   UNL     1       5.475   4.722  16.043  0.00  0.00    +0.000 A 
ATOM     24  C   UNL     1       6.749   5.264  16.216  0.00  0.00    +0.000 A 
ATOM     25  C   UNL     1       7.689   5.219  15.186  0.00  0.00    +0.000 A 
ATOM     26  C   UNL     1       7.359   4.637  13.965  0.00  0.00    +0.000 A 
ATOM     27  C   UNL     1       6.088   4.081  13.765  0.00  0.00    +0.000 A 
ATOM     28  C   UNL     1       5.156   4.114  14.820  0.00  0.00    +0.000 A 
BRANCH  27  29
ATOM     29  C   UNL     1       5.715   3.477  12.435  0.00  0.00    +0.000 C 
ATOM     30  F   UNL     1       4.398   3.635  12.115  0.00  0.00    +0.000 F 
ATOM     31  F   UNL     1       6.413   4.015  11.397  0.00  0.00    +0.000 F 
ATOM     32  F   UNL     1       5.947   2.136  12.387  0.00  0.00    +0.000 F 
ENDBRANCH  27  29
ENDBRANCH  21  23
ENDBRANCH   1  19
TORSDOF 7
ENDMDL
MODEL 4
REMARK VINA RESULT:      -8.3      1.092      1.490
REMARK  Name = 
REMARK  10 active torsions:
REMARK  status: ('A' for Active; 'I' for Inactive)
REMARK    1  A    between atoms: C_1  and  C_2
REMARK    2  A    between atoms: C_2  and  C_3
REMARK    3  A    between atoms: C_2  and  C_4
REMARK    4  A    between atoms: C_2  and  C_5
REMARK    5  A    between atoms: C_5  and  N_6
REMARK    6  A    between atoms: C_5  and  C_17
REMARK    7  A    between atoms: C_7  and  C_9
REMARK    8  A    between atoms: C_15  and  O_16
REMARK    9  A    between atoms: N_19  and  C_20
REMARK   10  A    between atoms: C_24  and  C_25
REMARK                            x       y       z     vdW  Elec       q    Type
REMARK                         _______ _______ _______ _____ _____    ______ ____
ROOT
ATOM      1  C   UNL     1       3.163   4.520  19.334  0.00  0.00    +0.000 C 
ENDROOT
BRANCH   1   3
ATOM      2  C   UNL     1       2.551   2.499  20.760  0.00  0.00    +0.000 C 
ATOM      3  C   UNL     1       2.237   3.257  19.449  0.00  0.00    +0.000 C 
ATOM      4  C   UNL     1       2.369   2.250  18.296  0.00  0.00    +0.000 C 
ATOM      5  C   UNL     1       0.760   3.710  19.527  0.00  0.00    +0.000 C 
ENDBRANCH   1   3
BRANCH   1   6
ATOM      6  N   UNL     1       2.472   5.792  19.082  0.00  0.00    +0.000 N 
ATOM      7  C   UNL     1       2.126   6.742  20.006  0.00  0.00    +0.000 C 
ATOM      8  O   UNL     1       2.170   6.545  21.215  0.00  0.00    +0.000 OA
ATOM      9  H   UNL     1       2.276   6.019  18.111  0.00  0.00    +0.000 HD
BRANCH   7  10
ATOM     10  C   UNL     1       1.699   8.070  19.489  0.00  0.00    +0.000 A 
ATOM     11  C   UNL     1       0.799   8.789  20.291  0.00  0.00    +0.000 A 
ATOM     12  C   UNL     1       0.372  10.050  19.899  0.00  0.00    +0.000 A 
ATOM     13 CL   UNL     1      -0.699  10.943  20.908  0.00  0.00    +0.000 Cl
ATOM     14  C   UNL     1       0.814  10.607  18.697  0.00  0.00    +0.000 A 
ATOM     15  C   UNL     1       1.701   9.895  17.887  0.00  0.00    +0.000 A 
ATOM     16  C   UNL     1       2.149   8.633  18.286  0.00  0.00    +0.000 A 
BRANCH  16  17
ATOM     17  O   UNL     1       3.033   7.958  17.488  0.00  0.00    +0.000 OA
ATOM     18  H   UNL     1       3.502   8.597  16.921  0.00  0.00    +0.000 HD
ENDBRANCH  16  17
ENDBRANCH   7  10
ENDBRANCH   1   6
BRANCH   1  19
ATOM     19  C   UNL     1       4.452   4.332  18.490  0.00  0.00    +0.000 C 
ATOM     20  O   UNL     1       5.365   3.632  18.933  0.00  0.00    +0.000 OA
ATOM     21  N   UNL     1       4.444   4.942  17.252  0.00  0.00    +0.000 N 
ATOM     22  H   UNL     1       3.683   5.607  17.092  0.00  0.00    +0.000 HD
BRANCH  21  23
ATOM     23  C   UNL     1       5.436   4.870  16.256  0.00  0.00    +0.000 A 
ATOM     24  C   UNL     1       6.726   5.373  16.426  0.00  0.00    +0.000 A 
ATOM     25  C   UNL     1       7.669   5.279  15.402  0.00  0.00    +0.000 A 
ATOM     26  C   UNL     1       7.326   4.686  14.190  0.00  0.00    +0.000 A 
ATOM     27  C   UNL     1       6.038   4.169  13.993  0.00  0.00    +0.000 A 
ATOM     28  C   UNL     1       5.103   4.251  15.042  0.00  0.00    +0.000 A 
BRANCH  27  29
ATOM     29  C   UNL     1       5.651   3.554  12.672  0.00  0.00    +0.000 C 
ATOM     30  F   UNL     1       6.352   4.053  11.613  0.00  0.00    +0.000 F 
ATOM     31  F   UNL     1       5.846   2.207  12.640  0.00  0.00    +0.000 F 
ATOM     32  F   UNL     1       4.337   3.749  12.369  0.00  0.00    +0.000 F 
ENDBRANCH  27  29
ENDBRANCH  21  23
ENDBRANCH   1  19
TORSDOF 7
ENDMDL
MODEL 5
REMARK VINA RESULT:      -8.3      3.155      4.754
REMARK  Name = 
REMARK  10 active torsions:
REMARK  status: ('A' for Active; 'I' for Inactive)
REMARK    1  A    between atoms: C_1  and  C_2
REMARK    2  A    between atoms: C_2  and  C_3
REMARK    3  A    between atoms: C_2  and  C_4
REMARK    4  A    between atoms: C_2  and  C_5
REMARK    5  A    between atoms: C_5  and  N_6
REMARK    6  A    between atoms: C_5  and  C_17
REMARK    7  A    between atoms: C_7  and  C_9
REMARK    8  A    between atoms: C_15  and  O_16
REMARK    9  A    between atoms: N_19  and  C_20
REMARK   10  A    between atoms: C_24  and  C_25
REMARK                            x       y       z     vdW  Elec       q    Type
REMARK                         _______ _______ _______ _____ _____    ______ ____
ROOT
ATOM      1  C   UNL     1       5.702   5.820  17.644  0.00  0.00    +0.000 C 
ENDROOT
BRANCH   1   3
ATOM      2  C   UNL     1       7.961   4.643  17.725  0.00  0.00    +0.000 C 
ATOM      3  C   UNL     1       7.123   5.802  18.313  0.00  0.00    +0.000 C 
ATOM      4  C   UNL     1       7.118   5.635  19.840  0.00  0.00    +0.000 C 
ATOM      5  C   UNL     1       7.864   7.117  17.975  0.00  0.00    +0.000 C 
ENDBRANCH   1   3
BRANCH   1   6
ATOM      6  N   UNL     1       4.714   4.903  18.229  0.00  0.00    +0.000 N 
ATOM      7  C   UNL     1       3.564   5.241  18.891  0.00  0.00    +0.000 C 
ATOM      8  O   UNL     1       3.318   6.383  19.265  0.00  0.00    +0.000 OA
ATOM      9  H   UNL     1       4.872   3.911  18.081  0.00  0.00    +0.000 HD
BRANCH   7  10
ATOM     10  C   UNL     1       2.577   4.155  19.138  0.00  0.00    +0.000 A 
ATOM     11  C   UNL     1       2.331   3.833  20.481  0.00  0.00    +0.000 A 
ATOM     12  C   UNL     1       1.402   2.852  20.803  0.00  0.00    +0.000 A 
ATOM     13 CL   UNL     1       1.076   2.491  22.453  0.00  0.00    +0.000 Cl
ATOM     14  C   UNL     1       0.722   2.163  19.797  0.00  0.00    +0.000 A 
ATOM     15  C   UNL     1       0.968   2.470  18.457  0.00  0.00    +0.000 A 
ATOM     16  C   UNL     1       1.888   3.469  18.128  0.00  0.00    +0.000 A 
BRANCH  16  17
ATOM     17  O   UNL     1       2.102   3.768  16.810  0.00  0.00    +0.000 OA
ATOM     18  H   UNL     1       1.306   4.200  16.448  0.00  0.00    +0.000 HD
ENDBRANCH  16  17
ENDBRANCH   7  10
ENDBRANCH   1   6
BRANCH   1  19
ATOM     19  C   UNL     1       5.692   5.842  16.092  0.00  0.00    +0.000 C 
ATOM     20  O   UNL     1       5.380   6.881  15.506  0.00  0.00    +0.000 OA
ATOM     21  N   UNL     1       6.096   4.673  15.480  0.00  0.00    +0.000 N 
ATOM     22  H   UNL     1       6.177   3.858  16.094  0.00  0.00    +0.000 HD
BRANCH  21  23
ATOM     23  C   UNL     1       6.260   4.441  14.102  0.00  0.00    +0.000 A 
ATOM     24  C   UNL     1       7.444   4.717  13.418  0.00  0.00    +0.000 A 
ATOM     25  C   UNL     1       7.550   4.471  12.048  0.00  0.00    +0.000 A 
ATOM     26  C   UNL     1       6.465   3.954  11.346  0.00  0.00    +0.000 A 
ATOM     27  C   UNL     1       5.264   3.665  12.009  0.00  0.00    +0.000 A 
ATOM     28  C   UNL     1       5.178   3.897  13.395  0.00  0.00    +0.000 A 
BRANCH  27  29
ATOM     29  C   UNL     1       4.076   3.134  11.248  0.00  0.00    +0.000 C 
ATOM     30  F   UNL     1       4.326   1.962  10.595  0.00  0.00    +0.000 F 
ATOM     31  F   UNL     1       3.004   2.886  12.050  0.00  0.00    +0.000 F 
ATOM     32  F   UNL     1       3.637   4.000  10.293  0.00  0.00    +0.000 F 
ENDBRANCH  27  29
ENDBRANCH  21  23
ENDBRANCH   1  19
TORSDOF 7
ENDMDL
MODEL 6
REMARK VINA RESULT:      -8.2      3.054      4.586
REMARK  Name = 
REMARK  10 active torsions:
REMARK  status: ('A' for Active; 'I' for Inactive)
REMARK    1  A    between atoms: C_1  and  C_2
REMARK    2  A    between atoms: C_2  and  C_3
REMARK    3  A    between atoms: C_2  and  C_4
REMARK    4  A    between atoms: C_2  and  C_5
REMARK    5  A    between atoms: C_5  and  N_6
REMARK    6  A    between atoms: C_5  and  C_17
REMARK    7  A    between atoms: C_7  and  C_9
REMARK    8  A    between atoms: C_15  and  O_16
REMARK    9  A    between atoms: N_19  and  C_20
REMARK   10  A    between atoms: C_24  and  C_25
REMARK                            x       y       z     vdW  Elec       q    Type
REMARK                         _______ _______ _______ _____ _____    ______ ____
ROOT
ATOM      1  C   UNL     1       5.728   5.975  17.764  0.00  0.00    +0.000 C 
ENDROOT
BRANCH   1   3
ATOM      2  C   UNL     1       7.030   5.604  19.922  0.00  0.00    +0.000 C 
ATOM      3  C   UNL     1       7.157   5.871  18.405  0.00  0.00    +0.000 C 
ATOM      4  C   UNL     1       8.037   7.119  18.232  0.00  0.00    +0.000 C 
ATOM      5  C   UNL     1       7.907   4.665  17.791  0.00  0.00    +0.000 C 
ENDBRANCH   1   3
BRANCH   1   6
ATOM      6  N   UNL     1       4.688   5.150  18.395  0.00  0.00    +0.000 N 
ATOM      7  C   UNL     1       3.362   5.460  18.539  0.00  0.00    +0.000 C 
ATOM      8  O   UNL     1       2.912   6.582  18.336  0.00  0.00    +0.000 OA
ATOM      9  H   UNL     1       4.970   4.227  18.711  0.00  0.00    +0.000 HD
BRANCH   7  10
ATOM     10  C   UNL     1       2.446   4.359  18.944  0.00  0.00    +0.000 A 
ATOM     11  C   UNL     1       2.483   3.985  20.296  0.00  0.00    +0.000 A 
ATOM     12  C   UNL     1       1.640   2.987  20.765  0.00  0.00    +0.000 A 
ATOM     13 CL   UNL     1       1.662   2.562  22.432  0.00  0.00    +0.000 Cl
ATOM     14  C   UNL     1       0.764   2.332  19.896  0.00  0.00    +0.000 A 
ATOM     15  C   UNL     1       0.727   2.691  18.547  0.00  0.00    +0.000 A 
ATOM     16  C   UNL     1       1.561   3.707  18.073  0.00  0.00    +0.000 A 
BRANCH  16  17
ATOM     17  O   UNL     1       1.497   4.058  16.751  0.00  0.00    +0.000 OA
ATOM     18  H   UNL     1       1.187   3.292  16.233  0.00  0.00    +0.000 HD
ENDBRANCH  16  17
ENDBRANCH   7  10
ENDBRANCH   1   6
BRANCH   1  19
ATOM     19  C   UNL     1       5.685   5.954  16.212  0.00  0.00    +0.000 C 
ATOM     20  O   UNL     1       5.197   6.913  15.610  0.00  0.00    +0.000 OA
ATOM     21  N   UNL     1       6.264   4.851  15.619  0.00  0.00    +0.000 N 
ATOM     22  H   UNL     1       6.488   4.076  16.249  0.00  0.00    +0.000 HD
BRANCH  21  23
ATOM     23  C   UNL     1       6.438   4.612  14.242  0.00  0.00    +0.000 A 
ATOM     24  C   UNL     1       7.604   4.947  13.552  0.00  0.00    +0.000 A 
ATOM     25  C   UNL     1       7.721   4.692  12.185  0.00  0.00    +0.000 A 
ATOM     26  C   UNL     1       6.665   4.106  11.491  0.00  0.00    +0.000 A 
ATOM     27  C   UNL     1       5.484   3.758  12.161  0.00  0.00    +0.000 A 
ATOM     28  C   UNL     1       5.387   4.000  13.544  0.00  0.00    +0.000 A 
BRANCH  27  29
ATOM     29  C   UNL     1       4.326   3.151  11.409  0.00  0.00    +0.000 C 
ATOM     30  F   UNL     1       3.244   2.887  12.197  0.00  0.00    +0.000 F 
ATOM     31  F   UNL     1       3.867   3.955  10.411  0.00  0.00    +0.000 F 
ATOM     32  F   UNL     1       4.649   1.967  10.819  0.00  0.00    +0.000 F 
ENDBRANCH  27  29
ENDBRANCH  21  23
ENDBRANCH   1  19
TORSDOF 7
ENDMDL
MODEL 7
REMARK VINA RESULT:      -8.1      3.160      4.737
REMARK  Name = 
REMARK  10 active torsions:
REMARK  status: ('A' for Active; 'I' for Inactive)
REMARK    1  A    between atoms: C_1  and  C_2
REMARK    2  A    between atoms: C_2  and  C_3
REMARK    3  A    between atoms: C_2  and  C_4
REMARK    4  A    between atoms: C_2  and  C_5
REMARK    5  A    between atoms: C_5  and  N_6
REMARK    6  A    between atoms: C_5  and  C_17
REMARK    7  A    between atoms: C_7  and  C_9
REMARK    8  A    between atoms: C_15  and  O_16
REMARK    9  A    between atoms: N_19  and  C_20
REMARK   10  A    between atoms: C_24  and  C_25
REMARK                            x       y       z     vdW  Elec       q    Type
REMARK                         _______ _______ _______ _____ _____    ______ ____
ROOT
ATOM      1  C   UNL     1       5.638   5.782  17.518  0.00  0.00    +0.000 C 
ENDROOT
BRANCH   1   3
ATOM      2  C   UNL     1       7.798   7.100  17.822  0.00  0.00    +0.000 C 
ATOM      3  C   UNL     1       7.074   5.774  18.153  0.00  0.00    +0.000 C 
ATOM      4  C   UNL     1       7.984   4.628  17.685  0.00  0.00    +0.000 C 
ATOM      5  C   UNL     1       6.952   5.693  19.693  0.00  0.00    +0.000 C 
ENDBRANCH   1   3
BRANCH   1   6
ATOM      6  N   UNL     1       4.657   4.894  18.156  0.00  0.00    +0.000 N 
ATOM      7  C   UNL     1       3.456   5.250  18.707  0.00  0.00    +0.000 C 
ATOM      8  O   UNL     1       3.139   6.414  18.925  0.00  0.00    +0.000 OA
ATOM      9  H   UNL     1       4.866   3.899  18.138  0.00  0.00    +0.000 HD
BRANCH   7  10
ATOM     10  C   UNL     1       2.504   4.153  19.031  0.00  0.00    +0.000 A 
ATOM     11  C   UNL     1       2.316   3.876  20.394  0.00  0.00    +0.000 A 
ATOM     12  C   UNL     1       1.422   2.888  20.785  0.00  0.00    +0.000 A 
ATOM     13 CL   UNL     1       1.166   2.581  22.459  0.00  0.00    +0.000 Cl
ATOM     14  C   UNL     1       0.719   2.148  19.832  0.00  0.00    +0.000 A 
ATOM     15  C   UNL     1       0.908   2.411  18.473  0.00  0.00    +0.000 A 
ATOM     16  C   UNL     1       1.792   3.416  18.074  0.00  0.00    +0.000 A 
BRANCH  16  17
ATOM     17  O   UNL     1       1.949   3.671  16.738  0.00  0.00    +0.000 OA
ATOM     18  H   UNL     1       1.149   3.381  16.262  0.00  0.00    +0.000 HD
ENDBRANCH  16  17
ENDBRANCH   7  10
ENDBRANCH   1   6
BRANCH   1  19
ATOM     19  C   UNL     1       5.592   5.753  15.966  0.00  0.00    +0.000 C 
ATOM     20  O   UNL     1       5.234   6.762  15.355  0.00  0.00    +0.000 OA
ATOM     21  N   UNL     1       6.018   4.577  15.383  0.00  0.00    +0.000 N 
ATOM     22  H   UNL     1       6.138   3.786  16.020  0.00  0.00    +0.000 HD
BRANCH  21  23
ATOM     23  C   UNL     1       6.158   4.305  14.009  0.00  0.00    +0.000 A 
ATOM     24  C   UNL     1       7.368   4.426  13.326  0.00  0.00    +0.000 A 
ATOM     25  C   UNL     1       7.449   4.148  11.961  0.00  0.00    +0.000 A 
ATOM     26  C   UNL     1       6.312   3.753  11.262  0.00  0.00    +0.000 A 
ATOM     27  C   UNL     1       5.083   3.620  11.923  0.00  0.00    +0.000 A 
ATOM     28  C   UNL     1       5.021   3.883  13.305  0.00  0.00    +0.000 A 
BRANCH  27  29
ATOM     29  C   UNL     1       3.842   3.222  11.165  0.00  0.00    +0.000 C 
ATOM     30  F   UNL     1       3.353   4.212  10.363  0.00  0.00    +0.000 F 
ATOM     31  F   UNL     1       4.044   2.152  10.347  0.00  0.00    +0.000 F 
ATOM     32  F   UNL     1       2.814   2.876  11.989  0.00  0.00    +0.000 F 
ENDBRANCH  27  29
ENDBRANCH  21  23
ENDBRANCH   1  19
TORSDOF 7
ENDMDL
MODEL 8
REMARK VINA RESULT:      -8.1      1.291      1.650
REMARK  Name = 
REMARK  10 active torsions:
REMARK  status: ('A' for Active; 'I' for Inactive)
REMARK    1  A    between atoms: C_1  and  C_2
REMARK    2  A    between atoms: C_2  and  C_3
REMARK    3  A    between atoms: C_2  and  C_4
REMARK    4  A    between atoms: C_2  and  C_5
REMARK    5  A    between atoms: C_5  and  N_6
REMARK    6  A    between atoms: C_5  and  C_17
REMARK    7  A    between atoms: C_7  and  C_9
REMARK    8  A    between atoms: C_15  and  O_16
REMARK    9  A    between atoms: N_19  and  C_20
REMARK   10  A    between atoms: C_24  and  C_25
REMARK                            x       y       z     vdW  Elec       q    Type
REMARK                         _______ _______ _______ _____ _____    ______ ____
ROOT
ATOM      1  C   UNL     1       3.298   4.603  19.419  0.00  0.00    +0.000 C 
ENDROOT
BRANCH   1   3
ATOM      2  C   UNL     1       2.690   2.213  18.778  0.00  0.00    +0.000 C 
ATOM      3  C   UNL     1       2.149   3.654  18.927  0.00  0.00    +0.000 C 
ATOM      4  C   UNL     1       1.516   4.046  17.582  0.00  0.00    +0.000 C 
ATOM      5  C   UNL     1       1.028   3.612  19.992  0.00  0.00    +0.000 C 
ENDBRANCH   1   3
BRANCH   1   6
ATOM      6  N   UNL     1       2.879   5.956  19.811  0.00  0.00    +0.000 N 
ATOM      7  C   UNL     1       2.512   6.980  18.980  0.00  0.00    +0.000 C 
ATOM      8  O   UNL     1       2.689   6.954  17.767  0.00  0.00    +0.000 OA
ATOM      9  H   UNL     1       2.802   6.137  20.808  0.00  0.00    +0.000 HD
BRANCH   7  10
ATOM     10  C   UNL     1       1.851   8.159  19.604  0.00  0.00    +0.000 A 
ATOM     11  C   UNL     1       1.729   9.302  18.799  0.00  0.00    +0.000 A 
ATOM     12  C   UNL     1       1.099  10.436  19.292  0.00  0.00    +0.000 A 
ATOM     13 CL   UNL     1       0.917  11.819  18.284  0.00  0.00    +0.000 Cl
ATOM     14  C   UNL     1       0.600  10.460  20.595  0.00  0.00    +0.000 A 
ATOM     15  C   UNL     1       0.725   9.331  21.408  0.00  0.00    +0.000 A 
ATOM     16  C   UNL     1       1.343   8.181  20.911  0.00  0.00    +0.000 A 
BRANCH  16  17
ATOM     17  O   UNL     1       1.439   7.077  21.716  0.00  0.00    +0.000 OA
ATOM     18  H   UNL     1       1.984   7.298  22.494  0.00  0.00    +0.000 HD
ENDBRANCH  16  17
ENDBRANCH   7  10
ENDBRANCH   1   6
BRANCH   1  19
ATOM     19  C   UNL     1       4.601   4.572  18.575  0.00  0.00    +0.000 C 
ATOM     20  O   UNL     1       5.665   4.270  19.121  0.00  0.00    +0.000 OA
ATOM     21  N   UNL     1       4.443   4.844  17.232  0.00  0.00    +0.000 N 
ATOM     22  H   UNL     1       3.531   5.223  16.962  0.00  0.00    +0.000 HD
BRANCH  21  23
ATOM     23  C   UNL     1       5.430   4.805  16.229  0.00  0.00    +0.000 A 
ATOM     24  C   UNL     1       6.709   5.335  16.397  0.00  0.00    +0.000 A 
ATOM     25  C   UNL     1       7.648   5.274  15.367  0.00  0.00    +0.000 A 
ATOM     26  C   UNL     1       7.311   4.686  14.150  0.00  0.00    +0.000 A 
ATOM     27  C   UNL     1       6.033   4.143  13.955  0.00  0.00    +0.000 A 
ATOM     28  C   UNL     1       5.103   4.193  15.010  0.00  0.00    +0.000 A 
BRANCH  27  29
ATOM     29  C   UNL     1       5.653   3.534  12.629  0.00  0.00    +0.000 C 
ATOM     30  F   UNL     1       4.346   3.736  12.292  0.00  0.00    +0.000 F 
ATOM     31  F   UNL     1       6.381   4.031  11.592  0.00  0.00    +0.000 F 
ATOM     32  F   UNL     1       5.835   2.184  12.602  0.00  0.00    +0.000 F 
ENDBRANCH  27  29
ENDBRANCH  21  23
ENDBRANCH   1  19
TORSDOF 7
ENDMDL
MODEL 9
REMARK VINA RESULT:      -8.0      0.946      1.044
REMARK  Name = 
REMARK  10 active torsions:
REMARK  status: ('A' for Active; 'I' for Inactive)
REMARK    1  A    between atoms: C_1  and  C_2
REMARK    2  A    between atoms: C_2  and  C_3
REMARK    3  A    between atoms: C_2  and  C_4
REMARK    4  A    between atoms: C_2  and  C_5
REMARK    5  A    between atoms: C_5  and  N_6
REMARK    6  A    between atoms: C_5  and  C_17
REMARK    7  A    between atoms: C_7  and  C_9
REMARK    8  A    between atoms: C_15  and  O_16
REMARK    9  A    between atoms: N_19  and  C_20
REMARK   10  A    between atoms: C_24  and  C_25
REMARK                            x       y       z     vdW  Elec       q    Type
REMARK                         _______ _______ _______ _____ _____    ______ ____
ROOT
ATOM      1  C   UNL     1       4.425   4.769  19.433  0.00  0.00    +0.000 C 
ENDROOT
BRANCH   1   3
ATOM      2  C   UNL     1       4.233   2.338  20.172  0.00  0.00    +0.000 C 
ATOM      3  C   UNL     1       3.468   3.530  19.554  0.00  0.00    +0.000 C 
ATOM      4  C   UNL     1       2.863   3.047  18.226  0.00  0.00    +0.000 C 
ATOM      5  C   UNL     1       2.306   3.873  20.515  0.00  0.00    +0.000 C 
ENDBRANCH   1   3
BRANCH   1   6
ATOM      6  N   UNL     1       3.776   6.084  19.527  0.00  0.00    +0.000 N 
ATOM      7  C   UNL     1       2.816   6.593  18.694  0.00  0.00    +0.000 C 
ATOM      8  O   UNL     1       2.522   6.080  17.620  0.00  0.00    +0.000 OA
ATOM      9  H   UNL     1       4.027   6.658  20.327  0.00  0.00    +0.000 HD
BRANCH   7  10
ATOM     10  C   UNL     1       2.100   7.816  19.149  0.00  0.00    +0.000 A 
ATOM     11  C   UNL     1       1.633   7.807  20.472  0.00  0.00    +0.000 A 
ATOM     12  C   UNL     1       0.980   8.919  20.986  0.00  0.00    +0.000 A 
ATOM     13 CL   UNL     1       0.446   8.916  22.623  0.00  0.00    +0.000 Cl
ATOM     14  C   UNL     1       0.763  10.045  20.191  0.00  0.00    +0.000 A 
ATOM     15  C   UNL     1       1.215  10.060  18.869  0.00  0.00    +0.000 A 
ATOM     16  C   UNL     1       1.889   8.950  18.352  0.00  0.00    +0.000 A 
BRANCH  16  17
ATOM     17  O   UNL     1       2.342   8.990  17.060  0.00  0.00    +0.000 OA
ATOM     18  H   UNL     1       1.578   9.040  16.456  0.00  0.00    +0.000 HD
ENDBRANCH  16  17
ENDBRANCH   7  10
ENDBRANCH   1   6
BRANCH   1  19
ATOM     19  C   UNL     1       5.498   4.681  18.314  0.00  0.00    +0.000 C 
ATOM     20  O   UNL     1       6.657   4.385  18.613  0.00  0.00    +0.000 OA
ATOM     21  N   UNL     1       5.036   4.896  17.032  0.00  0.00    +0.000 N 
ATOM     22  H   UNL     1       4.088   5.277  16.962  0.00  0.00    +0.000 HD
BRANCH  21  23
ATOM     23  C   UNL     1       5.765   4.797  15.831  0.00  0.00    +0.000 A 
ATOM     24  C   UNL     1       7.047   5.323  15.673  0.00  0.00    +0.000 A 
ATOM     25  C   UNL     1       7.722   5.201  14.458  0.00  0.00    +0.000 A 
ATOM     26  C   UNL     1       7.115   4.557  13.384  0.00  0.00    +0.000 A 
ATOM     27  C   UNL     1       5.828   4.017  13.516  0.00  0.00    +0.000 A 
ATOM     28  C   UNL     1       5.167   4.128  14.754  0.00  0.00    +0.000 A 
BRANCH  27  29
ATOM     29  C   UNL     1       5.153   3.346  12.347  0.00  0.00    +0.000 C 
ATOM     30  F   UNL     1       3.820   3.128  12.540  0.00  0.00    +0.000 F 
ATOM     31  F   UNL     1       5.245   4.071  11.198  0.00  0.00    +0.000 F 
ATOM     32  F   UNL     1       5.688   2.126  12.065  0.00  0.00    +0.000 F 
ENDBRANCH  27  29
ENDBRANCH  21  23
ENDBRANCH   1  19
TORSDOF 7
ENDMDL
