MODEL 1
REMARK VINA RESULT:      -7.5      0.000      0.000
REMARK  Name = 
REMARK  9 active torsions:
REMARK  status: ('A' for Active; 'I' for Inactive)
REMARK    1  A    between atoms: C_1  and  C_2
REMARK    2  A    between atoms: C_5  and  O_6
REMARK    3  A    between atoms: O_6  and  C_7
REMARK    4  A    between atoms: C_9  and  C_10
REMARK    5  A    between atoms: C_13  and  C_14
REMARK    6  A    between atoms: N_15  and  O_16
REMARK    7  A    between atoms: N_17  and  C_18
REMARK    8  A    between atoms: N_17  and  C_19
REMARK    9  A    between atoms: C_25  and  C_26
REMARK                            x       y       z     vdW  Elec       q    Type
REMARK                         _______ _______ _______ _____ _____    ______ ____
ROOT
ATOM      1  C   UNL     1      -1.110  12.381  19.987  0.00  0.00    +0.000 A 
ATOM      2  N   UNL     1      -1.113  13.597  19.354  0.00  0.00    +0.000 NA
ATOM      3  C   UNL     1       0.015  14.328  19.309  0.00  0.00    +0.000 A 
ATOM      4  C   UNL     1      -0.016  15.587  18.492  0.00  0.00    +0.000 C 
ATOM      5  C   UNL     1       1.164  13.922  19.955  0.00  0.00    +0.000 A 
ATOM      6  C   UNL     1       1.143  12.712  20.655  0.00  0.00    +0.000 A 
ATOM      7  C   UNL     1      -0.008  11.902  20.688  0.00  0.00    +0.000 A 
ENDROOT
BRANCH   7   8
ATOM      8  C   UNL     1       0.055  10.611  21.499  0.00  0.00    +0.000 C 
ATOM      9  N   UNL     1       0.244  10.826  22.779  0.00  0.00    +0.000 NA
ATOM     10  N   UNL     1      -0.080   9.368  20.852  0.00  0.00    +0.000 N 
ATOM     11  C   UNL     1      -0.683   8.226  21.553  0.00  0.00    +0.000 C 
BRANCH  10  12
ATOM     12  C   UNL     1       0.922   8.910  19.936  0.00  0.00    +0.000 A 
ATOM     13  C   UNL     1       1.698   7.771  20.201  0.00  0.00    +0.000 A 
ATOM     14  C   UNL     1       2.656   7.320  19.286  0.00  0.00    +0.000 A 
ATOM     15  C   UNL     1       2.854   7.997  18.086  0.00  0.00    +0.000 A 
ATOM     16  C   UNL     1       2.095   9.126  17.799  0.00  0.00    +0.000 A 
ATOM     17  C   UNL     1       1.147   9.582  18.720  0.00  0.00    +0.000 A 
ENDBRANCH  10  12
BRANCH   9  18
ATOM     18  O   UNL     1       0.428   9.673  23.538  0.00  0.00    +0.000 OA
ATOM     19  H   UNL     1       0.434  10.022  24.446  0.00  0.00    +0.000 HD
ENDBRANCH   9  18
ENDBRANCH   7   8
BRANCH   1  20
ATOM     20  O   UNL     1      -2.275  11.629  19.894  0.00  0.00    +0.000 OA
BRANCH  20  25
ATOM     21  C   UNL     1      -3.723  10.162  14.583  0.00  0.00    +0.000 C 
ATOM     22  C   UNL     1      -3.353  10.500  15.995  0.00  0.00    +0.000 A 
ATOM     23  C   UNL     1      -2.119  10.112  16.520  0.00  0.00    +0.000 A 
ATOM     24  C   UNL     1      -1.785  10.440  17.832  0.00  0.00    +0.000 A 
ATOM     25  C   UNL     1      -2.645  11.220  18.622  0.00  0.00    +0.000 A 
ATOM     26  C   UNL     1      -3.902  11.587  18.125  0.00  0.00    +0.000 A 
ATOM     27  C   UNL     1      -4.891  12.381  18.929  0.00  0.00    +0.000 C 
ATOM     28  C   UNL     1      -4.245  11.213  16.812  0.00  0.00    +0.000 A 
ENDBRANCH  20  25
ENDBRANCH   1  20
TORSDOF 5
ENDMDL
MODEL 2
REMARK VINA RESULT:      -7.0      6.419     10.312
REMARK  Name = 
REMARK  9 active torsions:
REMARK  status: ('A' for Active; 'I' for Inactive)
REMARK    1  A    between atoms: C_1  and  C_2
REMARK    2  A    between atoms: C_5  and  O_6
REMARK    3  A    between atoms: O_6  and  C_7
REMARK    4  A    between atoms: C_9  and  C_10
REMARK    5  A    between atoms: C_13  and  C_14
REMARK    6  A    between atoms: N_15  and  O_16
REMARK    7  A    between atoms: N_17  and  C_18
REMARK    8  A    between atoms: N_17  and  C_19
REMARK    9  A    between atoms: C_25  and  C_26
REMARK                            x       y       z     vdW  Elec       q    Type
REMARK                         _______ _______ _______ _____ _____    ______ ____
ROOT
ATOM      1  C   UNL     1       6.465   4.447  16.494  0.00  0.00    +0.000 A 
ATOM      2  N   UNL     1       7.282   4.762  15.439  0.00  0.00    +0.000 NA
ATOM      3  C   UNL     1       6.832   4.610  14.180  0.00  0.00    +0.000 A 
ATOM      4  C   UNL     1       7.723   5.093  13.071  0.00  0.00    +0.000 C 
ATOM      5  C   UNL     1       5.591   4.070  13.918  0.00  0.00    +0.000 A 
ATOM      6  C   UNL     1       4.787   3.689  14.996  0.00  0.00    +0.000 A 
ATOM      7  C   UNL     1       5.210   3.871  16.327  0.00  0.00    +0.000 A 
ENDROOT
BRANCH   7   8
ATOM      8  C   UNL     1       4.276   3.403  17.439  0.00  0.00    +0.000 C 
ATOM      9  N   UNL     1       3.651   2.290  17.138  0.00  0.00    +0.000 NA
ATOM     10  N   UNL     1       4.160   4.156  18.623  0.00  0.00    +0.000 N 
ATOM     11  C   UNL     1       3.868   3.492  19.901  0.00  0.00    +0.000 C 
BRANCH  10  12
ATOM     12  C   UNL     1       3.573   5.462  18.601  0.00  0.00    +0.000 A 
ATOM     13  C   UNL     1       3.689   6.303  17.484  0.00  0.00    +0.000 A 
ATOM     14  C   UNL     1       3.089   7.568  17.465  0.00  0.00    +0.000 A 
ATOM     15  C   UNL     1       2.357   8.013  18.562  0.00  0.00    +0.000 A 
ATOM     16  C   UNL     1       2.223   7.196  19.679  0.00  0.00    +0.000 A 
ATOM     17  C   UNL     1       2.835   5.939  19.700  0.00  0.00    +0.000 A 
ENDBRANCH  10  12
BRANCH   9  18
ATOM     18  O   UNL     1       2.699   1.890  18.074  0.00  0.00    +0.000 OA
ATOM     19  H   UNL     1       3.239   1.752  18.871  0.00  0.00    +0.000 HD
ENDBRANCH   9  18
ENDBRANCH   7   8
BRANCH   1  20
ATOM     20  O   UNL     1       6.951   4.737  17.764  0.00  0.00    +0.000 OA
BRANCH  20  25
ATOM     21  C   UNL     1       8.904  10.032  18.546  0.00  0.00    +0.000 C 
ATOM     22  C   UNL     1       8.344   8.655  18.357  0.00  0.00    +0.000 A 
ATOM     23  C   UNL     1       7.561   8.353  17.242  0.00  0.00    +0.000 A 
ATOM     24  C   UNL     1       7.053   7.066  17.074  0.00  0.00    +0.000 A 
ATOM     25  C   UNL     1       7.375   6.040  17.978  0.00  0.00    +0.000 A 
ATOM     26  C   UNL     1       8.130   6.334  19.121  0.00  0.00    +0.000 A 
ATOM     27  C   UNL     1       8.473   5.299  20.152  0.00  0.00    +0.000 C 
ATOM     28  C   UNL     1       8.601   7.648  19.301  0.00  0.00    +0.000 A 
ENDBRANCH  20  25
ENDBRANCH   1  20
TORSDOF 5
ENDMDL
MODEL 3
REMARK VINA RESULT:      -7.0      2.528      5.586
REMARK  Name = 
REMARK  9 active torsions:
REMARK  status: ('A' for Active; 'I' for Inactive)
REMARK    1  A    between atoms: C_1  and  C_2
REMARK    2  A    between atoms: C_5  and  O_6
REMARK    3  A    between atoms: O_6  and  C_7
REMARK    4  A    between atoms: C_9  and  C_10
REMARK    5  A    between atoms: C_13  and  C_14
REMARK    6  A    between atoms: N_15  and  O_16
REMARK    7  A    between atoms: N_17  and  C_18
REMARK    8  A    between atoms: N_17  and  C_19
REMARK    9  A    between atoms: C_25  and  C_26
REMARK                            x       y       z     vdW  Elec       q    Type
REMARK                         _______ _______ _______ _____ _____    ______ ____
ROOT
ATOM      1  C   UNL     1      -2.018  13.355  20.554  0.00  0.00    +0.000 A 
ATOM      2  N   UNL     1      -1.131  14.008  19.737  0.00  0.00    +0.000 NA
ATOM      3  C   UNL     1      -0.949  15.334  19.878  0.00  0.00    +0.000 A 
ATOM      4  C   UNL     1       0.127  15.969  19.046  0.00  0.00    +0.000 C 
ATOM      5  C   UNL     1      -1.691  16.073  20.775  0.00  0.00    +0.000 A 
ATOM      6  C   UNL     1      -2.641  15.412  21.560  0.00  0.00    +0.000 A 
ATOM      7  C   UNL     1      -2.830  14.020  21.467  0.00  0.00    +0.000 A 
ENDROOT
BRANCH   7   8
ATOM      8  C   UNL     1      -3.907  13.390  22.345  0.00  0.00    +0.000 C 
ATOM      9  N   UNL     1      -3.408  12.611  23.276  0.00  0.00    +0.000 NA
ATOM     10  N   UNL     1      -5.265  13.669  22.101  0.00  0.00    +0.000 N 
ATOM     11  C   UNL     1      -6.232  13.682  23.207  0.00  0.00    +0.000 C 
BRANCH  10  12
ATOM     12  C   UNL     1      -5.897  13.214  20.899  0.00  0.00    +0.000 A 
ATOM     13  C   UNL     1      -6.390  11.906  20.774  0.00  0.00    +0.000 A 
ATOM     14  C   UNL     1      -7.028  11.483  19.603  0.00  0.00    +0.000 A 
ATOM     15  C   UNL     1      -7.192  12.361  18.536  0.00  0.00    +0.000 A 
ATOM     16  C   UNL     1      -6.717  13.664  18.637  0.00  0.00    +0.000 A 
ATOM     17  C   UNL     1      -6.068  14.081  19.803  0.00  0.00    +0.000 A 
ENDBRANCH  10  12
BRANCH   9  18
ATOM     18  O   UNL     1      -4.360  11.922  24.024  0.00  0.00    +0.000 OA
ATOM     19  H   UNL     1      -4.289  11.019  23.668  0.00  0.00    +0.000 HD
ENDBRANCH   9  18
ENDBRANCH   7   8
BRANCH   1  20
ATOM     20  O   UNL     1      -2.072  11.971  20.431  0.00  0.00    +0.000 OA
BRANCH  20  25
ATOM     21  C   UNL     1      -3.048   9.730  15.285  0.00  0.00    +0.000 C 
ATOM     22  C   UNL     1      -2.778  10.363  16.616  0.00  0.00    +0.000 A 
ATOM     23  C   UNL     1      -3.702  11.238  17.188  0.00  0.00    +0.000 A 
ATOM     24  C   UNL     1      -3.442  11.814  18.430  0.00  0.00    +0.000 A 
ATOM     25  C   UNL     1      -2.288  11.474  19.155  0.00  0.00    +0.000 A 
ATOM     26  C   UNL     1      -1.332  10.627  18.580  0.00  0.00    +0.000 A 
ATOM     27  C   UNL     1      -0.055  10.257  19.277  0.00  0.00    +0.000 C 
ATOM     28  C   UNL     1      -1.587  10.085  17.306  0.00  0.00    +0.000 A 
ENDBRANCH  20  25
ENDBRANCH   1  20
TORSDOF 5
ENDMDL
MODEL 4
REMARK VINA RESULT:      -6.9      2.131      3.936
REMARK  Name = 
REMARK  9 active torsions:
REMARK  status: ('A' for Active; 'I' for Inactive)
REMARK    1  A    between atoms: C_1  and  C_2
REMARK    2  A    between atoms: C_5  and  O_6
REMARK    3  A    between atoms: O_6  and  C_7
REMARK    4  A    between atoms: C_9  and  C_10
REMARK    5  A    between atoms: C_13  and  C_14
REMARK    6  A    between atoms: N_15  and  O_16
REMARK    7  A    between atoms: N_17  and  C_18
REMARK    8  A    between atoms: N_17  and  C_19
REMARK    9  A    between atoms: C_25  and  C_26
REMARK                            x       y       z     vdW  Elec       q    Type
REMARK                         _______ _______ _______ _____ _____    ______ ____
ROOT
ATOM      1  C   UNL     1      -2.940  12.656  20.070  0.00  0.00    +0.000 A 
ATOM      2  N   UNL     1      -4.206  13.003  20.464  0.00  0.00    +0.000 NA
ATOM      3  C   UNL     1      -4.473  14.279  20.799  0.00  0.00    +0.000 A 
ATOM      4  C   UNL     1      -5.904  14.624  21.096  0.00  0.00    +0.000 C 
ATOM      5  C   UNL     1      -3.483  15.238  20.831  0.00  0.00    +0.000 A 
ATOM      6  C   UNL     1      -2.179  14.864  20.492  0.00  0.00    +0.000 A 
ATOM      7  C   UNL     1      -1.873  13.547  20.098  0.00  0.00    +0.000 A 
ENDROOT
BRANCH   7   8
ATOM      8  C   UNL     1      -0.418  13.225  19.770  0.00  0.00    +0.000 C 
ATOM      9  N   UNL     1      -0.145  13.362  18.494  0.00  0.00    +0.000 NA
ATOM     10  N   UNL     1       0.462  12.826  20.794  0.00  0.00    +0.000 N 
ATOM     11  C   UNL     1       1.893  13.149  20.713  0.00  0.00    +0.000 C 
BRANCH  10  12
ATOM     12  C   UNL     1       0.277  11.575  21.467  0.00  0.00    +0.000 A 
ATOM     13  C   UNL     1      -0.633  11.437  22.527  0.00  0.00    +0.000 A 
ATOM     14  C   UNL     1      -0.823  10.202  23.159  0.00  0.00    +0.000 A 
ATOM     15  C   UNL     1      -0.112   9.082  22.740  0.00  0.00    +0.000 A 
ATOM     16  C   UNL     1       0.792   9.193  21.689  0.00  0.00    +0.000 A 
ATOM     17  C   UNL     1       0.990  10.430  21.068  0.00  0.00    +0.000 A 
ENDBRANCH  10  12
BRANCH   9  18
ATOM     18  O   UNL     1       1.139  12.964  18.131  0.00  0.00    +0.000 OA
ATOM     19  H   UNL     1       1.226  12.107  18.584  0.00  0.00    +0.000 HD
ENDBRANCH   9  18
ENDBRANCH   7   8
BRANCH   1  20
ATOM     20  O   UNL     1      -2.764  11.349  19.629  0.00  0.00    +0.000 OA
BRANCH  20  25
ATOM     21  C   UNL     1      -3.823  10.178  14.155  0.00  0.00    +0.000 C 
ATOM     22  C   UNL     1      -3.532  10.534  15.581  0.00  0.00    +0.000 A 
ATOM     23  C   UNL     1      -4.447  11.274  16.331  0.00  0.00    +0.000 A 
ATOM     24  C   UNL     1      -4.167  11.591  17.659  0.00  0.00    +0.000 A 
ATOM     25  C   UNL     1      -3.001  11.117  18.283  0.00  0.00    +0.000 A 
ATOM     26  C   UNL     1      -2.055  10.405  17.535  0.00  0.00    +0.000 A 
ATOM     27  C   UNL     1      -0.766   9.907  18.124  0.00  0.00    +0.000 C 
ATOM     28  C   UNL     1      -2.330  10.128  16.183  0.00  0.00    +0.000 A 
ENDBRANCH  20  25
ENDBRANCH   1  20
TORSDOF 5
ENDMDL
MODEL 5
REMARK VINA RESULT:      -6.9      3.358      6.811
REMARK  Name = 
REMARK  9 active torsions:
REMARK  status: ('A' for Active; 'I' for Inactive)
REMARK    1  A    between atoms: C_1  and  C_2
REMARK    2  A    between atoms: C_5  and  O_6
REMARK    3  A    between atoms: O_6  and  C_7
REMARK    4  A    between atoms: C_9  and  C_10
REMARK    5  A    between atoms: C_13  and  C_14
REMARK    6  A    between atoms: N_15  and  O_16
REMARK    7  A    between atoms: N_17  and  C_18
REMARK    8  A    between atoms: N_17  and  C_19
REMARK    9  A    between atoms: C_25  and  C_26
REMARK                            x       y       z     vdW  Elec       q    Type
REMARK                         _______ _______ _______ _____ _____    ______ ____
ROOT
ATOM      1  C   UNL     1      -5.753  11.680  19.054  0.00  0.00    +0.000 A 
ATOM      2  N   UNL     1      -6.074  10.347  19.075  0.00  0.00    +0.000 NA
ATOM      3  C   UNL     1      -7.033   9.907  19.910  0.00  0.00    +0.000 A 
ATOM      4  C   UNL     1      -7.430   8.463  19.795  0.00  0.00    +0.000 C 
ATOM      5  C   UNL     1      -7.652  10.751  20.808  0.00  0.00    +0.000 A 
ATOM      6  C   UNL     1      -7.274  12.097  20.828  0.00  0.00    +0.000 A 
ATOM      7  C   UNL     1      -6.303  12.600  19.940  0.00  0.00    +0.000 A 
ENDROOT
BRANCH   7   8
ATOM      8  C   UNL     1      -5.937  14.077  20.052  0.00  0.00    +0.000 C 
ATOM      9  N   UNL     1      -6.184  14.744  18.950  0.00  0.00    +0.000 NA
ATOM     10  N   UNL     1      -5.392  14.577  21.250  0.00  0.00    +0.000 N 
ATOM     11  C   UNL     1      -5.644  15.966  21.660  0.00  0.00    +0.000 C 
BRANCH  10  12
ATOM     12  C   UNL     1      -4.093  14.163  21.688  0.00  0.00    +0.000 A 
ATOM     13  C   UNL     1      -3.921  13.068  22.550  0.00  0.00    +0.000 A 
ATOM     14  C   UNL     1      -2.644  12.657  22.950  0.00  0.00    +0.000 A 
ATOM     15  C   UNL     1      -1.515  13.330  22.492  0.00  0.00    +0.000 A 
ATOM     16  C   UNL     1      -1.659  14.414  21.634  0.00  0.00    +0.000 A 
ATOM     17  C   UNL     1      -2.936  14.831  21.246  0.00  0.00    +0.000 A 
ENDBRANCH  10  12
BRANCH   9  18
ATOM     18  O   UNL     1      -5.755  16.069  18.967  0.00  0.00    +0.000 OA
ATOM     19  H   UNL     1      -6.479  16.527  18.507  0.00  0.00    +0.000 HD
ENDBRANCH   9  18
ENDBRANCH   7   8
BRANCH   1  20
ATOM     20  O   UNL     1      -4.838  12.083  18.088  0.00  0.00    +0.000 OA
BRANCH  20  25
ATOM     21  C   UNL     1       0.430   9.921  18.253  0.00  0.00    +0.000 C 
ATOM     22  C   UNL     1      -0.971  10.453  18.241  0.00  0.00    +0.000 A 
ATOM     23  C   UNL     1      -1.457  11.200  19.314  0.00  0.00    +0.000 A 
ATOM     24  C   UNL     1      -2.760  11.695  19.287  0.00  0.00    +0.000 A 
ATOM     25  C   UNL     1      -3.577  11.512  18.159  0.00  0.00    +0.000 A 
ATOM     26  C   UNL     1      -3.118  10.733  17.089  0.00  0.00    +0.000 A 
ATOM     27  C   UNL     1      -3.953  10.457  15.872  0.00  0.00    +0.000 C 
ATOM     28  C   UNL     1      -1.815  10.203  17.148  0.00  0.00    +0.000 A 
ENDBRANCH  20  25
ENDBRANCH   1  20
TORSDOF 5
ENDMDL
MODEL 6
REMARK VINA RESULT:      -6.8      1.806      6.138
REMARK  Name = 
REMARK  9 active torsions:
REMARK  status: ('A' for Active; 'I' for Inactive)
REMARK    1  A    between atoms: C_1  and  C_2
REMARK    2  A    between atoms: C_5  and  O_6
REMARK    3  A    between atoms: O_6  and  C_7
REMARK    4  A    between atoms: C_9  and  C_10
REMARK    5  A    between atoms: C_13  and  C_14
REMARK    6  A    between atoms: N_15  and  O_16
REMARK    7  A    between atoms: N_17  and  C_18
REMARK    8  A    between atoms: N_17  and  C_19
REMARK    9  A    between atoms: C_25  and  C_26
REMARK                            x       y       z     vdW  Elec       q    Type
REMARK                         _______ _______ _______ _____ _____    ______ ____
ROOT
ATOM      1  C   UNL     1      -0.636  11.266  19.007  0.00  0.00    +0.000 A 
ATOM      2  N   UNL     1      -1.121  10.499  17.979  0.00  0.00    +0.000 NA
ATOM      3  C   UNL     1      -2.408  10.622  17.607  0.00  0.00    +0.000 A 
ATOM      4  C   UNL     1      -2.847   9.854  16.394  0.00  0.00    +0.000 C 
ATOM      5  C   UNL     1      -3.280  11.445  18.288  0.00  0.00    +0.000 A 
ATOM      6  C   UNL     1      -2.796  12.175  19.378  0.00  0.00    +0.000 A 
ATOM      7  C   UNL     1      -1.445  12.102  19.768  0.00  0.00    +0.000 A 
ENDROOT
BRANCH   7   8
ATOM      8  C   UNL     1      -1.013  12.915  20.985  0.00  0.00    +0.000 C 
ATOM      9  N   UNL     1      -1.496  12.439  22.108  0.00  0.00    +0.000 NA
ATOM     10  N   UNL     1      -0.189  14.044  20.819  0.00  0.00    +0.000 N 
ATOM     11  C   UNL     1       0.763  14.432  21.870  0.00  0.00    +0.000 C 
BRANCH  10  12
ATOM     12  C   UNL     1      -0.675  15.208  20.141  0.00  0.00    +0.000 A 
ATOM     13  C   UNL     1      -1.740  15.967  20.652  0.00  0.00    +0.000 A 
ATOM     14  C   UNL     1      -2.189  17.118  19.993  0.00  0.00    +0.000 A 
ATOM     15  C   UNL     1      -1.579  17.534  18.813  0.00  0.00    +0.000 A 
ATOM     16  C   UNL     1      -0.519  16.801  18.290  0.00  0.00    +0.000 A 
ATOM     17  C   UNL     1      -0.081  15.646  18.943  0.00  0.00    +0.000 A 
ENDBRANCH  10  12
BRANCH   9  18
ATOM     18  O   UNL     1      -1.225  13.219  23.230  0.00  0.00    +0.000 OA
ATOM     19  H   UNL     1      -1.084  12.548  23.919  0.00  0.00    +0.000 HD
ENDBRANCH   9  18
ENDBRANCH   7   8
BRANCH   1  20
ATOM     20  O   UNL     1       0.728  11.172  19.260  0.00  0.00    +0.000 OA
BRANCH  20  25
ATOM     21  C   UNL     1       2.831   5.907  18.699  0.00  0.00    +0.000 C 
ATOM     22  C   UNL     1       2.325   7.310  18.852  0.00  0.00    +0.000 A 
ATOM     23  C   UNL     1       2.388   8.208  17.786  0.00  0.00    +0.000 A 
ATOM     24  C   UNL     1       1.907   9.508  17.939  0.00  0.00    +0.000 A 
ATOM     25  C   UNL     1       1.292   9.912  19.136  0.00  0.00    +0.000 A 
ATOM     26  C   UNL     1       1.254   9.035  20.227  0.00  0.00    +0.000 A 
ATOM     27  C   UNL     1       0.655   9.415  21.551  0.00  0.00    +0.000 C 
ATOM     28  C   UNL     1       1.782   7.739  20.073  0.00  0.00    +0.000 A 
ENDBRANCH  20  25
ENDBRANCH   1  20
TORSDOF 5
ENDMDL
MODEL 7
REMARK VINA RESULT:      -6.7      2.716      4.468
REMARK  Name = 
REMARK  9 active torsions:
REMARK  status: ('A' for Active; 'I' for Inactive)
REMARK    1  A    between atoms: C_1  and  C_2
REMARK    2  A    between atoms: C_5  and  O_6
REMARK    3  A    between atoms: O_6  and  C_7
REMARK    4  A    between atoms: C_9  and  C_10
REMARK    5  A    between atoms: C_13  and  C_14
REMARK    6  A    between atoms: N_15  and  O_16
REMARK    7  A    between atoms: N_17  and  C_18
REMARK    8  A    between atoms: N_17  and  C_19
REMARK    9  A    between atoms: C_25  and  C_26
REMARK                            x       y       z     vdW  Elec       q    Type
REMARK                         _______ _______ _______ _____ _____    ______ ____
ROOT
ATOM      1  C   UNL     1       0.470   9.527  19.654  0.00  0.00    +0.000 A 
ATOM      2  N   UNL     1      -0.314   9.989  20.681  0.00  0.00    +0.000 NA
ATOM      3  C   UNL     1      -0.037   9.624  21.946  0.00  0.00    +0.000 A 
ATOM      4  C   UNL     1      -0.849  10.264  23.036  0.00  0.00    +0.000 C 
ATOM      5  C   UNL     1       0.972   8.731  22.235  0.00  0.00    +0.000 A 
ATOM      6  C   UNL     1       1.726   8.211  21.178  0.00  0.00    +0.000 A 
ATOM      7  C   UNL     1       1.490   8.603  19.846  0.00  0.00    +0.000 A 
ENDROOT
BRANCH   7   8
ATOM      8  C   UNL     1       2.347   7.964  18.757  0.00  0.00    +0.000 C 
ATOM      9  N   UNL     1       2.368   8.671  17.652  0.00  0.00    +0.000 NA
ATOM     10  N   UNL     1       3.003   6.743  19.003  0.00  0.00    +0.000 N 
ATOM     11  C   UNL     1       4.282   6.439  18.348  0.00  0.00    +0.000 C 
BRANCH  10  12
ATOM     12  C   UNL     1       2.251   5.539  19.198  0.00  0.00    +0.000 A 
ATOM     13  C   UNL     1       1.843   4.742  18.117  0.00  0.00    +0.000 A 
ATOM     14  C   UNL     1       1.131   3.555  18.322  0.00  0.00    +0.000 A 
ATOM     15  C   UNL     1       0.818   3.139  19.613  0.00  0.00    +0.000 A 
ATOM     16  C   UNL     1       1.214   3.909  20.701  0.00  0.00    +0.000 A 
ATOM     17  C   UNL     1       1.914   5.101  20.492  0.00  0.00    +0.000 A 
ENDBRANCH  10  12
BRANCH   9  18
ATOM     18  O   UNL     1       3.041   8.066  16.592  0.00  0.00    +0.000 OA
ATOM     19  H   UNL     1       3.797   7.649  17.038  0.00  0.00    +0.000 HD
ENDBRANCH   9  18
ENDBRANCH   7   8
BRANCH   1  20
ATOM     20  O   UNL     1       0.198  10.035  18.389  0.00  0.00    +0.000 OA
BRANCH  20  25
ATOM     21  C   UNL     1      -5.131  11.631  17.162  0.00  0.00    +0.000 C 
ATOM     22  C   UNL     1      -3.746  11.195  17.531  0.00  0.00    +0.000 A 
ATOM     23  C   UNL     1      -3.386   9.848  17.479  0.00  0.00    +0.000 A 
ATOM     24  C   UNL     1      -2.092   9.457  17.817  0.00  0.00    +0.000 A 
ATOM     25  C   UNL     1      -1.114  10.410  18.145  0.00  0.00    +0.000 A 
ATOM     26  C   UNL     1      -1.467  11.763  18.238  0.00  0.00    +0.000 A 
ATOM     27  C   UNL     1      -0.486  12.830  18.629  0.00  0.00    +0.000 C 
ATOM     28  C   UNL     1      -2.789  12.139  17.936  0.00  0.00    +0.000 A 
ENDBRANCH  20  25
ENDBRANCH   1  20
TORSDOF 5
ENDMDL
MODEL 8
REMARK VINA RESULT:      -6.7      1.823      6.085
REMARK  Name = 
REMARK  9 active torsions:
REMARK  status: ('A' for Active; 'I' for Inactive)
REMARK    1  A    between atoms: C_1  and  C_2
REMARK    2  A    between atoms: C_5  and  O_6
REMARK    3  A    between atoms: O_6  and  C_7
REMARK    4  A    between atoms: C_9  and  C_10
REMARK    5  A    between atoms: C_13  and  C_14
REMARK    6  A    between atoms: N_15  and  O_16
REMARK    7  A    between atoms: N_17  and  C_18
REMARK    8  A    between atoms: N_17  and  C_19
REMARK    9  A    between atoms: C_25  and  C_26
REMARK                            x       y       z     vdW  Elec       q    Type
REMARK                         _______ _______ _______ _____ _____    ______ ____
ROOT
ATOM      1  C   UNL     1      -1.100  11.341  18.938  0.00  0.00    +0.000 A 
ATOM      2  N   UNL     1      -1.379  10.604  17.815  0.00  0.00    +0.000 NA
ATOM      3  C   UNL     1      -2.617  10.636  17.288  0.00  0.00    +0.000 A 
ATOM      4  C   UNL     1      -2.826   9.915  15.988  0.00  0.00    +0.000 C 
ATOM      5  C   UNL     1      -3.641  11.333  17.893  0.00  0.00    +0.000 A 
ATOM      6  C   UNL     1      -3.367  12.029  19.075  0.00  0.00    +0.000 A 
ATOM      7  C   UNL     1      -2.074  12.050  19.632  0.00  0.00    +0.000 A 
ENDROOT
BRANCH   7   8
ATOM      8  C   UNL     1      -1.876  12.816  20.937  0.00  0.00    +0.000 C 
ATOM      9  N   UNL     1      -2.703  12.430  21.879  0.00  0.00    +0.000 NA
ATOM     10  N   UNL     1      -0.890  13.817  21.021  0.00  0.00    +0.000 N 
ATOM     11  C   UNL     1      -0.211  14.087  22.296  0.00  0.00    +0.000 C 
BRANCH  10  12
ATOM     12  C   UNL     1      -1.011  15.026  20.263  0.00  0.00    +0.000 A 
ATOM     13  C   UNL     1      -0.170  15.299  19.173  0.00  0.00    +0.000 A 
ATOM     14  C   UNL     1      -0.317  16.473  18.424  0.00  0.00    +0.000 A 
ATOM     15  C   UNL     1      -1.310  17.392  18.747  0.00  0.00    +0.000 A 
ATOM     16  C   UNL     1      -2.159  17.142  19.820  0.00  0.00    +0.000 A 
ATOM     17  C   UNL     1      -2.002  15.975  20.574  0.00  0.00    +0.000 A 
ENDBRANCH  10  12
BRANCH   9  18
ATOM     18  O   UNL     1      -2.638  13.185  23.049  0.00  0.00    +0.000 OA
ATOM     19  H   UNL     1      -2.065  13.925  22.786  0.00  0.00    +0.000 HD
ENDBRANCH   9  18
ENDBRANCH   7   8
BRANCH   1  20
ATOM     20  O   UNL     1       0.224  11.352  19.360  0.00  0.00    +0.000 OA
BRANCH  20  25
ATOM     21  C   UNL     1       2.875   6.339  18.802  0.00  0.00    +0.000 C 
ATOM     22  C   UNL     1       2.223   7.680  18.954  0.00  0.00    +0.000 A 
ATOM     23  C   UNL     1       2.188   8.579  17.887  0.00  0.00    +0.000 A 
ATOM     24  C   UNL     1       1.572   9.820  18.039  0.00  0.00    +0.000 A 
ATOM     25  C   UNL     1       0.919  10.158  19.236  0.00  0.00    +0.000 A 
ATOM     26  C   UNL     1       0.976   9.284  20.329  0.00  0.00    +0.000 A 
ATOM     27  C   UNL     1       0.342   9.601  21.653  0.00  0.00    +0.000 C 
ATOM     28  C   UNL     1       1.639   8.052  20.176  0.00  0.00    +0.000 A 
ENDBRANCH  20  25
ENDBRANCH   1  20
TORSDOF 5
ENDMDL
MODEL 9
REMARK VINA RESULT:      -6.6      7.493     10.108
REMARK  Name = 
REMARK  9 active torsions:
REMARK  status: ('A' for Active; 'I' for Inactive)
REMARK    1  A    between atoms: C_1  and  C_2
REMARK    2  A    between atoms: C_5  and  O_6
REMARK    3  A    between atoms: O_6  and  C_7
REMARK    4  A    between atoms: C_9  and  C_10
REMARK    5  A    between atoms: C_13  and  C_14
REMARK    6  A    between atoms: N_15  and  O_16
REMARK    7  A    between atoms: N_17  and  C_18
REMARK    8  A    between atoms: N_17  and  C_19
REMARK    9  A    between atoms: C_25  and  C_26
REMARK                            x       y       z     vdW  Elec       q    Type
REMARK                         _______ _______ _______ _____ _____    ______ ____
ROOT
ATOM      1  C   UNL     1       5.547  15.067  18.441  0.00  0.00    +0.000 A 
ATOM      2  N   UNL     1       4.630  14.145  18.007  0.00  0.00    +0.000 NA
ATOM      3  C   UNL     1       3.524  13.911  18.738  0.00  0.00    +0.000 A 
ATOM      4  C   UNL     1       2.497  12.988  18.148  0.00  0.00    +0.000 C 
ATOM      5  C   UNL     1       3.324  14.520  19.958  0.00  0.00    +0.000 A 
ATOM      6  C   UNL     1       4.294  15.410  20.427  0.00  0.00    +0.000 A 
ATOM      7  C   UNL     1       5.443  15.709  19.670  0.00  0.00    +0.000 A 
ENDROOT
BRANCH   7   8
ATOM      8  C   UNL     1       6.460  16.673  20.274  0.00  0.00    +0.000 C 
ATOM      9  N   UNL     1       6.590  17.775  19.574  0.00  0.00    +0.000 NA
ATOM     10  N   UNL     1       7.141  16.328  21.457  0.00  0.00    +0.000 N 
ATOM     11  C   UNL     1       7.562  17.368  22.405  0.00  0.00    +0.000 C 
BRANCH  10  12
ATOM     12  C   UNL     1       8.077  15.243  21.468  0.00  0.00    +0.000 A 
ATOM     13  C   UNL     1       7.654  13.905  21.449  0.00  0.00    +0.000 A 
ATOM     14  C   UNL     1       8.580  12.855  21.434  0.00  0.00    +0.000 A 
ATOM     15  C   UNL     1       9.945  13.123  21.432  0.00  0.00    +0.000 A 
ATOM     16  C   UNL     1      10.389  14.441  21.447  0.00  0.00    +0.000 A 
ATOM     17  C   UNL     1       9.463  15.487  21.475  0.00  0.00    +0.000 A 
ENDBRANCH  10  12
BRANCH   9  18
ATOM     18  O   UNL     1       7.593  18.631  20.023  0.00  0.00    +0.000 OA
ATOM     19  H   UNL     1       8.394  18.223  19.651  0.00  0.00    +0.000 HD
ENDBRANCH   9  18
ENDBRANCH   7   8
BRANCH   1  20
ATOM     20  O   UNL     1       6.605  15.342  17.582  0.00  0.00    +0.000 OA
BRANCH  20  25
ATOM     21  C   UNL     1      11.015  11.761  18.019  0.00  0.00    +0.000 C 
ATOM     22  C   UNL     1       9.855  12.695  17.854  0.00  0.00    +0.000 A 
ATOM     23  C   UNL     1       8.564  12.200  17.667  0.00  0.00    +0.000 A 
ATOM     24  C   UNL     1       7.493  13.080  17.522  0.00  0.00    +0.000 A 
ATOM     25  C   UNL     1       7.680  14.467  17.631  0.00  0.00    +0.000 A 
ATOM     26  C   UNL     1       8.974  14.983  17.781  0.00  0.00    +0.000 A 
ATOM     27  C   UNL     1       9.255  16.456  17.858  0.00  0.00    +0.000 C 
ATOM     28  C   UNL     1      10.053  14.085  17.883  0.00  0.00    +0.000 A 
ENDBRANCH  20  25
ENDBRANCH   1  20
TORSDOF 5
ENDMDL
