MODEL 1
REMARK VINA RESULT:      -7.8      0.000      0.000
REMARK  Name = 
REMARK  4 active torsions:
REMARK  status: ('A' for Active; 'I' for Inactive)
REMARK    1  A    between atoms: C_3  and  S_4
REMARK    2  A    between atoms: S_4  and  N_7
REMARK    3  A    between atoms: N_16  and  C_17
REMARK    4  A    between atoms: C_17  and  C_18
REMARK                            x       y       z     vdW  Elec       q    Type
REMARK                         _______ _______ _______ _____ _____    ______ ____
ROOT
ATOM      1  O   UNL     1       2.877   4.339  17.303  0.00  0.00    +0.000 OA
ATOM      2  C   UNL     1       3.825   4.742  17.969  0.00  0.00    +0.000 A 
ATOM      3  C   UNL     1       4.598   3.829  18.852  0.00  0.00    +0.000 A 
ATOM      4  C   UNL     1       5.851   4.197  19.185  0.00  0.00    +0.000 A 
ATOM      5  C   UNL     1       6.379   5.480  18.791  0.00  0.00    +0.000 A 
ATOM      6  C   UNL     1       5.559   6.405  18.276  0.00  0.00    +0.000 A 
ATOM      7  N   UNL     1       4.243   6.092  17.969  0.00  0.00    +0.000 N 
ENDROOT
BRANCH   3   8
ATOM      8  S   UNL     1       4.028   2.243  19.284  0.00  0.00    +0.000 S 
ATOM      9  O   UNL     1       3.697   1.538  18.065  0.00  0.00    +0.000 OA
ATOM     10  O   UNL     1       5.025   1.651  20.166  0.00  0.00    +0.000 OA
BRANCH   8  11
ATOM     11  N   UNL     1       2.612   2.268  20.221  0.00  0.00    +0.000 NA
ATOM     12  C   UNL     1       1.272   2.285  19.583  0.00  0.00    +0.000 C 
ATOM     13  C   UNL     1       0.738   3.722  19.471  0.00  0.00    +0.000 C 
ATOM     14  O   UNL     1       0.845   4.478  20.689  0.00  0.00    +0.000 OA
ATOM     15  C   UNL     1       2.158   4.427  21.272  0.00  0.00    +0.000 C 
ATOM     16  C   UNL     1       2.574   2.982  21.519  0.00  0.00    +0.000 C 
ENDBRANCH   8  11
ENDBRANCH   3   8
BRANCH   7  17
ATOM     17  C   UNL     1       3.407   7.103  17.303  0.00  0.00    +0.000 C 
BRANCH  17  18
ATOM     18  C   UNL     1       2.442   7.885  18.185  0.00  0.00    +0.000 A 
ATOM     19  C   UNL     1       2.250   7.469  19.518  0.00  0.00    +0.000 A 
ATOM     20  C   UNL     1       1.494   8.235  20.409  0.00  0.00    +0.000 A 
ATOM     21  F   UNL     1       1.350   7.823  21.677  0.00  0.00    +0.000 F 
ATOM     22  C   UNL     1       0.912   9.428  20.013  0.00  0.00    +0.000 A 
ATOM     23  C   UNL     1       1.091   9.843  18.700  0.00  0.00    +0.000 A 
ATOM     24  F   UNL     1       0.546  11.003  18.303  0.00  0.00    +0.000 F 
ATOM     25  C   UNL     1       1.846   9.094  17.789  0.00  0.00    +0.000 A 
ENDBRANCH  17  18
ENDBRANCH   7  17
TORSDOF 4
ENDMDL
MODEL 2
REMARK VINA RESULT:      -7.8      0.188      1.648
REMARK  Name = 
REMARK  4 active torsions:
REMARK  status: ('A' for Active; 'I' for Inactive)
REMARK    1  A    between atoms: C_3  and  S_4
REMARK    2  A    between atoms: S_4  and  N_7
REMARK    3  A    between atoms: N_16  and  C_17
REMARK    4  A    between atoms: C_17  and  C_18
REMARK                            x       y       z     vdW  Elec       q    Type
REMARK                         _______ _______ _______ _____ _____    ______ ____
ROOT
ATOM      1  O   UNL     1       2.679   4.383  17.415  0.00  0.00    +0.000 OA
ATOM      2  C   UNL     1       3.690   4.782  17.985  0.00  0.00    +0.000 A 
ATOM      3  C   UNL     1       4.544   3.865  18.785  0.00  0.00    +0.000 A 
ATOM      4  C   UNL     1       5.824   4.229  18.994  0.00  0.00    +0.000 A 
ATOM      5  C   UNL     1       6.315   5.512  18.551  0.00  0.00    +0.000 A 
ATOM      6  C   UNL     1       5.451   6.440  18.121  0.00  0.00    +0.000 A 
ATOM      7  N   UNL     1       4.110   6.131  17.945  0.00  0.00    +0.000 N 
ENDROOT
BRANCH   3   8
ATOM      8  S   UNL     1       4.014   2.280  19.270  0.00  0.00    +0.000 S 
ATOM      9  O   UNL     1       3.635   1.551  18.079  0.00  0.00    +0.000 OA
ATOM     10  O   UNL     1       5.059   1.714  20.113  0.00  0.00    +0.000 OA
BRANCH   8  11
ATOM     11  N   UNL     1       2.644   2.304  20.272  0.00  0.00    +0.000 NA
ATOM     12  C   UNL     1       1.277   2.205  19.703  0.00  0.00    +0.000 C 
ATOM     13  C   UNL     1       0.662   3.600  19.514  0.00  0.00    +0.000 C 
ATOM     14  O   UNL     1       0.784   4.451  20.666  0.00  0.00    +0.000 OA
ATOM     15  C   UNL     1       2.123   4.511  21.184  0.00  0.00    +0.000 C 
ATOM     16  C   UNL     1       2.628   3.112  21.515  0.00  0.00    +0.000 C 
ENDBRANCH   8  11
ENDBRANCH   3   8
BRANCH   7  17
ATOM     17  C   UNL     1       3.216   7.146  17.366  0.00  0.00    +0.000 C 
BRANCH  17  18
ATOM     18  C   UNL     1       2.418   7.998  18.346  0.00  0.00    +0.000 A 
ATOM     19  C   UNL     1       1.737   9.133  17.862  0.00  0.00    +0.000 A 
ATOM     20  C   UNL     1       0.873   9.860  18.686  0.00  0.00    +0.000 A 
ATOM     21  F   UNL     1       0.222  10.920  18.187  0.00  0.00    +0.000 F 
ATOM     22  C   UNL     1       0.658   9.488  20.003  0.00  0.00    +0.000 A 
ATOM     23  C   UNL     1       1.329   8.375  20.490  0.00  0.00    +0.000 A 
ATOM     24  F   UNL     1       1.121   7.991  21.759  0.00  0.00    +0.000 F 
ATOM     25  C   UNL     1       2.197   7.628  19.683  0.00  0.00    +0.000 A 
ENDBRANCH  17  18
ENDBRANCH   7  17
TORSDOF 4
ENDMDL
MODEL 3
REMARK VINA RESULT:      -7.6      4.387      5.923
REMARK  Name = 
REMARK  4 active torsions:
REMARK  status: ('A' for Active; 'I' for Inactive)
REMARK    1  A    between atoms: C_3  and  S_4
REMARK    2  A    between atoms: S_4  and  N_7
REMARK    3  A    between atoms: N_16  and  C_17
REMARK    4  A    between atoms: C_17  and  C_18
REMARK                            x       y       z     vdW  Elec       q    Type
REMARK                         _______ _______ _______ _____ _____    ______ ____
ROOT
ATOM      1  O   UNL     1       4.741   2.991  17.419  0.00  0.00    +0.000 OA
ATOM      2  C   UNL     1       4.486   4.184  17.290  0.00  0.00    +0.000 A 
ATOM      3  C   UNL     1       3.119   4.717  17.535  0.00  0.00    +0.000 A 
ATOM      4  C   UNL     1       3.002   6.028  17.820  0.00  0.00    +0.000 A 
ATOM      5  C   UNL     1       4.149   6.903  17.780  0.00  0.00    +0.000 A 
ATOM      6  C   UNL     1       5.298   6.466  17.251  0.00  0.00    +0.000 A 
ATOM      7  N   UNL     1       5.449   5.135  16.887  0.00  0.00    +0.000 N 
ENDROOT
BRANCH   3   8
ATOM      8  S   UNL     1       1.724   3.684  17.667  0.00  0.00    +0.000 S 
ATOM      9  O   UNL     1       0.596   4.378  17.083  0.00  0.00    +0.000 OA
ATOM     10  O   UNL     1       2.092   2.389  17.109  0.00  0.00    +0.000 OA
BRANCH   8  11
ATOM     11  N   UNL     1       1.293   3.335  19.271  0.00  0.00    +0.000 NA
ATOM     12  C   UNL     1       0.937   4.417  20.221  0.00  0.00    +0.000 C 
ATOM     13  C   UNL     1       2.154   4.826  21.065  0.00  0.00    +0.000 C 
ATOM     14  O   UNL     1       2.862   3.716  21.642  0.00  0.00    +0.000 OA
ATOM     15  C   UNL     1       3.179   2.691  20.686  0.00  0.00    +0.000 C 
ATOM     16  C   UNL     1       1.914   2.199  19.994  0.00  0.00    +0.000 C 
ENDBRANCH   8  11
ENDBRANCH   3   8
BRANCH   7  17
ATOM     17  C   UNL     1       6.763   4.672  16.412  0.00  0.00    +0.000 C 
BRANCH  17  18
ATOM     18  C   UNL     1       6.945   4.550  14.905  0.00  0.00    +0.000 A 
ATOM     19  C   UNL     1       6.166   3.609  14.200  0.00  0.00    +0.000 A 
ATOM     20  C   UNL     1       6.185   3.561  12.804  0.00  0.00    +0.000 A 
ATOM     21  F   UNL     1       5.414   2.670  12.163  0.00  0.00    +0.000 F 
ATOM     22  C   UNL     1       6.967   4.436  12.067  0.00  0.00    +0.000 A 
ATOM     23  C   UNL     1       7.741   5.362  12.752  0.00  0.00    +0.000 A 
ATOM     24  F   UNL     1       8.493   6.227  12.055  0.00  0.00    +0.000 F 
ATOM     25  C   UNL     1       7.737   5.432  14.152  0.00  0.00    +0.000 A 
ENDBRANCH  17  18
ENDBRANCH   7  17
TORSDOF 4
ENDMDL
MODEL 4
REMARK VINA RESULT:      -7.5      2.977      4.624
REMARK  Name = 
REMARK  4 active torsions:
REMARK  status: ('A' for Active; 'I' for Inactive)
REMARK    1  A    between atoms: C_3  and  S_4
REMARK    2  A    between atoms: S_4  and  N_7
REMARK    3  A    between atoms: N_16  and  C_17
REMARK    4  A    between atoms: C_17  and  C_18
REMARK                            x       y       z     vdW  Elec       q    Type
REMARK                         _______ _______ _______ _____ _____    ______ ____
ROOT
ATOM      1  O   UNL     1       2.469   8.629  17.826  0.00  0.00    +0.000 OA
ATOM      2  C   UNL     1       1.864   8.473  18.882  0.00  0.00    +0.000 A 
ATOM      3  C   UNL     1       1.983   7.216  19.667  0.00  0.00    +0.000 A 
ATOM      4  C   UNL     1       1.685   7.270  20.980  0.00  0.00    +0.000 A 
ATOM      5  C   UNL     1       1.163   8.476  21.575  0.00  0.00    +0.000 A 
ATOM      6  C   UNL     1       0.768   9.486  20.790  0.00  0.00    +0.000 A 
ATOM      7  N   UNL     1       1.001   9.452  19.423  0.00  0.00    +0.000 N 
ENDROOT
BRANCH   3   8
ATOM      8  S   UNL     1       2.678   5.764  19.006  0.00  0.00    +0.000 S 
ATOM      9  O   UNL     1       2.013   5.479  17.753  0.00  0.00    +0.000 OA
ATOM     10  O   UNL     1       4.124   5.947  18.986  0.00  0.00    +0.000 OA
BRANCH   8  11
ATOM     11  N   UNL     1       2.450   4.398  19.989  0.00  0.00    +0.000 NA
ATOM     12  C   UNL     1       3.474   3.328  20.063  0.00  0.00    +0.000 C 
ATOM     13  C   UNL     1       3.139   2.183  19.094  0.00  0.00    +0.000 C 
ATOM     14  O   UNL     1       1.777   1.732  19.176  0.00  0.00    +0.000 OA
ATOM     15  C   UNL     1       0.823   2.803  19.106  0.00  0.00    +0.000 C 
ATOM     16  C   UNL     1       1.096   3.831  20.197  0.00  0.00    +0.000 C 
ENDBRANCH   8  11
ENDBRANCH   3   8
BRANCH   7  17
ATOM     17  C   UNL     1       0.651  10.629  18.612  0.00  0.00    +0.000 C 
BRANCH  17  18
ATOM     18  C   UNL     1      -0.822  10.814  18.269  0.00  0.00    +0.000 A 
ATOM     19  C   UNL     1      -1.397   9.994  17.276  0.00  0.00    +0.000 A 
ATOM     20  C   UNL     1      -2.772  10.018  17.030  0.00  0.00    +0.000 A 
ATOM     21  F   UNL     1      -3.290   9.209  16.095  0.00  0.00    +0.000 F 
ATOM     22  C   UNL     1      -3.614  10.847  17.754  0.00  0.00    +0.000 A 
ATOM     23  C   UNL     1      -3.057  11.662  18.729  0.00  0.00    +0.000 A 
ATOM     24  F   UNL     1      -3.859  12.459  19.450  0.00  0.00    +0.000 F 
ATOM     25  C   UNL     1      -1.682  11.652  18.997  0.00  0.00    +0.000 A 
ENDBRANCH  17  18
ENDBRANCH   7  17
TORSDOF 4
ENDMDL
MODEL 5
REMARK VINA RESULT:      -7.5      5.112      6.519
REMARK  Name = 
REMARK  4 active torsions:
REMARK  status: ('A' for Active; 'I' for Inactive)
REMARK    1  A    between atoms: C_3  and  S_4
REMARK    2  A    between atoms: S_4  and  N_7
REMARK    3  A    between atoms: N_16  and  C_17
REMARK    4  A    between atoms: C_17  and  C_18
REMARK                            x       y       z     vdW  Elec       q    Type
REMARK                         _______ _______ _______ _____ _____    ______ ____
ROOT
ATOM      1  O   UNL     1       6.536   3.569  16.628  0.00  0.00    +0.000 OA
ATOM      2  C   UNL     1       5.762   4.494  16.404  0.00  0.00    +0.000 A 
ATOM      3  C   UNL     1       4.613   4.781  17.303  0.00  0.00    +0.000 A 
ATOM      4  C   UNL     1       4.094   6.024  17.276  0.00  0.00    +0.000 A 
ATOM      5  C   UNL     1       4.565   7.005  16.328  0.00  0.00    +0.000 A 
ATOM      6  C   UNL     1       5.369   6.628  15.326  0.00  0.00    +0.000 A 
ATOM      7  N   UNL     1       5.884   5.340  15.279  0.00  0.00    +0.000 N 
ENDROOT
BRANCH   3   8
ATOM      8  S   UNL     1       4.068   3.653  18.511  0.00  0.00    +0.000 S 
ATOM      9  O   UNL     1       3.679   2.431  17.839  0.00  0.00    +0.000 OA
ATOM     10  O   UNL     1       5.108   3.572  19.528  0.00  0.00    +0.000 OA
BRANCH   8  11
ATOM     11  N   UNL     1       2.699   4.186  19.363  0.00  0.00    +0.000 NA
ATOM     12  C   UNL     1       2.743   4.390  20.832  0.00  0.00    +0.000 C 
ATOM     13  C   UNL     1       2.218   3.149  21.572  0.00  0.00    +0.000 C 
ATOM     14  O   UNL     1       0.969   2.652  21.060  0.00  0.00    +0.000 OA
ATOM     15  C   UNL     1       0.974   2.477  19.634  0.00  0.00    +0.000 C 
ATOM     16  C   UNL     1       1.337   3.782  18.939  0.00  0.00    +0.000 C 
ENDBRANCH   8  11
ENDBRANCH   3   8
BRANCH   7  17
ATOM     17  C   UNL     1       6.850   4.998  14.224  0.00  0.00    +0.000 C 
BRANCH  17  18
ATOM     18  C   UNL     1       6.340   4.131  13.079  0.00  0.00    +0.000 A 
ATOM     19  C   UNL     1       7.254   3.309  12.390  0.00  0.00    +0.000 A 
ATOM     20  C   UNL     1       6.815   2.387  11.436  0.00  0.00    +0.000 A 
ATOM     21  F   UNL     1       7.708   1.603  10.815  0.00  0.00    +0.000 F 
ATOM     22  C   UNL     1       5.469   2.250  11.139  0.00  0.00    +0.000 A 
ATOM     23  C   UNL     1       4.561   3.059  11.809  0.00  0.00    +0.000 A 
ATOM     24  F   UNL     1       3.252   2.930  11.545  0.00  0.00    +0.000 F 
ATOM     25  C   UNL     1       4.977   3.989  12.771  0.00  0.00    +0.000 A 
ENDBRANCH  17  18
ENDBRANCH   7  17
TORSDOF 4
ENDMDL
MODEL 6
REMARK VINA RESULT:      -7.5      3.364      5.291
REMARK  Name = 
REMARK  4 active torsions:
REMARK  status: ('A' for Active; 'I' for Inactive)
REMARK    1  A    between atoms: C_3  and  S_4
REMARK    2  A    between atoms: S_4  and  N_7
REMARK    3  A    between atoms: N_16  and  C_17
REMARK    4  A    between atoms: C_17  and  C_18
REMARK                            x       y       z     vdW  Elec       q    Type
REMARK                         _______ _______ _______ _____ _____    ______ ____
ROOT
ATOM      1  O   UNL     1       2.017   9.492  17.592  0.00  0.00    +0.000 OA
ATOM      2  C   UNL     1       1.546   9.150  18.672  0.00  0.00    +0.000 A 
ATOM      3  C   UNL     1       1.960   7.884  19.333  0.00  0.00    +0.000 A 
ATOM      4  C   UNL     1       1.775   7.786  20.664  0.00  0.00    +0.000 A 
ATOM      5  C   UNL     1       1.100   8.828  21.400  0.00  0.00    +0.000 A 
ATOM      6  C   UNL     1       0.461   9.800  20.737  0.00  0.00    +0.000 A 
ATOM      7  N   UNL     1       0.573   9.909  19.359  0.00  0.00    +0.000 N 
ENDROOT
BRANCH   3   8
ATOM      8  S   UNL     1       2.844   6.639  18.497  0.00  0.00    +0.000 S 
ATOM      9  O   UNL     1       1.893   5.827  17.770  0.00  0.00    +0.000 OA
ATOM     10  O   UNL     1       3.902   7.295  17.741  0.00  0.00    +0.000 OA
BRANCH   8  11
ATOM     11  N   UNL     1       3.673   5.586  19.539  0.00  0.00    +0.000 NA
ATOM     12  C   UNL     1       5.111   5.284  19.336  0.00  0.00    +0.000 C 
ATOM     13  C   UNL     1       5.289   3.982  18.539  0.00  0.00    +0.000 C 
ATOM     14  O   UNL     1       4.497   2.887  19.030  0.00  0.00    +0.000 OA
ATOM     15  C   UNL     1       3.115   3.229  19.216  0.00  0.00    +0.000 C 
ATOM     16  C   UNL     1       2.984   4.425  20.151  0.00  0.00    +0.000 C 
ENDBRANCH   8  11
ENDBRANCH   3   8
BRANCH   7  17
ATOM     17  C   UNL     1      -0.054  11.056  18.682  0.00  0.00    +0.000 C 
BRANCH  17  18
ATOM     18  C   UNL     1      -1.471  10.854  18.160  0.00  0.00    +0.000 A 
ATOM     19  C   UNL     1      -2.518  11.610  18.726  0.00  0.00    +0.000 A 
ATOM     20  C   UNL     1      -3.806  11.574  18.185  0.00  0.00    +0.000 A 
ATOM     21  F   UNL     1      -4.773  12.324  18.732  0.00  0.00    +0.000 F 
ATOM     22  C   UNL     1      -4.095  10.796  17.076  0.00  0.00    +0.000 A 
ATOM     23  C   UNL     1      -3.072  10.043  16.515  0.00  0.00    +0.000 A 
ATOM     24  F   UNL     1      -3.330   9.295  15.432  0.00  0.00    +0.000 F 
ATOM     25  C   UNL     1      -1.773  10.066  17.038  0.00  0.00    +0.000 A 
ENDBRANCH  17  18
ENDBRANCH   7  17
TORSDOF 4
ENDMDL
MODEL 7
REMARK VINA RESULT:      -7.3      4.686      7.827
REMARK  Name = 
REMARK  4 active torsions:
REMARK  status: ('A' for Active; 'I' for Inactive)
REMARK    1  A    between atoms: C_3  and  S_4
REMARK    2  A    between atoms: S_4  and  N_7
REMARK    3  A    between atoms: N_16  and  C_17
REMARK    4  A    between atoms: C_17  and  C_18
REMARK                            x       y       z     vdW  Elec       q    Type
REMARK                         _______ _______ _______ _____ _____    ______ ____
ROOT
ATOM      1  O   UNL     1       1.392   8.568  21.641  0.00  0.00    +0.000 OA
ATOM      2  C   UNL     1       1.517   8.388  20.434  0.00  0.00    +0.000 A 
ATOM      3  C   UNL     1       1.292   9.487  19.457  0.00  0.00    +0.000 A 
ATOM      4  C   UNL     1       1.865   9.370  18.244  0.00  0.00    +0.000 A 
ATOM      5  C   UNL     1       2.577   8.172  17.870  0.00  0.00    +0.000 A 
ATOM      6  C   UNL     1       2.494   7.082  18.643  0.00  0.00    +0.000 A 
ATOM      7  N   UNL     1       1.863   7.137  19.878  0.00  0.00    +0.000 N 
ENDROOT
BRANCH   3   8
ATOM      8  S   UNL     1       0.505  10.977  19.893  0.00  0.00    +0.000 S 
ATOM      9  O   UNL     1      -0.908  10.708  20.052  0.00  0.00    +0.000 OA
ATOM     10  O   UNL     1       1.227  11.530  21.031  0.00  0.00    +0.000 OA
BRANCH   8  11
ATOM     11  N   UNL     1       0.632  12.179  18.701  0.00  0.00    +0.000 NA
ATOM     12  C   UNL     1       1.902  12.916  18.489  0.00  0.00    +0.000 C 
ATOM     13  C   UNL     1       1.895  14.248  19.255  0.00  0.00    +0.000 C 
ATOM     14  O   UNL     1       0.700  15.024  19.064  0.00  0.00    +0.000 OA
ATOM     15  C   UNL     1      -0.503  14.266  19.275  0.00  0.00    +0.000 C 
ATOM     16  C   UNL     1      -0.527  13.042  18.368  0.00  0.00    +0.000 C 
ENDBRANCH   8  11
ENDBRANCH   3   8
BRANCH   7  17
ATOM     17  C   UNL     1       1.889   5.947  20.744  0.00  0.00    +0.000 C 
BRANCH  17  18
ATOM     18  C   UNL     1       2.075   4.601  20.055  0.00  0.00    +0.000 A 
ATOM     19  C   UNL     1       3.337   3.975  20.116  0.00  0.00    +0.000 A 
ATOM     20  C   UNL     1       3.520   2.676  19.634  0.00  0.00    +0.000 A 
ATOM     21  F   UNL     1       4.727   2.101  19.728  0.00  0.00    +0.000 F 
ATOM     22  C   UNL     1       2.469   1.962  19.082  0.00  0.00    +0.000 A 
ATOM     23  C   UNL     1       1.224   2.572  19.012  0.00  0.00    +0.000 A 
ATOM     24  F   UNL     1       0.191   1.891  18.494  0.00  0.00    +0.000 F 
ATOM     25  C   UNL     1       1.015   3.872  19.492  0.00  0.00    +0.000 A 
ENDBRANCH  17  18
ENDBRANCH   7  17
TORSDOF 4
ENDMDL
MODEL 8
REMARK VINA RESULT:      -7.3      3.088      4.743
REMARK  Name = 
REMARK  4 active torsions:
REMARK  status: ('A' for Active; 'I' for Inactive)
REMARK    1  A    between atoms: C_3  and  S_4
REMARK    2  A    between atoms: S_4  and  N_7
REMARK    3  A    between atoms: N_16  and  C_17
REMARK    4  A    between atoms: C_17  and  C_18
REMARK                            x       y       z     vdW  Elec       q    Type
REMARK                         _______ _______ _______ _____ _____    ______ ____
ROOT
ATOM      1  O   UNL     1       2.515   8.834  17.835  0.00  0.00    +0.000 OA
ATOM      2  C   UNL     1       1.880   8.603  18.859  0.00  0.00    +0.000 A 
ATOM      3  C   UNL     1       2.038   7.324  19.600  0.00  0.00    +0.000 A 
ATOM      4  C   UNL     1       1.689   7.308  20.901  0.00  0.00    +0.000 A 
ATOM      5  C   UNL     1       1.081   8.460  21.521  0.00  0.00    +0.000 A 
ATOM      6  C   UNL     1       0.661   9.479  20.761  0.00  0.00    +0.000 A 
ATOM      7  N   UNL     1       0.946   9.513  19.403  0.00  0.00    +0.000 N 
ENDROOT
BRANCH   3   8
ATOM      8  S   UNL     1       2.835   5.938  18.910  0.00  0.00    +0.000 S 
ATOM      9  O   UNL     1       3.349   6.317  17.612  0.00  0.00    +0.000 OA
ATOM     10  O   UNL     1       3.782   5.447  19.903  0.00  0.00    +0.000 OA
BRANCH   8  11
ATOM     11  N   UNL     1       1.794   4.623  18.647  0.00  0.00    +0.000 NA
ATOM     12  C   UNL     1       1.185   3.889  19.784  0.00  0.00    +0.000 C 
ATOM     13  C   UNL     1       2.012   2.642  20.135  0.00  0.00    +0.000 C 
ATOM     14  O   UNL     1       2.354   1.832  18.998  0.00  0.00    +0.000 OA
ATOM     15  C   UNL     1       2.935   2.587  17.922  0.00  0.00    +0.000 C 
ATOM     16  C   UNL     1       2.000   3.712  17.496  0.00  0.00    +0.000 C 
ENDBRANCH   8  11
ENDBRANCH   3   8
BRANCH   7  17
ATOM     17  C   UNL     1       0.564  10.702  18.625  0.00  0.00    +0.000 C 
BRANCH  17  18
ATOM     18  C   UNL     1      -0.908  10.835  18.252  0.00  0.00    +0.000 A 
ATOM     19  C   UNL     1      -1.432   9.996  17.248  0.00  0.00    +0.000 A 
ATOM     20  C   UNL     1      -2.802   9.972  16.973  0.00  0.00    +0.000 A 
ATOM     21  F   UNL     1      -3.272   9.146  16.027  0.00  0.00    +0.000 F 
ATOM     22  C   UNL     1      -3.688  10.769  17.680  0.00  0.00    +0.000 A 
ATOM     23  C   UNL     1      -3.180  11.602  18.667  0.00  0.00    +0.000 A 
ATOM     24  F   UNL     1      -4.025  12.370  19.372  0.00  0.00    +0.000 F 
ATOM     25  C   UNL     1      -1.811  11.642  18.963  0.00  0.00    +0.000 A 
ENDBRANCH  17  18
ENDBRANCH   7  17
TORSDOF 4
ENDMDL
MODEL 9
REMARK VINA RESULT:      -7.3      4.643      6.248
REMARK  Name = 
REMARK  4 active torsions:
REMARK  status: ('A' for Active; 'I' for Inactive)
REMARK    1  A    between atoms: C_3  and  S_4
REMARK    2  A    between atoms: S_4  and  N_7
REMARK    3  A    between atoms: N_16  and  C_17
REMARK    4  A    between atoms: C_17  and  C_18
REMARK                            x       y       z     vdW  Elec       q    Type
REMARK                         _______ _______ _______ _____ _____    ______ ____
ROOT
ATOM      1  O   UNL     1       5.372   4.169  18.683  0.00  0.00    +0.000 OA
ATOM      2  C   UNL     1       4.951   5.006  17.892  0.00  0.00    +0.000 A 
ATOM      3  C   UNL     1       3.822   5.908  18.242  0.00  0.00    +0.000 A 
ATOM      4  C   UNL     1       3.708   7.061  17.555  0.00  0.00    +0.000 A 
ATOM      5  C   UNL     1       4.583   7.355  16.446  0.00  0.00    +0.000 A 
ATOM      6  C   UNL     1       5.375   6.395  15.953  0.00  0.00    +0.000 A 
ATOM      7  N   UNL     1       5.483   5.169  16.593  0.00  0.00    +0.000 N 
ENDROOT
BRANCH   3   8
ATOM      8  S   UNL     1       2.794   5.626  19.618  0.00  0.00    +0.000 S 
ATOM      9  O   UNL     1       3.594   5.015  20.658  0.00  0.00    +0.000 OA
ATOM     10  O   UNL     1       2.125   6.884  19.922  0.00  0.00    +0.000 OA
BRANCH   8  11
ATOM     11  N   UNL     1       1.521   4.549  19.300  0.00  0.00    +0.000 NA
ATOM     12  C   UNL     1       0.914   3.739  20.384  0.00  0.00    +0.000 C 
ATOM     13  C   UNL     1       1.545   2.338  20.439  0.00  0.00    +0.000 C 
ATOM     14  O   UNL     1       1.625   1.686  19.160  0.00  0.00    +0.000 OA
ATOM     15  C   UNL     1       2.214   2.511  18.142  0.00  0.00    +0.000 C 
ATOM     16  C   UNL     1       1.448   3.821  18.010  0.00  0.00    +0.000 C 
ENDBRANCH   8  11
ENDBRANCH   3   8
BRANCH   7  17
ATOM     17  C   UNL     1       6.447   4.181  16.082  0.00  0.00    +0.000 C 
BRANCH  17  18
ATOM     18  C   UNL     1       6.740   4.219  14.587  0.00  0.00    +0.000 A 
ATOM     19  C   UNL     1       6.024   3.356  13.732  0.00  0.00    +0.000 A 
ATOM     20  C   UNL     1       6.146   3.455  12.344  0.00  0.00    +0.000 A 
ATOM     21  F   UNL     1       5.433   2.635  11.558  0.00  0.00    +0.000 F 
ATOM     22  C   UNL     1       6.973   4.403  11.763  0.00  0.00    +0.000 A 
ATOM     23  C   UNL     1       7.686   5.253  12.597  0.00  0.00    +0.000 A 
ATOM     24  F   UNL     1       8.480   6.187  12.052  0.00  0.00    +0.000 F 
ATOM     25  C   UNL     1       7.578   5.176  13.992  0.00  0.00    +0.000 A 
ENDBRANCH  17  18
ENDBRANCH   7  17
TORSDOF 4
ENDMDL
