MODEL 1
REMARK VINA RESULT:     -10.1      0.000      0.000
REMARK  Name = 
REMARK  7 active torsions:
REMARK  status: ('A' for Active; 'I' for Inactive)
REMARK    1  A    between atoms: C_1  and  C_2
REMARK    2  A    between atoms: N_6  and  C_7
REMARK    3  A    between atoms: N_11  and  C_12
REMARK    4  A    between atoms: C_14  and  C_15
REMARK    5  A    between atoms: N_22  and  C_23
REMARK    6  A    between atoms: C_23  and  C_24
REMARK    7  A    between atoms: C_32  and  C_33
REMARK                            x       y       z     vdW  Elec       q    Type
REMARK                         _______ _______ _______ _____ _____    ______ ____
ROOT
ATOM      1  C   UNL     1       2.567   6.556  19.414  0.00  0.00    +0.000 A 
ATOM      2  C   UNL     1       2.598   7.337  18.273  0.00  0.00    +0.000 A 
ATOM      3  N   UNL     1       1.913   8.466  18.601  0.00  0.00    +0.000 N 
ATOM      4  C   UNL     1       1.479   8.358  19.889  0.00  0.00    +0.000 A 
ATOM      5  N   UNL     1       1.857   7.201  20.404  0.00  0.00    +0.000 NA
ATOM      6  C   UNL     1       0.691   9.365  20.569  0.00  0.00    +0.000 C 
ATOM      7  O   UNL     1       0.263   9.227  21.713  0.00  0.00    +0.000 OA
ATOM      8  N   UNL     1       0.420  10.521  19.818  0.00  0.00    +0.000 N 
ATOM      9  C   UNL     1       1.038  10.806  18.501  0.00  0.00    +0.000 C 
ATOM     10  C   UNL     1       2.119  11.890  18.615  0.00  0.00    +0.000 C 
ATOM     11  C   UNL     1       1.610   9.585  17.746  0.00  0.00    +0.000 C 
ENDROOT
BRANCH   1  19
ATOM     12  C   UNL     1       1.432   4.307  21.105  0.00  0.00    +0.000 C 
ATOM     13  C   UNL     1       2.710   4.236  20.339  0.00  0.00    +0.000 A 
ATOM     14  C   UNL     1       3.498   3.104  20.371  0.00  0.00    +0.000 A 
ATOM     15  N   UNL     1       4.658   2.962  19.699  0.00  0.00    +0.000 NA
ATOM     16  C   UNL     1       5.046   3.993  18.937  0.00  0.00    +0.000 A 
ATOM     17  N   UNL     1       6.215   3.790  18.194  0.00  0.00    +0.000 N 
ATOM     18  N   UNL     1       4.356   5.132  18.842  0.00  0.00    +0.000 NA
ATOM     19  C   UNL     1       3.214   5.255  19.552  0.00  0.00    +0.000 A 
ATOM     20  H   UNL     1       6.538   2.852  18.392  0.00  0.00    +0.000 HD
BRANCH  17  21
ATOM     21  C   UNL     1       6.606   4.505  17.108  0.00  0.00    +0.000 A 
ATOM     22  C   UNL     1       6.467   4.298  15.752  0.00  0.00    +0.000 A 
ATOM     23  C   UNL     1       7.152   5.355  15.136  0.00  0.00    +0.000 A 
ATOM     24  N   UNL     1       7.660   6.214  16.020  0.00  0.00    +0.000 NA
ATOM     25  N   UNL     1       7.305   5.685  17.211  0.00  0.00    +0.000 N 
ATOM     26  C   UNL     1       7.716   6.362  18.418  0.00  0.00    +0.000 C 
ENDBRANCH  17  21
ENDBRANCH   1  19
BRANCH   8  27
ATOM     27  C   UNL     1      -0.428  11.538  20.441  0.00  0.00    +0.000 C 
BRANCH  27  28
ATOM     28  C   UNL     1      -1.781  11.637  19.775  0.00  0.00    +0.000 A 
ATOM     29  C   UNL     1      -2.770  12.491  20.295  0.00  0.00    +0.000 A 
ATOM     30  C   UNL     1      -4.035  12.559  19.707  0.00  0.00    +0.000 A 
ATOM     31  C   UNL     1      -4.318  11.770  18.598  0.00  0.00    +0.000 A 
ATOM     32  F   UNL     1      -5.539  11.820  18.047  0.00  0.00    +0.000 F 
ATOM     33  C   UNL     1      -3.345  10.931  18.070  0.00  0.00    +0.000 A 
ATOM     34  F   UNL     1      -3.615  10.173  16.998  0.00  0.00    +0.000 F 
ATOM     35  C   UNL     1      -2.080  10.860  18.647  0.00  0.00    +0.000 A 
ENDBRANCH  27  28
ENDBRANCH   8  27
TORSDOF 4
ENDMDL
MODEL 2
REMARK VINA RESULT:     -10.0      1.395      2.081
REMARK  Name = 
REMARK  7 active torsions:
REMARK  status: ('A' for Active; 'I' for Inactive)
REMARK    1  A    between atoms: C_1  and  C_2
REMARK    2  A    between atoms: N_6  and  C_7
REMARK    3  A    between atoms: N_11  and  C_12
REMARK    4  A    between atoms: C_14  and  C_15
REMARK    5  A    between atoms: N_22  and  C_23
REMARK    6  A    between atoms: C_23  and  C_24
REMARK    7  A    between atoms: C_32  and  C_33
REMARK                            x       y       z     vdW  Elec       q    Type
REMARK                         _______ _______ _______ _____ _____    ______ ____
ROOT
ATOM      1  C   UNL     1       2.271   6.887  19.747  0.00  0.00    +0.000 A 
ATOM      2  C   UNL     1       1.995   7.674  18.643  0.00  0.00    +0.000 A 
ATOM      3  N   UNL     1       1.491   8.830  19.153  0.00  0.00    +0.000 N 
ATOM      4  C   UNL     1       1.456   8.732  20.513  0.00  0.00    +0.000 A 
ATOM      5  N   UNL     1       1.918   7.555  20.899  0.00  0.00    +0.000 NA
ATOM      6  C   UNL     1       0.952   9.768  21.390  0.00  0.00    +0.000 C 
ATOM      7  O   UNL     1       0.879   9.640  22.612  0.00  0.00    +0.000 OA
ATOM      8  N   UNL     1       0.522  10.940  20.747  0.00  0.00    +0.000 N 
ATOM      9  C   UNL     1       0.731  11.207  19.304  0.00  0.00    +0.000 C 
ATOM     10  C   UNL     1       1.843  12.241  19.084  0.00  0.00    +0.000 C 
ATOM     11  C   UNL     1       0.997   9.967  18.421  0.00  0.00    +0.000 C 
ENDROOT
BRANCH   1  19
ATOM     12  C   UNL     1       0.759   4.353  20.450  0.00  0.00    +0.000 C 
ATOM     13  C   UNL     1       2.191   4.403  20.034  0.00  0.00    +0.000 A 
ATOM     14  C   UNL     1       2.953   3.255  19.961  0.00  0.00    +0.000 A 
ATOM     15  N   UNL     1       4.247   3.221  19.586  0.00  0.00    +0.000 NA
ATOM     16  C   UNL     1       4.809   4.388  19.242  0.00  0.00    +0.000 A 
ATOM     17  N   UNL     1       6.131   4.312  18.786  0.00  0.00    +0.000 N 
ATOM     18  N   UNL     1       4.158   5.552  19.283  0.00  0.00    +0.000 NA
ATOM     19  C   UNL     1       2.871   5.558  19.693  0.00  0.00    +0.000 A 
ATOM     20  H   UNL     1       6.399   3.337  18.805  0.00  0.00    +0.000 HD
BRANCH  17  21
ATOM     21  C   UNL     1       6.781   5.256  18.059  0.00  0.00    +0.000 A 
ATOM     22  C   UNL     1       7.453   6.408  18.409  0.00  0.00    +0.000 A 
ATOM     23  C   UNL     1       7.841   7.002  17.200  0.00  0.00    +0.000 A 
ATOM     24  N   UNL     1       7.492   6.271  16.141  0.00  0.00    +0.000 NA
ATOM     25  N   UNL     1       6.861   5.209  16.687  0.00  0.00    +0.000 N 
ATOM     26  C   UNL     1       6.321   4.199  15.808  0.00  0.00    +0.000 C 
ENDBRANCH  17  21
ENDBRANCH   1  19
BRANCH   8  27
ATOM     27  C   UNL     1      -0.057  11.989  21.589  0.00  0.00    +0.000 C 
BRANCH  27  28
ATOM     28  C   UNL     1      -1.533  12.180  21.327  0.00  0.00    +0.000 A 
ATOM     29  C   UNL     1      -2.023  12.222  20.010  0.00  0.00    +0.000 A 
ATOM     30  C   UNL     1      -3.381  12.436  19.760  0.00  0.00    +0.000 A 
ATOM     31  C   UNL     1      -4.254  12.612  20.828  0.00  0.00    +0.000 A 
ATOM     32  F   UNL     1      -5.553  12.837  20.587  0.00  0.00    +0.000 F 
ATOM     33  C   UNL     1      -3.782  12.560  22.133  0.00  0.00    +0.000 A 
ATOM     34  F   UNL     1      -4.623  12.724  23.163  0.00  0.00    +0.000 F 
ATOM     35  C   UNL     1      -2.431  12.344  22.391  0.00  0.00    +0.000 A 
ENDBRANCH  27  28
ENDBRANCH   8  27
TORSDOF 4
ENDMDL
MODEL 3
REMARK VINA RESULT:     -10.0      1.004      1.504
REMARK  Name = 
REMARK  7 active torsions:
REMARK  status: ('A' for Active; 'I' for Inactive)
REMARK    1  A    between atoms: C_1  and  C_2
REMARK    2  A    between atoms: N_6  and  C_7
REMARK    3  A    between atoms: N_11  and  C_12
REMARK    4  A    between atoms: C_14  and  C_15
REMARK    5  A    between atoms: N_22  and  C_23
REMARK    6  A    between atoms: C_23  and  C_24
REMARK    7  A    between atoms: C_32  and  C_33
REMARK                            x       y       z     vdW  Elec       q    Type
REMARK                         _______ _______ _______ _____ _____    ______ ____
ROOT
ATOM      1  C   UNL     1       2.284   6.876  19.712  0.00  0.00    +0.000 A 
ATOM      2  C   UNL     1       2.046   7.658  18.597  0.00  0.00    +0.000 A 
ATOM      3  N   UNL     1       1.521   8.815  19.084  0.00  0.00    +0.000 N 
ATOM      4  C   UNL     1       1.438   8.722  20.442  0.00  0.00    +0.000 A 
ATOM      5  N   UNL     1       1.889   7.547  20.848  0.00  0.00    +0.000 NA
ATOM      6  C   UNL     1       0.901   9.759  21.297  0.00  0.00    +0.000 C 
ATOM      7  O   UNL     1       0.785   9.636  22.516  0.00  0.00    +0.000 OA
ATOM      8  N   UNL     1       0.492  10.929  20.636  0.00  0.00    +0.000 N 
ATOM      9  C   UNL     1       0.752  11.192  19.200  0.00  0.00    +0.000 C 
ATOM     10  C   UNL     1       1.869  12.227  19.016  0.00  0.00    +0.000 C 
ATOM     11  C   UNL     1       1.052   9.949  18.331  0.00  0.00    +0.000 C 
ENDROOT
BRANCH   1  19
ATOM     12  C   UNL     1       0.780   4.351  20.464  0.00  0.00    +0.000 C 
ATOM     13  C   UNL     1       2.212   4.398  20.048  0.00  0.00    +0.000 A 
ATOM     14  C   UNL     1       2.977   3.251  19.998  0.00  0.00    +0.000 A 
ATOM     15  N   UNL     1       4.271   3.214  19.623  0.00  0.00    +0.000 NA
ATOM     16  C   UNL     1       4.830   4.375  19.256  0.00  0.00    +0.000 A 
ATOM     17  N   UNL     1       6.151   4.294  18.803  0.00  0.00    +0.000 N 
ATOM     18  N   UNL     1       4.175   5.538  19.275  0.00  0.00    +0.000 NA
ATOM     19  C   UNL     1       2.888   5.548  19.684  0.00  0.00    +0.000 A 
ATOM     20  H   UNL     1       6.423   3.320  18.840  0.00  0.00    +0.000 HD
BRANCH  17  21
ATOM     21  C   UNL     1       6.799   5.226  18.057  0.00  0.00    +0.000 A 
ATOM     22  C   UNL     1       7.478   6.380  18.386  0.00  0.00    +0.000 A 
ATOM     23  C   UNL     1       7.858   6.956  17.165  0.00  0.00    +0.000 A 
ATOM     24  N   UNL     1       7.497   6.212  16.119  0.00  0.00    +0.000 NA
ATOM     25  N   UNL     1       6.867   5.160  16.685  0.00  0.00    +0.000 N 
ATOM     26  C   UNL     1       6.316   4.140  15.824  0.00  0.00    +0.000 C 
ENDBRANCH  17  21
ENDBRANCH   1  19
BRANCH   8  27
ATOM     27  C   UNL     1      -0.118  11.979  21.452  0.00  0.00    +0.000 C 
BRANCH  27  28
ATOM     28  C   UNL     1      -1.570  12.204  21.100  0.00  0.00    +0.000 A 
ATOM     29  C   UNL     1      -2.493  12.583  22.091  0.00  0.00    +0.000 A 
ATOM     30  C   UNL     1      -3.844  12.756  21.779  0.00  0.00    +0.000 A 
ATOM     31  C   UNL     1      -4.278  12.547  20.476  0.00  0.00    +0.000 A 
ATOM     32  F   UNL     1      -5.577  12.692  20.182  0.00  0.00    +0.000 F 
ATOM     33  C   UNL     1      -3.373  12.183  19.487  0.00  0.00    +0.000 A 
ATOM     34  F   UNL     1      -3.790  11.987  18.228  0.00  0.00    +0.000 F 
ATOM     35  C   UNL     1      -2.024  12.013  19.788  0.00  0.00    +0.000 A 
ENDBRANCH  27  28
ENDBRANCH   8  27
TORSDOF 4
ENDMDL
MODEL 4
REMARK VINA RESULT:      -9.9      0.462      1.153
REMARK  Name = 
REMARK  7 active torsions:
REMARK  status: ('A' for Active; 'I' for Inactive)
REMARK    1  A    between atoms: C_1  and  C_2
REMARK    2  A    between atoms: N_6  and  C_7
REMARK    3  A    between atoms: N_11  and  C_12
REMARK    4  A    between atoms: C_14  and  C_15
REMARK    5  A    between atoms: N_22  and  C_23
REMARK    6  A    between atoms: C_23  and  C_24
REMARK    7  A    between atoms: C_32  and  C_33
REMARK                            x       y       z     vdW  Elec       q    Type
REMARK                         _______ _______ _______ _____ _____    ______ ____
ROOT
ATOM      1  C   UNL     1       2.572   6.604  19.387  0.00  0.00    +0.000 A 
ATOM      2  C   UNL     1       2.648   7.400  18.259  0.00  0.00    +0.000 A 
ATOM      3  N   UNL     1       1.961   8.530  18.578  0.00  0.00    +0.000 N 
ATOM      4  C   UNL     1       1.482   8.408  19.850  0.00  0.00    +0.000 A 
ATOM      5  N   UNL     1       1.834   7.240  20.361  0.00  0.00    +0.000 NA
ATOM      6  C   UNL     1       0.680   9.412  20.516  0.00  0.00    +0.000 C 
ATOM      7  O   UNL     1       0.211   9.261  21.643  0.00  0.00    +0.000 OA
ATOM      8  N   UNL     1       0.443  10.580  19.773  0.00  0.00    +0.000 N 
ATOM      9  C   UNL     1       1.108  10.878  18.482  0.00  0.00    +0.000 C 
ATOM     10  C   UNL     1       2.192  11.951  18.647  0.00  0.00    +0.000 C 
ATOM     11  C   UNL     1       1.696   9.662  17.730  0.00  0.00    +0.000 C 
ENDROOT
BRANCH   1  19
ATOM     12  C   UNL     1       1.409   4.371  21.081  0.00  0.00    +0.000 C 
ATOM     13  C   UNL     1       2.688   4.284  20.317  0.00  0.00    +0.000 A 
ATOM     14  C   UNL     1       3.463   3.143  20.352  0.00  0.00    +0.000 A 
ATOM     15  N   UNL     1       4.622   2.987  19.683  0.00  0.00    +0.000 NA
ATOM     16  C   UNL     1       5.023   4.012  18.918  0.00  0.00    +0.000 A 
ATOM     17  N   UNL     1       6.191   3.794  18.178  0.00  0.00    +0.000 N 
ATOM     18  N   UNL     1       4.346   5.159  18.821  0.00  0.00    +0.000 NA
ATOM     19  C   UNL     1       3.204   5.296  19.528  0.00  0.00    +0.000 A 
ATOM     20  H   UNL     1       6.503   2.853  18.379  0.00  0.00    +0.000 HD
BRANCH  17  21
ATOM     21  C   UNL     1       6.591   4.502  17.091  0.00  0.00    +0.000 A 
ATOM     22  C   UNL     1       6.455   4.292  15.735  0.00  0.00    +0.000 A 
ATOM     23  C   UNL     1       7.151   5.341  15.118  0.00  0.00    +0.000 A 
ATOM     24  N   UNL     1       7.663   6.199  16.001  0.00  0.00    +0.000 NA
ATOM     25  N   UNL     1       7.300   5.677  17.192  0.00  0.00    +0.000 N 
ATOM     26  C   UNL     1       7.712   6.355  18.399  0.00  0.00    +0.000 C 
ENDBRANCH  17  21
ENDBRANCH   1  19
BRANCH   8  27
ATOM     27  C   UNL     1      -0.419  11.595  20.380  0.00  0.00    +0.000 C 
BRANCH  27  28
ATOM     28  C   UNL     1      -1.789  11.633  19.746  0.00  0.00    +0.000 A 
ATOM     29  C   UNL     1      -2.065  10.868  18.598  0.00  0.00    +0.000 A 
ATOM     30  C   UNL     1      -3.318  10.926  17.985  0.00  0.00    +0.000 A 
ATOM     31  C   UNL     1      -4.302  11.753  18.516  0.00  0.00    +0.000 A 
ATOM     32  F   UNL     1      -5.498  11.825  17.916  0.00  0.00    +0.000 F 
ATOM     33  C   UNL     1      -4.045  12.504  19.656  0.00  0.00    +0.000 A 
ATOM     34  F   UNL     1      -4.994  13.297  20.172  0.00  0.00    +0.000 F 
ATOM     35  C   UNL     1      -2.799  12.448  20.276  0.00  0.00    +0.000 A 
ENDBRANCH  27  28
ENDBRANCH   8  27
TORSDOF 4
ENDMDL
MODEL 5
REMARK VINA RESULT:      -9.8      2.924      4.236
REMARK  Name = 
REMARK  7 active torsions:
REMARK  status: ('A' for Active; 'I' for Inactive)
REMARK    1  A    between atoms: C_1  and  C_2
REMARK    2  A    between atoms: N_6  and  C_7
REMARK    3  A    between atoms: N_11  and  C_12
REMARK    4  A    between atoms: C_14  and  C_15
REMARK    5  A    between atoms: N_22  and  C_23
REMARK    6  A    between atoms: C_23  and  C_24
REMARK    7  A    between atoms: C_32  and  C_33
REMARK                            x       y       z     vdW  Elec       q    Type
REMARK                         _______ _______ _______ _____ _____    ______ ____
ROOT
ATOM      1  C   UNL     1       2.356   6.587  19.786  0.00  0.00    +0.000 A 
ATOM      2  C   UNL     1       1.756   7.085  20.928  0.00  0.00    +0.000 A 
ATOM      3  N   UNL     1       1.390   8.355  20.607  0.00  0.00    +0.000 N 
ATOM      4  C   UNL     1       1.768   8.610  19.322  0.00  0.00    +0.000 A 
ATOM      5  N   UNL     1       2.366   7.552  18.803  0.00  0.00    +0.000 NA
ATOM      6  C   UNL     1       1.563   9.876  18.650  0.00  0.00    +0.000 C 
ATOM      7  O   UNL     1       1.959  10.105  17.508  0.00  0.00    +0.000 OA
ATOM      8  N   UNL     1       0.893  10.853  19.404  0.00  0.00    +0.000 N 
ATOM      9  C   UNL     1       0.259  10.583  20.717  0.00  0.00    +0.000 C 
ATOM     10  C   UNL     1      -1.269  10.523  20.597  0.00  0.00    +0.000 C 
ATOM     11  C   UNL     1       0.768   9.330  21.466  0.00  0.00    +0.000 C 
ENDROOT
BRANCH   1  19
ATOM     12  C   UNL     1       0.729   4.107  20.429  0.00  0.00    +0.000 C 
ATOM     13  C   UNL     1       2.144   4.099  19.955  0.00  0.00    +0.000 A 
ATOM     14  C   UNL     1       2.835   2.916  19.794  0.00  0.00    +0.000 A 
ATOM     15  N   UNL     1       4.109   2.830  19.362  0.00  0.00    +0.000 NA
ATOM     16  C   UNL     1       4.723   3.979  19.052  0.00  0.00    +0.000 A 
ATOM     17  N   UNL     1       6.018   3.853  18.536  0.00  0.00    +0.000 N 
ATOM     18  N   UNL     1       4.142   5.174  19.177  0.00  0.00    +0.000 NA
ATOM     19  C   UNL     1       2.875   5.231  19.642  0.00  0.00    +0.000 A 
ATOM     20  H   UNL     1       6.231   2.865  18.495  0.00  0.00    +0.000 HD
BRANCH  17  21
ATOM     21  C   UNL     1       6.692   4.796  17.829  0.00  0.00    +0.000 A 
ATOM     22  C   UNL     1       7.413   5.910  18.204  0.00  0.00    +0.000 A 
ATOM     23  C   UNL     1       7.804   6.528  17.008  0.00  0.00    +0.000 A 
ATOM     24  N   UNL     1       7.410   5.845  15.933  0.00  0.00    +0.000 NA
ATOM     25  N   UNL     1       6.748   4.791  16.455  0.00  0.00    +0.000 N 
ATOM     26  C   UNL     1       6.157   3.830  15.553  0.00  0.00    +0.000 C 
ENDBRANCH  17  21
ENDBRANCH   1  19
BRANCH   8  27
ATOM     27  C   UNL     1       0.721  12.170  18.789  0.00  0.00    +0.000 C 
BRANCH  27  28
ATOM     28  C   UNL     1       1.883  13.091  19.081  0.00  0.00    +0.000 A 
ATOM     29  C   UNL     1       2.268  13.354  20.408  0.00  0.00    +0.000 A 
ATOM     30  C   UNL     1       3.318  14.233  20.686  0.00  0.00    +0.000 A 
ATOM     31  C   UNL     1       3.984  14.856  19.637  0.00  0.00    +0.000 A 
ATOM     32  F   UNL     1       4.977  15.715  19.905  0.00  0.00    +0.000 F 
ATOM     33  C   UNL     1       3.620  14.595  18.323  0.00  0.00    +0.000 A 
ATOM     34  F   UNL     1       4.266  15.191  17.311  0.00  0.00    +0.000 F 
ATOM     35  C   UNL     1       2.578  13.717  18.037  0.00  0.00    +0.000 A 
ENDBRANCH  27  28
ENDBRANCH   8  27
TORSDOF 4
ENDMDL
MODEL 6
REMARK VINA RESULT:      -9.7      3.133      4.225
REMARK  Name = 
REMARK  7 active torsions:
REMARK  status: ('A' for Active; 'I' for Inactive)
REMARK    1  A    between atoms: C_1  and  C_2
REMARK    2  A    between atoms: N_6  and  C_7
REMARK    3  A    between atoms: N_11  and  C_12
REMARK    4  A    between atoms: C_14  and  C_15
REMARK    5  A    between atoms: N_22  and  C_23
REMARK    6  A    between atoms: C_23  and  C_24
REMARK    7  A    between atoms: C_32  and  C_33
REMARK                            x       y       z     vdW  Elec       q    Type
REMARK                         _______ _______ _______ _____ _____    ______ ____
ROOT
ATOM      1  C   UNL     1       2.323   6.224  19.372  0.00  0.00    +0.000 A 
ATOM      2  C   UNL     1       2.003   6.731  20.619  0.00  0.00    +0.000 A 
ATOM      3  N   UNL     1       1.685   8.035  20.397  0.00  0.00    +0.000 N 
ATOM      4  C   UNL     1       1.822   8.300  19.066  0.00  0.00    +0.000 A 
ATOM      5  N   UNL     1       2.217   7.216  18.422  0.00  0.00    +0.000 NA
ATOM      6  C   UNL     1       1.592   9.598  18.468  0.00  0.00    +0.000 C 
ATOM      7  O   UNL     1       1.772   9.832  17.274  0.00  0.00    +0.000 OA
ATOM      8  N   UNL     1       1.165  10.600  19.356  0.00  0.00    +0.000 N 
ATOM      9  C   UNL     1       0.784  10.338  20.765  0.00  0.00    +0.000 C 
ATOM     10  C   UNL     1      -0.738  10.398  20.951  0.00  0.00    +0.000 C 
ATOM     11  C   UNL     1       1.327   9.027  21.377  0.00  0.00    +0.000 C 
ENDROOT
BRANCH   1  19
ATOM     12  C   UNL     1       0.756   3.854  20.437  0.00  0.00    +0.000 C 
ATOM     13  C   UNL     1       1.993   3.755  19.608  0.00  0.00    +0.000 A 
ATOM     14  C   UNL     1       2.534   2.530  19.279  0.00  0.00    +0.000 A 
ATOM     15  N   UNL     1       3.641   2.361  18.528  0.00  0.00    +0.000 NA
ATOM     16  C   UNL     1       4.229   3.469  18.060  0.00  0.00    +0.000 A 
ATOM     17  N   UNL     1       5.333   3.262  17.224  0.00  0.00    +0.000 N 
ATOM     18  N   UNL     1       3.786   4.700  18.326  0.00  0.00    +0.000 NA
ATOM     19  C   UNL     1       2.692   4.837  19.106  0.00  0.00    +0.000 A 
ATOM     20  H   UNL     1       5.458   2.262  17.135  0.00  0.00    +0.000 HD
BRANCH  17  21
ATOM     21  C   UNL     1       5.860   4.164  16.358  0.00  0.00    +0.000 A 
ATOM     22  C   UNL     1       5.565   4.490  15.051  0.00  0.00    +0.000 A 
ATOM     23  C   UNL     1       6.515   5.450  14.677  0.00  0.00    +0.000 A 
ATOM     24  N   UNL     1       7.341   5.763  15.676  0.00  0.00    +0.000 NA
ATOM     25  N   UNL     1       6.916   4.980  16.691  0.00  0.00    +0.000 N 
ATOM     26  C   UNL     1       7.613   5.047  17.954  0.00  0.00    +0.000 C 
ENDBRANCH  17  21
ENDBRANCH   1  19
BRANCH   8  27
ATOM     27  C   UNL     1       0.983  11.945  18.809  0.00  0.00    +0.000 C 
BRANCH  27  28
ATOM     28  C   UNL     1       2.116  12.871  19.184  0.00  0.00    +0.000 A 
ATOM     29  C   UNL     1       2.311  13.251  20.525  0.00  0.00    +0.000 A 
ATOM     30  C   UNL     1       3.333  14.137  20.874  0.00  0.00    +0.000 A 
ATOM     31  C   UNL     1       4.163  14.649  19.884  0.00  0.00    +0.000 A 
ATOM     32  F   UNL     1       5.130  15.515  20.217  0.00  0.00    +0.000 F 
ATOM     33  C   UNL     1       3.987  14.272  18.559  0.00  0.00    +0.000 A 
ATOM     34  F   UNL     1       4.790  14.761  17.604  0.00  0.00    +0.000 F 
ATOM     35  C   UNL     1       2.973  13.386  18.202  0.00  0.00    +0.000 A 
ENDBRANCH  27  28
ENDBRANCH   8  27
TORSDOF 4
ENDMDL
MODEL 7
REMARK VINA RESULT:      -9.7      1.525      2.053
REMARK  Name = 
REMARK  7 active torsions:
REMARK  status: ('A' for Active; 'I' for Inactive)
REMARK    1  A    between atoms: C_1  and  C_2
REMARK    2  A    between atoms: N_6  and  C_7
REMARK    3  A    between atoms: N_11  and  C_12
REMARK    4  A    between atoms: C_14  and  C_15
REMARK    5  A    between atoms: N_22  and  C_23
REMARK    6  A    between atoms: C_23  and  C_24
REMARK    7  A    between atoms: C_32  and  C_33
REMARK                            x       y       z     vdW  Elec       q    Type
REMARK                         _______ _______ _______ _____ _____    ______ ____
ROOT
ATOM      1  C   UNL     1       2.391   5.650  19.124  0.00  0.00    +0.000 A 
ATOM      2  C   UNL     1       2.219   6.045  20.439  0.00  0.00    +0.000 A 
ATOM      3  N   UNL     1       1.865   7.357  20.368  0.00  0.00    +0.000 N 
ATOM      4  C   UNL     1       1.838   7.736  19.058  0.00  0.00    +0.000 A 
ATOM      5  N   UNL     1       2.163   6.716  18.281  0.00  0.00    +0.000 NA
ATOM      6  C   UNL     1       1.527   9.074  18.605  0.00  0.00    +0.000 C 
ATOM      7  O   UNL     1       1.560   9.411  17.422  0.00  0.00    +0.000 OA
ATOM      8  N   UNL     1       1.202   9.990  19.619  0.00  0.00    +0.000 N 
ATOM      9  C   UNL     1       0.994   9.604  21.036  0.00  0.00    +0.000 C 
ATOM     10  C   UNL     1      -0.494   9.620  21.407  0.00  0.00    +0.000 C 
ATOM     11  C   UNL     1       1.619   8.257  21.465  0.00  0.00    +0.000 C 
ENDROOT
BRANCH   1  19
ATOM     12  C   UNL     1       0.767   3.203  19.885  0.00  0.00    +0.000 C 
ATOM     13  C   UNL     1       2.012   3.178  19.062  0.00  0.00    +0.000 A 
ATOM     14  C   UNL     1       2.534   1.990  18.596  0.00  0.00    +0.000 A 
ATOM     15  N   UNL     1       3.646   1.890  17.840  0.00  0.00    +0.000 NA
ATOM     16  C   UNL     1       4.260   3.034  17.512  0.00  0.00    +0.000 A 
ATOM     17  N   UNL     1       5.369   2.904  16.667  0.00  0.00    +0.000 N 
ATOM     18  N   UNL     1       3.837   4.233  17.918  0.00  0.00    +0.000 NA
ATOM     19  C   UNL     1       2.737   4.298  18.699  0.00  0.00    +0.000 A 
ATOM     20  H   UNL     1       5.477   1.920  16.462  0.00  0.00    +0.000 HD
BRANCH  17  21
ATOM     21  C   UNL     1       5.923   3.893  15.920  0.00  0.00    +0.000 A 
ATOM     22  C   UNL     1       5.678   4.348  14.642  0.00  0.00    +0.000 A 
ATOM     23  C   UNL     1       6.635   5.346  14.405  0.00  0.00    +0.000 A 
ATOM     24  N   UNL     1       7.415   5.560  15.465  0.00  0.00    +0.000 NA
ATOM     25  N   UNL     1       6.957   4.676  16.376  0.00  0.00    +0.000 N 
ATOM     26  C   UNL     1       7.601   4.618  17.668  0.00  0.00    +0.000 C 
ENDBRANCH  17  21
ENDBRANCH   1  19
BRANCH   8  27
ATOM     27  C   UNL     1       0.943  11.372  19.214  0.00  0.00    +0.000 C 
BRANCH  27  28
ATOM     28  C   UNL     1      -0.533  11.688  19.174  0.00  0.00    +0.000 A 
ATOM     29  C   UNL     1      -1.082  12.639  20.054  0.00  0.00    +0.000 A 
ATOM     30  C   UNL     1      -2.453  12.909  20.048  0.00  0.00    +0.000 A 
ATOM     31  C   UNL     1      -3.281  12.226  19.165  0.00  0.00    +0.000 A 
ATOM     32  F   UNL     1      -4.599  12.470  19.174  0.00  0.00    +0.000 F 
ATOM     33  C   UNL     1      -2.748  11.294  18.284  0.00  0.00    +0.000 A 
ATOM     34  F   UNL     1      -3.545  10.639  17.429  0.00  0.00    +0.000 F 
ATOM     35  C   UNL     1      -1.383  11.022  18.281  0.00  0.00    +0.000 A 
ENDBRANCH  27  28
ENDBRANCH   8  27
TORSDOF 4
ENDMDL
MODEL 8
REMARK VINA RESULT:      -9.7      1.561      1.987
REMARK  Name = 
REMARK  7 active torsions:
REMARK  status: ('A' for Active; 'I' for Inactive)
REMARK    1  A    between atoms: C_1  and  C_2
REMARK    2  A    between atoms: N_6  and  C_7
REMARK    3  A    between atoms: N_11  and  C_12
REMARK    4  A    between atoms: C_14  and  C_15
REMARK    5  A    between atoms: N_22  and  C_23
REMARK    6  A    between atoms: C_23  and  C_24
REMARK    7  A    between atoms: C_32  and  C_33
REMARK                            x       y       z     vdW  Elec       q    Type
REMARK                         _______ _______ _______ _____ _____    ______ ____
ROOT
ATOM      1  C   UNL     1       2.284   6.663  19.309  0.00  0.00    +0.000 A 
ATOM      2  C   UNL     1       1.963   7.419  18.197  0.00  0.00    +0.000 A 
ATOM      3  N   UNL     1       1.628   8.643  18.689  0.00  0.00    +0.000 N 
ATOM      4  C   UNL     1       1.734   8.614  20.048  0.00  0.00    +0.000 A 
ATOM      5  N   UNL     1       2.124   7.417  20.451  0.00  0.00    +0.000 NA
ATOM      6  C   UNL     1       1.430   9.735  20.911  0.00  0.00    +0.000 C 
ATOM      7  O   UNL     1       1.480   9.675  22.139  0.00  0.00    +0.000 OA
ATOM      8  N   UNL     1       1.042  10.913  20.250  0.00  0.00    +0.000 N 
ATOM      9  C   UNL     1       1.115  11.089  18.780  0.00  0.00    +0.000 C 
ATOM     10  C   UNL     1       2.288  11.995  18.383  0.00  0.00    +0.000 C 
ATOM     11  C   UNL     1       1.164   9.787  17.948  0.00  0.00    +0.000 C 
ENDROOT
BRANCH   1  19
ATOM     12  C   UNL     1       0.800   4.376  20.641  0.00  0.00    +0.000 C 
ATOM     13  C   UNL     1       2.085   4.238  19.895  0.00  0.00    +0.000 A 
ATOM     14  C   UNL     1       2.713   3.016  19.778  0.00  0.00    +0.000 A 
ATOM     15  N   UNL     1       3.868   2.813  19.113  0.00  0.00    +0.000 NA
ATOM     16  C   UNL     1       4.417   3.877  18.512  0.00  0.00    +0.000 A 
ATOM     17  N   UNL     1       5.575   3.622  17.769  0.00  0.00    +0.000 N 
ATOM     18  N   UNL     1       3.888   5.102  18.570  0.00  0.00    +0.000 NA
ATOM     19  C   UNL     1       2.747   5.279  19.270  0.00  0.00    +0.000 A 
ATOM     20  H   UNL     1       5.763   2.631  17.836  0.00  0.00    +0.000 HD
BRANCH  17  21
ATOM     21  C   UNL     1       6.097   4.421  16.803  0.00  0.00    +0.000 A 
ATOM     22  C   UNL     1       5.910   4.484  15.439  0.00  0.00    +0.000 A 
ATOM     23  C   UNL     1       6.792   5.473  14.981  0.00  0.00    +0.000 A 
ATOM     24  N   UNL     1       7.470   6.047  15.975  0.00  0.00    +0.000 NA
ATOM     25  N   UNL     1       7.023   5.402  17.073  0.00  0.00    +0.000 N 
ATOM     26  C   UNL     1       7.571   5.764  18.359  0.00  0.00    +0.000 C 
ENDBRANCH  17  21
ENDBRANCH   1  19
BRANCH   8  27
ATOM     27  C   UNL     1       0.661  12.053  21.085  0.00  0.00    +0.000 C 
BRANCH  27  28
ATOM     28  C   UNL     1      -0.836  12.155  21.262  0.00  0.00    +0.000 A 
ATOM     29  C   UNL     1      -1.664  12.457  20.166  0.00  0.00    +0.000 A 
ATOM     30  C   UNL     1      -3.045  12.589  20.330  0.00  0.00    +0.000 A 
ATOM     31  C   UNL     1      -3.603  12.423  21.591  0.00  0.00    +0.000 A 
ATOM     32  F   UNL     1      -4.925  12.570  21.752  0.00  0.00    +0.000 F 
ATOM     33  C   UNL     1      -2.796  12.113  22.679  0.00  0.00    +0.000 A 
ATOM     34  F   UNL     1      -3.334  11.948  23.895  0.00  0.00    +0.000 F 
ATOM     35  C   UNL     1      -1.419  11.976  22.523  0.00  0.00    +0.000 A 
ENDBRANCH  27  28
ENDBRANCH   8  27
TORSDOF 4
ENDMDL
MODEL 9
REMARK VINA RESULT:      -9.6      2.952      4.314
REMARK  Name = 
REMARK  7 active torsions:
REMARK  status: ('A' for Active; 'I' for Inactive)
REMARK    1  A    between atoms: C_1  and  C_2
REMARK    2  A    between atoms: N_6  and  C_7
REMARK    3  A    between atoms: N_11  and  C_12
REMARK    4  A    between atoms: C_14  and  C_15
REMARK    5  A    between atoms: N_22  and  C_23
REMARK    6  A    between atoms: C_23  and  C_24
REMARK    7  A    between atoms: C_32  and  C_33
REMARK                            x       y       z     vdW  Elec       q    Type
REMARK                         _______ _______ _______ _____ _____    ______ ____
ROOT
ATOM      1  C   UNL     1       2.358   6.559  19.770  0.00  0.00    +0.000 A 
ATOM      2  C   UNL     1       1.744   7.049  20.908  0.00  0.00    +0.000 A 
ATOM      3  N   UNL     1       1.379   8.321  20.591  0.00  0.00    +0.000 N 
ATOM      4  C   UNL     1       1.771   8.585  19.312  0.00  0.00    +0.000 A 
ATOM      5  N   UNL     1       2.378   7.531  18.793  0.00  0.00    +0.000 NA
ATOM      6  C   UNL     1       1.571   9.854  18.645  0.00  0.00    +0.000 C 
ATOM      7  O   UNL     1       1.980  10.091  17.510  0.00  0.00    +0.000 OA
ATOM      8  N   UNL     1       0.890  10.825  19.398  0.00  0.00    +0.000 N 
ATOM      9  C   UNL     1       0.242  10.545  20.701  0.00  0.00    +0.000 C 
ATOM     10  C   UNL     1      -1.285  10.482  20.563  0.00  0.00    +0.000 C 
ATOM     11  C   UNL     1       0.745   9.289  21.448  0.00  0.00    +0.000 C 
ENDROOT
BRANCH   1  19
ATOM     12  C   UNL     1       0.740   4.073  20.407  0.00  0.00    +0.000 C 
ATOM     13  C   UNL     1       2.155   4.071  19.934  0.00  0.00    +0.000 A 
ATOM     14  C   UNL     1       2.850   2.891  19.770  0.00  0.00    +0.000 A 
ATOM     15  N   UNL     1       4.124   2.809  19.338  0.00  0.00    +0.000 NA
ATOM     16  C   UNL     1       4.734   3.961  19.030  0.00  0.00    +0.000 A 
ATOM     17  N   UNL     1       6.031   3.841  18.515  0.00  0.00    +0.000 N 
ATOM     18  N   UNL     1       4.150   5.154  19.158  0.00  0.00    +0.000 NA
ATOM     19  C   UNL     1       2.883   5.205  19.623  0.00  0.00    +0.000 A 
ATOM     20  H   UNL     1       6.246   2.853  18.472  0.00  0.00    +0.000 HD
BRANCH  17  21
ATOM     21  C   UNL     1       6.701   4.787  17.810  0.00  0.00    +0.000 A 
ATOM     22  C   UNL     1       7.428   5.896  18.189  0.00  0.00    +0.000 A 
ATOM     23  C   UNL     1       7.811   6.523  16.995  0.00  0.00    +0.000 A 
ATOM     24  N   UNL     1       7.408   5.850  15.917  0.00  0.00    +0.000 NA
ATOM     25  N   UNL     1       6.747   4.793  16.435  0.00  0.00    +0.000 N 
ATOM     26  C   UNL     1       6.146   3.841  15.531  0.00  0.00    +0.000 C 
ENDBRANCH  17  21
ENDBRANCH   1  19
BRANCH   8  27
ATOM     27  C   UNL     1       0.723  12.146  18.789  0.00  0.00    +0.000 C 
BRANCH  27  28
ATOM     28  C   UNL     1       1.863  13.078  19.129  0.00  0.00    +0.000 A 
ATOM     29  C   UNL     1       2.673  13.612  18.111  0.00  0.00    +0.000 A 
ATOM     30  C   UNL     1       3.752  14.445  18.420  0.00  0.00    +0.000 A 
ATOM     31  C   UNL     1       4.026  14.744  19.749  0.00  0.00    +0.000 A 
ATOM     32  F   UNL     1       5.072  15.526  20.047  0.00  0.00    +0.000 F 
ATOM     33  C   UNL     1       3.224  14.231  20.762  0.00  0.00    +0.000 A 
ATOM     34  F   UNL     1       3.485  14.524  22.044  0.00  0.00    +0.000 F 
ATOM     35  C   UNL     1       2.145  13.404  20.462  0.00  0.00    +0.000 A 
ENDBRANCH  27  28
ENDBRANCH   8  27
TORSDOF 4
ENDMDL
