MODEL 1
REMARK VINA RESULT:      -9.5      0.000      0.000
REMARK  Name = 
REMARK  6 active torsions:
REMARK  status: ('A' for Active; 'I' for Inactive)
REMARK    1  A    between atoms: C_1  and  C_2
REMARK    2  A    between atoms: C_2  and  C_3
REMARK    3  A    between atoms: C_6  and  N_7
REMARK    4  A    between atoms: C_8  and  C_10
REMARK    5  A    between atoms: C_10  and  N_11
REMARK    6  A    between atoms: C_15  and  C_16
REMARK                            x       y       z     vdW  Elec       q    Type
REMARK                         _______ _______ _______ _____ _____    ______ ____
ROOT
ATOM      1  N   UNL     1       6.782   6.360  17.954  0.00  0.00    +0.000 N 
ATOM      2  C   UNL     1       6.190   5.714  19.041  0.00  0.00    +0.000 C 
ATOM      3  O   UNL     1       6.837   5.100  19.887  0.00  0.00    +0.000 OA
ATOM      4  C   UNL     1       4.681   5.785  19.054  0.00  0.00    +0.000 C 
ATOM      5  C   UNL     1       4.200   4.428  18.574  0.00  0.00    +0.000 C 
ATOM      6  S   UNL     1       4.032   4.502  16.823  0.00  0.00    +0.000 S 
ATOM      7  C   UNL     1       6.062   4.241  16.668  0.00  0.00    +0.000 A 
ATOM      8  C   UNL     1       6.036   3.270  15.638  0.00  0.00    +0.000 A 
ATOM      9  C   UNL     1       6.076   3.738  14.351  0.00  0.00    +0.000 A 
ATOM     10  C   UNL     1       6.336   5.115  14.189  0.00  0.00    +0.000 A 
ATOM     11  C   UNL     1       6.665   6.008  15.297  0.00  0.00    +0.000 A 
ATOM     12  C   UNL     1       6.621   5.562  16.626  0.00  0.00    +0.000 A 
ENDROOT
BRANCH   5  13
ATOM     13  C   UNL     1       3.167   3.722  19.381  0.00  0.00    +0.000 A 
ATOM     14  C   UNL     1       2.505   2.708  18.682  0.00  0.00    +0.000 A 
ATOM     15  C   UNL     1       1.322   2.168  19.182  0.00  0.00    +0.000 A 
ATOM     16  C   UNL     1       0.802   2.625  20.389  0.00  0.00    +0.000 A 
ATOM     17  C   UNL     1       1.471   3.625  21.107  0.00  0.00    +0.000 A 
ATOM     18  C   UNL     1       2.651   4.198  20.637  0.00  0.00    +0.000 A 
ENDBRANCH   5  13
BRANCH   1  19
ATOM     19  C   UNL     1       8.071   7.034  18.458  0.00  0.00    +0.000 C 
BRANCH  19  21
ATOM     20  N   UNL     1       9.233   9.384  19.277  0.00  0.00    +0.000 N 
ATOM     21  C   UNL     1       8.312   8.782  18.352  0.00  0.00    +0.000 C 
ATOM     22  O   UNL     1       7.725   9.436  17.485  0.00  0.00    +0.000 OA
ATOM     23  H   UNL     1       9.519   8.762  20.026  0.00  0.00    +0.000 HD
BRANCH  20  27
ATOM     24  C   UNL     1      10.728  13.515  20.152  0.00  0.00    +0.000 A 
ATOM     25  C   UNL     1      10.929  12.943  18.882  0.00  0.00    +0.000 A 
ATOM     26  C   UNL     1      10.453  11.596  18.549  0.00  0.00    +0.000 A 
ATOM     27  C   UNL     1       9.777  10.765  19.460  0.00  0.00    +0.000 A 
ATOM     28  C   UNL     1       9.611  11.364  20.730  0.00  0.00    +0.000 A 
ATOM     29  C   UNL     1      10.072  12.679  21.073  0.00  0.00    +0.000 A 
BRANCH  24  31
ATOM     30  C   UNL     1      10.201  15.960  21.144  0.00  0.00    +0.000 C 
ATOM     31  C   UNL     1      11.192  14.910  20.610  0.00  0.00    +0.000 C 
ENDBRANCH  24  31
ENDBRANCH  20  27
ENDBRANCH  19  21
ENDBRANCH   1  19
TORSDOF 5
ENDMDL
MODEL 2
REMARK VINA RESULT:      -9.4      0.636      1.429
REMARK  Name = 
REMARK  6 active torsions:
REMARK  status: ('A' for Active; 'I' for Inactive)
REMARK    1  A    between atoms: C_1  and  C_2
REMARK    2  A    between atoms: C_2  and  C_3
REMARK    3  A    between atoms: C_6  and  N_7
REMARK    4  A    between atoms: C_8  and  C_10
REMARK    5  A    between atoms: C_10  and  N_11
REMARK    6  A    between atoms: C_15  and  C_16
REMARK                            x       y       z     vdW  Elec       q    Type
REMARK                         _______ _______ _______ _____ _____    ______ ____
ROOT
ATOM      1  N   UNL     1       6.706   6.349  17.928  0.00  0.00    +0.000 N 
ATOM      2  C   UNL     1       6.032   5.774  19.006  0.00  0.00    +0.000 C 
ATOM      3  O   UNL     1       6.606   5.154  19.899  0.00  0.00    +0.000 OA
ATOM      4  C   UNL     1       4.531   5.929  18.950  0.00  0.00    +0.000 C 
ATOM      5  C   UNL     1       3.994   4.585  18.491  0.00  0.00    +0.000 C 
ATOM      6  S   UNL     1       3.906   4.610  16.732  0.00  0.00    +0.000 S 
ATOM      7  C   UNL     1       5.922   4.231  16.677  0.00  0.00    +0.000 A 
ATOM      8  C   UNL     1       5.885   3.229  15.678  0.00  0.00    +0.000 A 
ATOM      9  C   UNL     1       6.007   3.651  14.380  0.00  0.00    +0.000 A 
ATOM     10  C   UNL     1       6.353   5.006  14.187  0.00  0.00    +0.000 A 
ATOM     11  C   UNL     1       6.684   5.916  15.281  0.00  0.00    +0.000 A 
ATOM     12  C   UNL     1       6.558   5.517  16.619  0.00  0.00    +0.000 A 
ENDROOT
BRANCH   5  13
ATOM     13  C   UNL     1       2.889   3.966  19.272  0.00  0.00    +0.000 A 
ATOM     14  C   UNL     1       2.838   4.388  20.605  0.00  0.00    +0.000 A 
ATOM     15  C   UNL     1       2.074   3.687  21.534  0.00  0.00    +0.000 A 
ATOM     16  C   UNL     1       1.343   2.572  21.138  0.00  0.00    +0.000 A 
ATOM     17  C   UNL     1       1.370   2.155  19.800  0.00  0.00    +0.000 A 
ATOM     18  C   UNL     1       2.130   2.822  18.842  0.00  0.00    +0.000 A 
ENDBRANCH   5  13
BRANCH   1  19
ATOM     19  C   UNL     1       8.009   6.966  18.468  0.00  0.00    +0.000 C 
BRANCH  19  21
ATOM     20  N   UNL     1       9.121   9.323  19.336  0.00  0.00    +0.000 N 
ATOM     21  C   UNL     1       8.370   8.688  18.288  0.00  0.00    +0.000 C 
ATOM     22  O   UNL     1       8.009   9.293  17.275  0.00  0.00    +0.000 OA
ATOM     23  H   UNL     1       9.213   8.753  20.171  0.00  0.00    +0.000 HD
BRANCH  20  27
ATOM     24  C   UNL     1      10.935  13.413  19.563  0.00  0.00    +0.000 A 
ATOM     25  C   UNL     1      10.407  12.807  20.717  0.00  0.00    +0.000 A 
ATOM     26  C   UNL     1       9.807  11.469  20.692  0.00  0.00    +0.000 A 
ATOM     27  C   UNL     1       9.697  10.690  19.526  0.00  0.00    +0.000 A 
ATOM     28  C   UNL     1      10.220  11.338  18.383  0.00  0.00    +0.000 A 
ATOM     29  C   UNL     1      10.808  12.646  18.390  0.00  0.00    +0.000 A 
BRANCH  24  31
ATOM     30  C   UNL     1      11.663  15.579  18.143  0.00  0.00    +0.000 C 
ATOM     31  C   UNL     1      11.575  14.810  19.474  0.00  0.00    +0.000 C 
ENDBRANCH  24  31
ENDBRANCH  20  27
ENDBRANCH  19  21
ENDBRANCH   1  19
TORSDOF 5
ENDMDL
MODEL 3
REMARK VINA RESULT:      -9.3      0.785      1.041
REMARK  Name = 
REMARK  6 active torsions:
REMARK  status: ('A' for Active; 'I' for Inactive)
REMARK    1  A    between atoms: C_1  and  C_2
REMARK    2  A    between atoms: C_2  and  C_3
REMARK    3  A    between atoms: C_6  and  N_7
REMARK    4  A    between atoms: C_8  and  C_10
REMARK    5  A    between atoms: C_10  and  N_11
REMARK    6  A    between atoms: C_15  and  C_16
REMARK                            x       y       z     vdW  Elec       q    Type
REMARK                         _______ _______ _______ _____ _____    ______ ____
ROOT
ATOM      1  N   UNL     1       6.725   6.357  17.962  0.00  0.00    +0.000 N 
ATOM      2  C   UNL     1       6.099   5.710  19.028  0.00  0.00    +0.000 C 
ATOM      3  O   UNL     1       6.719   5.097  19.894  0.00  0.00    +0.000 OA
ATOM      4  C   UNL     1       4.591   5.779  18.992  0.00  0.00    +0.000 C 
ATOM      5  C   UNL     1       4.128   4.421  18.496  0.00  0.00    +0.000 C 
ATOM      6  S   UNL     1       4.017   4.496  16.740  0.00  0.00    +0.000 S 
ATOM      7  C   UNL     1       6.050   4.238  16.652  0.00  0.00    +0.000 A 
ATOM      8  C   UNL     1       6.060   3.267  15.621  0.00  0.00    +0.000 A 
ATOM      9  C   UNL     1       6.140   3.736  14.336  0.00  0.00    +0.000 A 
ATOM     10  C   UNL     1       6.404   5.114  14.183  0.00  0.00    +0.000 A 
ATOM     11  C   UNL     1       6.695   6.007  15.302  0.00  0.00    +0.000 A 
ATOM     12  C   UNL     1       6.609   5.560  16.628  0.00  0.00    +0.000 A 
ENDROOT
BRANCH   5  13
ATOM     13  C   UNL     1       3.070   3.713  19.269  0.00  0.00    +0.000 A 
ATOM     14  C   UNL     1       2.236   2.916  18.479  0.00  0.00    +0.000 A 
ATOM     15  C   UNL     1       1.031   2.440  18.989  0.00  0.00    +0.000 A 
ATOM     16  C   UNL     1       0.658   2.744  20.295  0.00  0.00    +0.000 A 
ATOM     17  C   UNL     1       1.498   3.523  21.101  0.00  0.00    +0.000 A 
ATOM     18  C   UNL     1       2.707   4.027  20.625  0.00  0.00    +0.000 A 
ENDBRANCH   5  13
BRANCH   1  19
ATOM     19  C   UNL     1       7.997   7.033  18.507  0.00  0.00    +0.000 C 
BRANCH  19  21
ATOM     20  N   UNL     1       9.136   9.436  19.192  0.00  0.00    +0.000 N 
ATOM     21  C   UNL     1       8.343   8.741  18.214  0.00  0.00    +0.000 C 
ATOM     22  O   UNL     1       7.937   9.288  17.185  0.00  0.00    +0.000 OA
ATOM     23  H   UNL     1       9.266   8.914  20.052  0.00  0.00    +0.000 HD
BRANCH  20  27
ATOM     24  C   UNL     1      10.673  13.644  19.174  0.00  0.00    +0.000 A 
ATOM     25  C   UNL     1      11.166  12.714  20.107  0.00  0.00    +0.000 A 
ATOM     26  C   UNL     1      10.696  11.325  20.148  0.00  0.00    +0.000 A 
ATOM     27  C   UNL     1       9.716  10.812  19.279  0.00  0.00    +0.000 A 
ATOM     28  C   UNL     1       9.230  11.779  18.369  0.00  0.00    +0.000 A 
ATOM     29  C   UNL     1       9.677  13.141  18.318  0.00  0.00    +0.000 A 
BRANCH  24  31
ATOM     30  C   UNL     1      10.480  16.047  17.979  0.00  0.00    +0.000 C 
ATOM     31  C   UNL     1      11.087  15.122  19.050  0.00  0.00    +0.000 C 
ENDBRANCH  24  31
ENDBRANCH  20  27
ENDBRANCH  19  21
ENDBRANCH   1  19
TORSDOF 5
ENDMDL
MODEL 4
REMARK VINA RESULT:      -9.1      5.561      8.673
REMARK  Name = 
REMARK  6 active torsions:
REMARK  status: ('A' for Active; 'I' for Inactive)
REMARK    1  A    between atoms: C_1  and  C_2
REMARK    2  A    between atoms: C_2  and  C_3
REMARK    3  A    between atoms: C_6  and  N_7
REMARK    4  A    between atoms: C_8  and  C_10
REMARK    5  A    between atoms: C_10  and  N_11
REMARK    6  A    between atoms: C_15  and  C_16
REMARK                            x       y       z     vdW  Elec       q    Type
REMARK                         _______ _______ _______ _____ _____    ______ ____
ROOT
ATOM      1  N   UNL     1       2.776   7.202  18.846  0.00  0.00    +0.000 N 
ATOM      2  C   UNL     1       3.481   7.199  17.642  0.00  0.00    +0.000 C 
ATOM      3  O   UNL     1       3.053   7.722  16.615  0.00  0.00    +0.000 OA
ATOM      4  C   UNL     1       4.790   6.447  17.696  0.00  0.00    +0.000 C 
ATOM      5  C   UNL     1       4.528   5.116  17.015  0.00  0.00    +0.000 C 
ATOM      6  S   UNL     1       4.001   3.972  18.246  0.00  0.00    +0.000 S 
ATOM      7  C   UNL     1       2.128   4.804  18.143  0.00  0.00    +0.000 A 
ATOM      8  C   UNL     1       1.398   3.592  18.115  0.00  0.00    +0.000 A 
ATOM      9  C   UNL     1       1.018   3.074  19.325  0.00  0.00    +0.000 A 
ATOM     10  C   UNL     1       1.218   3.898  20.453  0.00  0.00    +0.000 A 
ATOM     11  C   UNL     1       1.695   5.276  20.370  0.00  0.00    +0.000 A 
ATOM     12  C   UNL     1       2.102   5.830  19.148  0.00  0.00    +0.000 A 
ENDROOT
BRANCH   5  13
ATOM     13  C   UNL     1       5.476   4.669  15.956  0.00  0.00    +0.000 A 
ATOM     14  C   UNL     1       6.726   5.293  16.022  0.00  0.00    +0.000 A 
ATOM     15  C   UNL     1       7.604   5.220  14.945  0.00  0.00    +0.000 A 
ATOM     16  C   UNL     1       7.248   4.512  13.801  0.00  0.00    +0.000 A 
ATOM     17  C   UNL     1       6.007   3.865  13.735  0.00  0.00    +0.000 A 
ATOM     18  C   UNL     1       5.096   3.922  14.787  0.00  0.00    +0.000 A 
ENDBRANCH   5  13
BRANCH   1  19
ATOM     19  C   UNL     1       2.120   8.587  18.999  0.00  0.00    +0.000 C 
BRANCH  19  21
ATOM     20  N   UNL     1       0.355  10.187  20.366  0.00  0.00    +0.000 N 
ATOM     21  C   UNL     1       1.206   9.031  20.446  0.00  0.00    +0.000 C 
ATOM     22  O   UNL     1       1.286   8.340  21.465  0.00  0.00    +0.000 OA
ATOM     23  H   UNL     1       0.507  10.744  19.532  0.00  0.00    +0.000 HD
BRANCH  20  27
ATOM     24  C   UNL     1      -2.685  12.308  22.882  0.00  0.00    +0.000 A 
ATOM     25  C   UNL     1      -1.838  11.344  23.457  0.00  0.00    +0.000 A 
ATOM     26  C   UNL     1      -0.826  10.627  22.674  0.00  0.00    +0.000 A 
ATOM     27  C   UNL     1      -0.624  10.829  21.297  0.00  0.00    +0.000 A 
ATOM     28  C   UNL     1      -1.506  11.789  20.749  0.00  0.00    +0.000 A 
ATOM     29  C   UNL     1      -2.502  12.496  21.500  0.00  0.00    +0.000 A 
BRANCH  24  31
ATOM     30  C   UNL     1      -4.594  12.506  24.768  0.00  0.00    +0.000 C 
ATOM     31  C   UNL     1      -3.784  13.108  23.604  0.00  0.00    +0.000 C 
ENDBRANCH  24  31
ENDBRANCH  20  27
ENDBRANCH  19  21
ENDBRANCH   1  19
TORSDOF 5
ENDMDL
MODEL 5
REMARK VINA RESULT:      -8.5      6.963     10.547
REMARK  Name = 
REMARK  6 active torsions:
REMARK  status: ('A' for Active; 'I' for Inactive)
REMARK    1  A    between atoms: C_1  and  C_2
REMARK    2  A    between atoms: C_2  and  C_3
REMARK    3  A    between atoms: C_6  and  N_7
REMARK    4  A    between atoms: C_8  and  C_10
REMARK    5  A    between atoms: C_10  and  N_11
REMARK    6  A    between atoms: C_15  and  C_16
REMARK                            x       y       z     vdW  Elec       q    Type
REMARK                         _______ _______ _______ _____ _____    ______ ____
ROOT
ATOM      1  N   UNL     1       0.593  10.181  19.799  0.00  0.00    +0.000 N 
ATOM      2  C   UNL     1       1.037  11.346  20.426  0.00  0.00    +0.000 C 
ATOM      3  O   UNL     1       0.983  11.511  21.643  0.00  0.00    +0.000 OA
ATOM      4  C   UNL     1       1.535  12.408  19.475  0.00  0.00    +0.000 C 
ATOM      5  C   UNL     1       0.419  13.433  19.382  0.00  0.00    +0.000 C 
ATOM      6  S   UNL     1      -0.638  12.962  18.055  0.00  0.00    +0.000 S 
ATOM      7  C   UNL     1      -1.513  11.591  19.306  0.00  0.00    +0.000 A 
ATOM      8  C   UNL     1      -2.857  11.877  18.968  0.00  0.00    +0.000 A 
ATOM      9  C   UNL     1      -3.396  11.161  17.932  0.00  0.00    +0.000 A 
ATOM     10  C   UNL     1      -2.627  10.083  17.443  0.00  0.00    +0.000 A 
ATOM     11  C   UNL     1      -1.373   9.647  18.052  0.00  0.00    +0.000 A 
ATOM     12  C   UNL     1      -0.790  10.366  19.106  0.00  0.00    +0.000 A 
ENDROOT
BRANCH   5  13
ATOM     13  C   UNL     1       0.766  14.869  19.570  0.00  0.00    +0.000 A 
ATOM     14  C   UNL     1      -0.125  15.748  18.947  0.00  0.00    +0.000 A 
ATOM     15  C   UNL     1       0.218  17.086  18.768  0.00  0.00    +0.000 A 
ATOM     16  C   UNL     1       1.445  17.557  19.223  0.00  0.00    +0.000 A 
ATOM     17  C   UNL     1       2.335  16.689  19.869  0.00  0.00    +0.000 A 
ATOM     18  C   UNL     1       2.034  15.342  20.058  0.00  0.00    +0.000 A 
ENDBRANCH   5  13
BRANCH   1  19
ATOM     19  C   UNL     1       1.016   8.988  20.676  0.00  0.00    +0.000 C 
BRANCH  19  21
ATOM     20  N   UNL     1       2.545   7.757  18.755  0.00  0.00    +0.000 N 
ATOM     21  C   UNL     1       1.847   7.582  19.999  0.00  0.00    +0.000 C 
ATOM     22  O   UNL     1       1.841   6.508  20.607  0.00  0.00    +0.000 OA
ATOM     23  H   UNL     1       2.336   8.637  18.294  0.00  0.00    +0.000 HD
BRANCH  20  27
ATOM     24  C   UNL     1       5.000   4.858  16.381  0.00  0.00    +0.000 A 
ATOM     25  C   UNL     1       5.263   6.238  16.304  0.00  0.00    +0.000 A 
ATOM     26  C   UNL     1       4.488   7.223  17.065  0.00  0.00    +0.000 A 
ATOM     27  C   UNL     1       3.423   6.882  17.918  0.00  0.00    +0.000 A 
ATOM     28  C   UNL     1       3.175   5.490  17.955  0.00  0.00    +0.000 A 
ATOM     29  C   UNL     1       3.921   4.514  17.215  0.00  0.00    +0.000 A 
BRANCH  24  31
ATOM     30  C   UNL     1       6.173   3.910  14.153  0.00  0.00    +0.000 C 
ATOM     31  C   UNL     1       5.740   3.742  15.621  0.00  0.00    +0.000 C 
ENDBRANCH  24  31
ENDBRANCH  20  27
ENDBRANCH  19  21
ENDBRANCH   1  19
TORSDOF 5
ENDMDL
MODEL 6
REMARK VINA RESULT:      -8.5      7.153     10.556
REMARK  Name = 
REMARK  6 active torsions:
REMARK  status: ('A' for Active; 'I' for Inactive)
REMARK    1  A    between atoms: C_1  and  C_2
REMARK    2  A    between atoms: C_2  and  C_3
REMARK    3  A    between atoms: C_6  and  N_7
REMARK    4  A    between atoms: C_8  and  C_10
REMARK    5  A    between atoms: C_10  and  N_11
REMARK    6  A    between atoms: C_15  and  C_16
REMARK                            x       y       z     vdW  Elec       q    Type
REMARK                         _______ _______ _______ _____ _____    ______ ____
ROOT
ATOM      1  N   UNL     1       0.728  10.257  20.019  0.00  0.00    +0.000 N 
ATOM      2  C   UNL     1       0.903  11.426  20.762  0.00  0.00    +0.000 C 
ATOM      3  O   UNL     1       0.587  11.517  21.947  0.00  0.00    +0.000 OA
ATOM      4  C   UNL     1       1.458  12.585  19.969  0.00  0.00    +0.000 C 
ATOM      5  C   UNL     1       0.275  13.491  19.681  0.00  0.00    +0.000 C 
ATOM      6  S   UNL     1      -0.434  12.986  18.150  0.00  0.00    +0.000 S 
ATOM      7  C   UNL     1      -1.381  11.465  19.150  0.00  0.00    +0.000 A 
ATOM      8  C   UNL     1      -2.654  11.627  18.552  0.00  0.00    +0.000 A 
ATOM      9  C   UNL     1      -2.889  10.917  17.404  0.00  0.00    +0.000 A 
ATOM     10  C   UNL     1      -1.921   9.953  17.050  0.00  0.00    +0.000 A 
ATOM     11  C   UNL     1      -0.773   9.618  17.890  0.00  0.00    +0.000 A 
ATOM     12  C   UNL     1      -0.499  10.335  19.063  0.00  0.00    +0.000 A 
ENDROOT
BRANCH   5  13
ATOM     13  C   UNL     1       0.413  14.943  19.983  0.00  0.00    +0.000 A 
ATOM     14  C   UNL     1      -0.629  15.455  20.764  0.00  0.00    +0.000 A 
ATOM     15  C   UNL     1      -0.811  16.831  20.875  0.00  0.00    +0.000 A 
ATOM     16  C   UNL     1       0.052  17.704  20.221  0.00  0.00    +0.000 A 
ATOM     17  C   UNL     1       1.111  17.201  19.455  0.00  0.00    +0.000 A 
ATOM     18  C   UNL     1       1.322  15.831  19.310  0.00  0.00    +0.000 A 
ENDBRANCH   5  13
BRANCH   1  19
ATOM     19  C   UNL     1       1.099   9.068  20.925  0.00  0.00    +0.000 C 
BRANCH  19  21
ATOM     20  N   UNL     1       2.437   7.592  19.035  0.00  0.00    +0.000 N 
ATOM     21  C   UNL     1       1.690   7.540  20.262  0.00  0.00    +0.000 C 
ATOM     22  O   UNL     1       1.485   6.483  20.866  0.00  0.00    +0.000 OA
ATOM     23  H   UNL     1       2.394   8.494  18.573  0.00  0.00    +0.000 HD
BRANCH  20  27
ATOM     24  C   UNL     1       4.823   4.821  16.447  0.00  0.00    +0.000 A 
ATOM     25  C   UNL     1       3.785   4.320  17.253  0.00  0.00    +0.000 A 
ATOM     26  C   UNL     1       2.976   5.189  18.114  0.00  0.00    +0.000 A 
ATOM     27  C   UNL     1       3.170   6.578  18.216  0.00  0.00    +0.000 A 
ATOM     28  C   UNL     1       4.232   7.043  17.407  0.00  0.00    +0.000 A 
ATOM     29  C   UNL     1       5.035   6.207  16.562  0.00  0.00    +0.000 A 
BRANCH  24  31
ATOM     30  C   UNL     1       6.432   4.635  14.298  0.00  0.00    +0.000 C 
ATOM     31  C   UNL     1       5.738   4.002  15.519  0.00  0.00    +0.000 C 
ENDBRANCH  24  31
ENDBRANCH  20  27
ENDBRANCH  19  21
ENDBRANCH   1  19
TORSDOF 5
ENDMDL
MODEL 7
REMARK VINA RESULT:      -8.5      5.671      9.209
REMARK  Name = 
REMARK  6 active torsions:
REMARK  status: ('A' for Active; 'I' for Inactive)
REMARK    1  A    between atoms: C_1  and  C_2
REMARK    2  A    between atoms: C_2  and  C_3
REMARK    3  A    between atoms: C_6  and  N_7
REMARK    4  A    between atoms: C_8  and  C_10
REMARK    5  A    between atoms: C_10  and  N_11
REMARK    6  A    between atoms: C_15  and  C_16
REMARK                            x       y       z     vdW  Elec       q    Type
REMARK                         _______ _______ _______ _____ _____    ______ ____
ROOT
ATOM      1  N   UNL     1       3.013   7.284  19.020  0.00  0.00    +0.000 N 
ATOM      2  C   UNL     1       3.655   7.268  17.780  0.00  0.00    +0.000 C 
ATOM      3  O   UNL     1       3.231   7.879  16.802  0.00  0.00    +0.000 OA
ATOM      4  C   UNL     1       4.881   6.388  17.731  0.00  0.00    +0.000 C 
ATOM      5  C   UNL     1       4.452   5.123  17.010  0.00  0.00    +0.000 C 
ATOM      6  S   UNL     1       3.873   3.981  18.218  0.00  0.00    +0.000 S 
ATOM      7  C   UNL     1       2.091   4.999  18.252  0.00  0.00    +0.000 A 
ATOM      8  C   UNL     1       1.242   3.867  18.211  0.00  0.00    +0.000 A 
ATOM      9  C   UNL     1       0.871   3.333  19.417  0.00  0.00    +0.000 A 
ATOM     10  C   UNL     1       1.209   4.078  20.567  0.00  0.00    +0.000 A 
ATOM     11  C   UNL     1       1.819   5.404  20.516  0.00  0.00    +0.000 A 
ATOM     12  C   UNL     1       2.220   5.972  19.299  0.00  0.00    +0.000 A 
ENDROOT
BRANCH   5  13
ATOM     13  C   UNL     1       5.296   4.636  15.884  0.00  0.00    +0.000 A 
ATOM     14  C   UNL     1       6.587   5.173  15.876  0.00  0.00    +0.000 A 
ATOM     15  C   UNL     1       7.386   5.064  14.741  0.00  0.00    +0.000 A 
ATOM     16  C   UNL     1       6.909   4.404  13.613  0.00  0.00    +0.000 A 
ATOM     17  C   UNL     1       5.625   3.843  13.619  0.00  0.00    +0.000 A 
ATOM     18  C   UNL     1       4.790   3.940  14.731  0.00  0.00    +0.000 A 
ENDBRANCH   5  13
BRANCH   1  19
ATOM     19  C   UNL     1       2.510   8.718  19.267  0.00  0.00    +0.000 C 
BRANCH  19  21
ATOM     20  N   UNL     1       0.173   9.970  18.550  0.00  0.00    +0.000 N 
ATOM     21  C   UNL     1       0.795   9.079  19.491  0.00  0.00    +0.000 C 
ATOM     22  O   UNL     1       0.166   8.548  20.411  0.00  0.00    +0.000 OA
ATOM     23  H   UNL     1       0.836  10.450  17.949  0.00  0.00    +0.000 HD
BRANCH  20  27
ATOM     24  C   UNL     1      -4.036  11.184  17.613  0.00  0.00    +0.000 A 
ATOM     25  C   UNL     1      -3.352  11.774  18.692  0.00  0.00    +0.000 A 
ATOM     26  C   UNL     1      -1.972  11.410  19.033  0.00  0.00    +0.000 A 
ATOM     27  C   UNL     1      -1.227  10.447  18.331  0.00  0.00    +0.000 A 
ATOM     28  C   UNL     1      -1.952   9.862  17.267  0.00  0.00    +0.000 A 
ATOM     29  C   UNL     1      -3.302  10.204  16.921  0.00  0.00    +0.000 A 
BRANCH  24  31
ATOM     30  C   UNL     1      -6.664  11.380  18.155  0.00  0.00    +0.000 C 
ATOM     31  C   UNL     1      -5.481  11.481  17.174  0.00  0.00    +0.000 C 
ENDBRANCH  24  31
ENDBRANCH  20  27
ENDBRANCH  19  21
ENDBRANCH   1  19
TORSDOF 5
ENDMDL
MODEL 8
REMARK VINA RESULT:      -8.5      5.639      9.052
REMARK  Name = 
REMARK  6 active torsions:
REMARK  status: ('A' for Active; 'I' for Inactive)
REMARK    1  A    between atoms: C_1  and  C_2
REMARK    2  A    between atoms: C_2  and  C_3
REMARK    3  A    between atoms: C_6  and  N_7
REMARK    4  A    between atoms: C_8  and  C_10
REMARK    5  A    between atoms: C_10  and  N_11
REMARK    6  A    between atoms: C_15  and  C_16
REMARK                            x       y       z     vdW  Elec       q    Type
REMARK                         _______ _______ _______ _____ _____    ______ ____
ROOT
ATOM      1  N   UNL     1       2.860   6.963  19.514  0.00  0.00    +0.000 N 
ATOM      2  C   UNL     1       3.537   7.076  18.299  0.00  0.00    +0.000 C 
ATOM      3  O   UNL     1       3.141   7.788  17.378  0.00  0.00    +0.000 OA
ATOM      4  C   UNL     1       4.766   6.205  18.193  0.00  0.00    +0.000 C 
ATOM      5  C   UNL     1       4.361   5.024  17.330  0.00  0.00    +0.000 C 
ATOM      6  S   UNL     1       3.749   3.761  18.393  0.00  0.00    +0.000 S 
ATOM      7  C   UNL     1       1.965   4.772  18.483  0.00  0.00    +0.000 A 
ATOM      8  C   UNL     1       1.119   3.652  18.298  0.00  0.00    +0.000 A 
ATOM      9  C   UNL     1       0.715   2.994  19.430  0.00  0.00    +0.000 A 
ATOM     10  C   UNL     1       1.019   3.613  20.661  0.00  0.00    +0.000 A 
ATOM     11  C   UNL     1       1.627   4.937  20.769  0.00  0.00    +0.000 A 
ATOM     12  C   UNL     1       2.061   5.630  19.630  0.00  0.00    +0.000 A 
ENDROOT
BRANCH   5  13
ATOM     13  C   UNL     1       5.238   4.657  16.183  0.00  0.00    +0.000 A 
ATOM     14  C   UNL     1       6.567   5.059  16.343  0.00  0.00    +0.000 A 
ATOM     15  C   UNL     1       7.433   5.069  15.252  0.00  0.00    +0.000 A 
ATOM     16  C   UNL     1       6.983   4.662  14.001  0.00  0.00    +0.000 A 
ATOM     17  C   UNL     1       5.658   4.235  13.836  0.00  0.00    +0.000 A 
ATOM     18  C   UNL     1       4.758   4.221  14.899  0.00  0.00    +0.000 A 
ENDBRANCH   5  13
BRANCH   1  19
ATOM     19  C   UNL     1       2.348   8.363  19.896  0.00  0.00    +0.000 C 
BRANCH  19  21
ATOM     20  N   UNL     1       0.231   9.574  18.632  0.00  0.00    +0.000 N 
ATOM     21  C   UNL     1       0.639   8.797  19.771  0.00  0.00    +0.000 C 
ATOM     22  O   UNL     1      -0.163   8.408  20.624  0.00  0.00    +0.000 OA
ATOM     23  H   UNL     1       1.009   9.953  18.102  0.00  0.00    +0.000 HD
BRANCH  20  27
ATOM     24  C   UNL     1      -3.741  11.218  17.374  0.00  0.00    +0.000 A 
ATOM     25  C   UNL     1      -3.087  10.261  16.577  0.00  0.00    +0.000 A 
ATOM     26  C   UNL     1      -1.787   9.692  16.951  0.00  0.00    +0.000 A 
ATOM     27  C   UNL     1      -1.086  10.057  18.115  0.00  0.00    +0.000 A 
ATOM     28  C   UNL     1      -1.764  11.034  18.879  0.00  0.00    +0.000 A 
ATOM     29  C   UNL     1      -3.033  11.602  18.527  0.00  0.00    +0.000 A 
BRANCH  24  31
ATOM     30  C   UNL     1      -5.849  12.706  18.136  0.00  0.00    +0.000 C 
ATOM     31  C   UNL     1      -5.095  11.887  17.073  0.00  0.00    +0.000 C 
ENDBRANCH  24  31
ENDBRANCH  20  27
ENDBRANCH  19  21
ENDBRANCH   1  19
TORSDOF 5
ENDMDL
MODEL 9
REMARK VINA RESULT:      -8.4      5.502      8.925
REMARK  Name = 
REMARK  6 active torsions:
REMARK  status: ('A' for Active; 'I' for Inactive)
REMARK    1  A    between atoms: C_1  and  C_2
REMARK    2  A    between atoms: C_2  and  C_3
REMARK    3  A    between atoms: C_6  and  N_7
REMARK    4  A    between atoms: C_8  and  C_10
REMARK    5  A    between atoms: C_10  and  N_11
REMARK    6  A    between atoms: C_15  and  C_16
REMARK                            x       y       z     vdW  Elec       q    Type
REMARK                         _______ _______ _______ _____ _____    ______ ____
ROOT
ATOM      1  N   UNL     1       2.832   6.673  19.822  0.00  0.00    +0.000 N 
ATOM      2  C   UNL     1       3.511   7.050  18.662  0.00  0.00    +0.000 C 
ATOM      3  O   UNL     1       3.122   7.953  17.925  0.00  0.00    +0.000 OA
ATOM      4  C   UNL     1       4.731   6.213  18.361  0.00  0.00    +0.000 C 
ATOM      5  C   UNL     1       4.314   5.259  17.256  0.00  0.00    +0.000 C 
ATOM      6  S   UNL     1       3.690   3.796  18.011  0.00  0.00    +0.000 S 
ATOM      7  C   UNL     1       1.916   4.778  18.328  0.00  0.00    +0.000 A 
ATOM      8  C   UNL     1       1.060   3.736  17.899  0.00  0.00    +0.000 A 
ATOM      9  C   UNL     1       0.649   2.845  18.855  0.00  0.00    +0.000 A 
ATOM     10  C   UNL     1       0.958   3.170  20.194  0.00  0.00    +0.000 A 
ATOM     11  C   UNL     1       1.579   4.430  20.593  0.00  0.00    +0.000 A 
ATOM     12  C   UNL     1       2.021   5.356  19.638  0.00  0.00    +0.000 A 
ENDROOT
BRANCH   5  13
ATOM     13  C   UNL     1       5.188   5.150  16.055  0.00  0.00    +0.000 A 
ATOM     14  C   UNL     1       4.633   4.384  15.025  0.00  0.00    +0.000 A 
ATOM     15  C   UNL     1       5.432   3.935  13.977  0.00  0.00    +0.000 A 
ATOM     16  C   UNL     1       6.784   4.260  13.941  0.00  0.00    +0.000 A 
ATOM     17  C   UNL     1       7.343   5.046  14.956  0.00  0.00    +0.000 A 
ATOM     18  C   UNL     1       6.581   5.507  16.028  0.00  0.00    +0.000 A 
ENDBRANCH   5  13
BRANCH   1  19
ATOM     19  C   UNL     1       2.333   7.958  20.510  0.00  0.00    +0.000 C 
BRANCH  19  21
ATOM     20  N   UNL     1       0.398   9.512  19.334  0.00  0.00    +0.000 N 
ATOM     21  C   UNL     1       0.666   8.519  20.339  0.00  0.00    +0.000 C 
ATOM     22  O   UNL     1      -0.224   8.038  21.045  0.00  0.00    +0.000 OA
ATOM     23  H   UNL     1       1.237   9.927  18.941  0.00  0.00    +0.000 HD
BRANCH  20  27
ATOM     24  C   UNL     1      -3.306  11.247  17.508  0.00  0.00    +0.000 A 
ATOM     25  C   UNL     1      -2.790  11.779  18.704  0.00  0.00    +0.000 A 
ATOM     26  C   UNL     1      -1.579  11.245  19.336  0.00  0.00    +0.000 A 
ATOM     27  C   UNL     1      -0.844  10.165  18.816  0.00  0.00    +0.000 A 
ATOM     28  C   UNL     1      -1.403   9.644  17.626  0.00  0.00    +0.000 A 
ATOM     29  C   UNL     1      -2.587  10.152  16.997  0.00  0.00    +0.000 A 
BRANCH  24  31
ATOM     30  C   UNL     1      -5.942  11.784  17.464  0.00  0.00    +0.000 C 
ATOM     31  C   UNL     1      -4.571  11.720  16.768  0.00  0.00    +0.000 C 
ENDBRANCH  24  31
ENDBRANCH  20  27
ENDBRANCH  19  21
ENDBRANCH   1  19
TORSDOF 5
ENDMDL
