MODEL 1
REMARK VINA RESULT:      -7.8      0.000      0.000
REMARK  Name = 
REMARK  9 active torsions:
REMARK  status: ('A' for Active; 'I' for Inactive)
REMARK    1  A    between atoms: C_2  and  C_3
REMARK    2  A    between atoms: C_3  and  C_4
REMARK    3  A    between atoms: C_9  and  O_10
REMARK    4  A    between atoms: N_11  and  C_12
REMARK    5  A    between atoms: C_12  and  C_13
REMARK    6  A    between atoms: C_13  and  C_14
REMARK    7  A    between atoms: C_14  and  N_15
REMARK    8  A    between atoms: C_16  and  C_18
REMARK    9  A    between atoms: C_20  and  C_21
REMARK                            x       y       z     vdW  Elec       q    Type
REMARK                         _______ _______ _______ _____ _____    ______ ____
ROOT
ATOM      1  C   UNL     1       2.413   4.460  21.250  0.00  0.00    +0.000 C 
ENDROOT
BRANCH   1   2
ATOM      2  N   UNL     1       1.931   5.819  21.162  0.00  0.00    +0.000 N 
ATOM      3  C   UNL     1       2.219   6.639  20.092  0.00  0.00    +0.000 C 
ATOM      4  O   UNL     1       2.889   6.278  19.128  0.00  0.00    +0.000 OA
ATOM      5  H   UNL     1       1.295   6.183  21.866  0.00  0.00    +0.000 HD
BRANCH   3   6
ATOM      6  C   UNL     1       1.662   7.990  20.188  0.00  0.00    +0.000 A 
ATOM      7  C   UNL     1       1.101   8.598  21.336  0.00  0.00    +0.000 A 
ATOM      8  C   UNL     1       0.725   9.855  20.927  0.00  0.00    +0.000 A 
ATOM      9  O   UNL     1       1.036   9.985  19.604  0.00  0.00    +0.000 OA
ATOM     10  N   UNL     1       1.627   8.825  19.136  0.00  0.00    +0.000 NA
BRANCH   8  11
ATOM     11  C   UNL     1       0.131  11.015  21.579  0.00  0.00    +0.000 A 
ATOM     12  C   UNL     1       0.503  12.314  21.199  0.00  0.00    +0.000 A 
ATOM     13  C   UNL     1      -0.108  13.433  21.774  0.00  0.00    +0.000 A 
ATOM     14  C   UNL     1      -1.095  13.267  22.741  0.00  0.00    +0.000 A 
ATOM     15  C   UNL     1      -1.460  11.986  23.148  0.00  0.00    +0.000 A 
ATOM     16  C   UNL     1      -0.849  10.869  22.574  0.00  0.00    +0.000 A 
ENDBRANCH   8  11
ENDBRANCH   3   6
ENDBRANCH   1   2
BRANCH   1  17
ATOM     17  C   UNL     1       1.282   3.447  21.104  0.00  0.00    +0.000 C 
BRANCH  17  18
ATOM     18  C   UNL     1       1.089   3.049  19.643  0.00  0.00    +0.000 C 
BRANCH  18  21
ATOM     19  O   UNL     1       1.594   3.733  16.932  0.00  0.00    +0.000 OA
ATOM     20  C   UNL     1       2.509   3.283  17.619  0.00  0.00    +0.000 C 
ATOM     21  N   UNL     1       2.349   2.911  18.938  0.00  0.00    +0.000 N 
ATOM     22  H   UNL     1       3.188   2.699  19.469  0.00  0.00    +0.000 HD
BRANCH  20  23
ATOM     23  C   UNL     1       3.906   3.056  17.069  0.00  0.00    +0.000 C 
BRANCH  23  24
ATOM     24  C   UNL     1       4.837   4.221  17.293  0.00  0.00    +0.000 A 
ATOM     25  C   UNL     1       4.928   5.243  16.334  0.00  0.00    +0.000 A 
ATOM     26  C   UNL     1       5.789   6.325  16.524  0.00  0.00    +0.000 A 
ATOM     27  C   UNL     1       6.569   6.403  17.676  0.00  0.00    +0.000 A 
ATOM     28  C   UNL     1       6.487   5.399  18.641  0.00  0.00    +0.000 A 
ATOM     29  C   UNL     1       5.622   4.320  18.446  0.00  0.00    +0.000 A 
BRANCH  29  30
ATOM     30  O   UNL     1       5.534   3.334  19.390  0.00  0.00    +0.000 OA
ATOM     31  H   UNL     1       5.623   2.478  18.937  0.00  0.00    +0.000 HD
ENDBRANCH  29  30
ENDBRANCH  23  24
ENDBRANCH  20  23
ENDBRANCH  18  21
ENDBRANCH  17  18
ENDBRANCH   1  17
TORSDOF 9
ENDMDL
MODEL 2
REMARK VINA RESULT:      -7.8      5.147      7.543
REMARK  Name = 
REMARK  9 active torsions:
REMARK  status: ('A' for Active; 'I' for Inactive)
REMARK    1  A    between atoms: C_2  and  C_3
REMARK    2  A    between atoms: C_3  and  C_4
REMARK    3  A    between atoms: C_9  and  O_10
REMARK    4  A    between atoms: N_11  and  C_12
REMARK    5  A    between atoms: C_12  and  C_13
REMARK    6  A    between atoms: C_13  and  C_14
REMARK    7  A    between atoms: C_14  and  N_15
REMARK    8  A    between atoms: C_16  and  C_18
REMARK    9  A    between atoms: C_20  and  C_21
REMARK                            x       y       z     vdW  Elec       q    Type
REMARK                         _______ _______ _______ _____ _____    ______ ____
ROOT
ATOM      1  C   UNL     1       7.235   5.499  18.769  0.00  0.00    +0.000 C 
ENDROOT
BRANCH   1   2
ATOM      2  N   UNL     1       7.884   6.786  18.867  0.00  0.00    +0.000 N 
ATOM      3  C   UNL     1       7.611   7.822  18.000  0.00  0.00    +0.000 C 
ATOM      4  O   UNL     1       6.788   7.740  17.091  0.00  0.00    +0.000 OA
ATOM      5  H   UNL     1       8.515   6.983  19.640  0.00  0.00    +0.000 HD
BRANCH   3   6
ATOM      6  C   UNL     1       8.382   9.043  18.241  0.00  0.00    +0.000 A 
ATOM      7  C   UNL     1       8.405  10.206  17.436  0.00  0.00    +0.000 A 
ATOM      8  C   UNL     1       9.267  11.065  18.074  0.00  0.00    +0.000 A 
ATOM      9  O   UNL     1       9.741  10.443  19.193  0.00  0.00    +0.000 OA
ATOM     10  N   UNL     1       9.188   9.180  19.307  0.00  0.00    +0.000 NA
BRANCH   8  11
ATOM     11  C   UNL     1       9.727  12.428  17.835  0.00  0.00    +0.000 A 
ATOM     12  C   UNL     1       8.942  13.523  18.231  0.00  0.00    +0.000 A 
ATOM     13  C   UNL     1       9.403  14.832  18.064  0.00  0.00    +0.000 A 
ATOM     14  C   UNL     1      10.652  15.064  17.495  0.00  0.00    +0.000 A 
ATOM     15  C   UNL     1      11.434  13.992  17.076  0.00  0.00    +0.000 A 
ATOM     16  C   UNL     1      10.972  12.683  17.241  0.00  0.00    +0.000 A 
ENDBRANCH   8  11
ENDBRANCH   3   6
ENDBRANCH   1   2
BRANCH   1  17
ATOM     17  C   UNL     1       7.833   4.646  17.655  0.00  0.00    +0.000 C 
BRANCH  17  18
ATOM     18  C   UNL     1       6.863   4.517  16.484  0.00  0.00    +0.000 C 
BRANCH  18  21
ATOM     19  O   UNL     1       4.174   5.285  16.987  0.00  0.00    +0.000 OA
ATOM     20  C   UNL     1       4.472   4.093  16.998  0.00  0.00    +0.000 C 
ATOM     21  N   UNL     1       5.754   3.632  16.780  0.00  0.00    +0.000 N 
ATOM     22  H   UNL     1       5.876   2.632  16.653  0.00  0.00    +0.000 HD
BRANCH  20  23
ATOM     23  C   UNL     1       3.456   3.002  17.294  0.00  0.00    +0.000 C 
BRANCH  23  24
ATOM     24  C   UNL     1       2.860   3.096  18.676  0.00  0.00    +0.000 A 
ATOM     25  C   UNL     1       1.554   3.586  18.847  0.00  0.00    +0.000 A 
ATOM     26  C   UNL     1       0.991   3.684  20.120  0.00  0.00    +0.000 A 
ATOM     27  C   UNL     1       1.722   3.293  21.239  0.00  0.00    +0.000 A 
ATOM     28  C   UNL     1       3.018   2.800  21.087  0.00  0.00    +0.000 A 
ATOM     29  C   UNL     1       3.575   2.702  19.811  0.00  0.00    +0.000 A 
BRANCH  29  30
ATOM     30  O   UNL     1       4.844   2.215  19.654  0.00  0.00    +0.000 OA
ATOM     31  H   UNL     1       4.812   1.506  18.989  0.00  0.00    +0.000 HD
ENDBRANCH  29  30
ENDBRANCH  23  24
ENDBRANCH  20  23
ENDBRANCH  18  21
ENDBRANCH  17  18
ENDBRANCH   1  17
TORSDOF 9
ENDMDL
MODEL 3
REMARK VINA RESULT:      -7.6      4.715      7.320
REMARK  Name = 
REMARK  9 active torsions:
REMARK  status: ('A' for Active; 'I' for Inactive)
REMARK    1  A    between atoms: C_2  and  C_3
REMARK    2  A    between atoms: C_3  and  C_4
REMARK    3  A    between atoms: C_9  and  O_10
REMARK    4  A    between atoms: N_11  and  C_12
REMARK    5  A    between atoms: C_12  and  C_13
REMARK    6  A    between atoms: C_13  and  C_14
REMARK    7  A    between atoms: C_14  and  N_15
REMARK    8  A    between atoms: C_16  and  C_18
REMARK    9  A    between atoms: C_20  and  C_21
REMARK                            x       y       z     vdW  Elec       q    Type
REMARK                         _______ _______ _______ _____ _____    ______ ____
ROOT
ATOM      1  C   UNL     1       6.993   5.043  15.039  0.00  0.00    +0.000 C 
ENDROOT
BRANCH   1   2
ATOM      2  N   UNL     1       7.595   5.930  16.008  0.00  0.00    +0.000 N 
ATOM      3  C   UNL     1       6.895   6.952  16.613  0.00  0.00    +0.000 C 
ATOM      4  O   UNL     1       5.708   7.179  16.390  0.00  0.00    +0.000 OA
ATOM      5  H   UNL     1       8.547   5.770  16.326  0.00  0.00    +0.000 HD
BRANCH   3   6
ATOM      6  C   UNL     1       7.677   7.760  17.551  0.00  0.00    +0.000 A 
ATOM      7  C   UNL     1       7.964   9.141  17.447  0.00  0.00    +0.000 A 
ATOM      8  C   UNL     1       8.720   9.433  18.557  0.00  0.00    +0.000 A 
ATOM      9  O   UNL     1       8.883   8.285  19.278  0.00  0.00    +0.000 OA
ATOM     10  N   UNL     1       8.230   7.236  18.658  0.00  0.00    +0.000 NA
BRANCH   8  11
ATOM     11  C   UNL     1       9.317  10.644  19.107  0.00  0.00    +0.000 A 
ATOM     12  C   UNL     1       9.404  10.828  20.496  0.00  0.00    +0.000 A 
ATOM     13  C   UNL     1      10.033  11.956  21.031  0.00  0.00    +0.000 A 
ATOM     14  C   UNL     1      10.578  12.918  20.186  0.00  0.00    +0.000 A 
ATOM     15  C   UNL     1      10.481  12.763  18.805  0.00  0.00    +0.000 A 
ATOM     16  C   UNL     1       9.851  11.636  18.270  0.00  0.00    +0.000 A 
ENDBRANCH   8  11
ENDBRANCH   3   6
ENDBRANCH   1   2
BRANCH   1  17
ATOM     17  C   UNL     1       6.432   3.785  15.694  0.00  0.00    +0.000 C 
BRANCH  17  18
ATOM     18  C   UNL     1       4.937   3.928  15.964  0.00  0.00    +0.000 C 
BRANCH  18  21
ATOM     19  O   UNL     1       6.226   4.389  18.455  0.00  0.00    +0.000 OA
ATOM     20  C   UNL     1       5.230   3.668  18.416  0.00  0.00    +0.000 C 
ATOM     21  N   UNL     1       4.553   3.378  17.250  0.00  0.00    +0.000 N 
ATOM     22  H   UNL     1       3.658   2.906  17.334  0.00  0.00    +0.000 HD
BRANCH  20  23
ATOM     23  C   UNL     1       4.668   2.990  19.653  0.00  0.00    +0.000 C 
BRANCH  23  24
ATOM     24  C   UNL     1       3.186   3.208  19.836  0.00  0.00    +0.000 A 
ATOM     25  C   UNL     1       2.723   4.320  20.559  0.00  0.00    +0.000 A 
ATOM     26  C   UNL     1       1.356   4.533  20.743  0.00  0.00    +0.000 A 
ATOM     27  C   UNL     1       0.433   3.640  20.204  0.00  0.00    +0.000 A 
ATOM     28  C   UNL     1       0.875   2.534  19.479  0.00  0.00    +0.000 A 
ATOM     29  C   UNL     1       2.244   2.327  19.297  0.00  0.00    +0.000 A 
BRANCH  29  30
ATOM     30  O   UNL     1       2.684   1.246  18.583  0.00  0.00    +0.000 OA
ATOM     31  H   UNL     1       1.905   0.732  18.310  0.00  0.00    +0.000 HD
ENDBRANCH  29  30
ENDBRANCH  23  24
ENDBRANCH  20  23
ENDBRANCH  18  21
ENDBRANCH  17  18
ENDBRANCH   1  17
TORSDOF 9
ENDMDL
MODEL 4
REMARK VINA RESULT:      -7.6      6.570      9.904
REMARK  Name = 
REMARK  9 active torsions:
REMARK  status: ('A' for Active; 'I' for Inactive)
REMARK    1  A    between atoms: C_2  and  C_3
REMARK    2  A    between atoms: C_3  and  C_4
REMARK    3  A    between atoms: C_9  and  O_10
REMARK    4  A    between atoms: N_11  and  C_12
REMARK    5  A    between atoms: C_12  and  C_13
REMARK    6  A    between atoms: C_13  and  C_14
REMARK    7  A    between atoms: C_14  and  N_15
REMARK    8  A    between atoms: C_16  and  C_18
REMARK    9  A    between atoms: C_20  and  C_21
REMARK                            x       y       z     vdW  Elec       q    Type
REMARK                         _______ _______ _______ _____ _____    ______ ____
ROOT
ATOM      1  C   UNL     1       8.439   8.604  17.529  0.00  0.00    +0.000 C 
ENDROOT
BRANCH   1   2
ATOM      2  N   UNL     1       7.555   7.592  18.061  0.00  0.00    +0.000 N 
ATOM      3  C   UNL     1       7.186   6.477  17.340  0.00  0.00    +0.000 C 
ATOM      4  O   UNL     1       7.588   6.247  16.202  0.00  0.00    +0.000 OA
ATOM      5  H   UNL     1       7.239   7.646  19.026  0.00  0.00    +0.000 HD
BRANCH   3   6
ATOM      6  C   UNL     1       6.266   5.574  18.036  0.00  0.00    +0.000 A 
ATOM      7  C   UNL     1       4.853   5.594  17.981  0.00  0.00    +0.000 A 
ATOM      8  C   UNL     1       4.450   4.562  18.793  0.00  0.00    +0.000 A 
ATOM      9  O   UNL     1       5.563   3.965  19.312  0.00  0.00    +0.000 OA
ATOM     10  N   UNL     1       6.703   4.590  18.840  0.00  0.00    +0.000 NA
BRANCH   8  11
ATOM     11  C   UNL     1       3.162   3.986  19.165  0.00  0.00    +0.000 A 
ATOM     12  C   UNL     1       2.618   4.224  20.437  0.00  0.00    +0.000 A 
ATOM     13  C   UNL     1       1.356   3.730  20.780  0.00  0.00    +0.000 A 
ATOM     14  C   UNL     1       0.624   2.988  19.857  0.00  0.00    +0.000 A 
ATOM     15  C   UNL     1       1.158   2.723  18.599  0.00  0.00    +0.000 A 
ATOM     16  C   UNL     1       2.421   3.215  18.257  0.00  0.00    +0.000 A 
ENDBRANCH   8  11
ENDBRANCH   3   6
ENDBRANCH   1   2
BRANCH   1  17
ATOM     17  C   UNL     1       8.194   9.966  18.171  0.00  0.00    +0.000 C 
BRANCH  17  18
ATOM     18  C   UNL     1       9.231  10.255  19.253  0.00  0.00    +0.000 C 
BRANCH  18  21
ATOM     19  O   UNL     1      10.967  11.873  20.815  0.00  0.00    +0.000 OA
ATOM     20  C   UNL     1      11.133  11.813  19.598  0.00  0.00    +0.000 C 
ATOM     21  N   UNL     1      10.328  11.066  18.762  0.00  0.00    +0.000 N 
ATOM     22  H   UNL     1      10.632  10.952  17.801  0.00  0.00    +0.000 HD
BRANCH  20  23
ATOM     23  C   UNL     1      12.225  12.592  18.885  0.00  0.00    +0.000 C 
BRANCH  23  24
ATOM     24  C   UNL     1      11.856  14.028  18.610  0.00  0.00    +0.000 A 
ATOM     25  C   UNL     1      12.237  15.037  19.511  0.00  0.00    +0.000 A 
ATOM     26  C   UNL     1      11.898  16.370  19.274  0.00  0.00    +0.000 A 
ATOM     27  C   UNL     1      11.176  16.714  18.133  0.00  0.00    +0.000 A 
ATOM     28  C   UNL     1      10.794  15.726  17.227  0.00  0.00    +0.000 A 
ATOM     29  C   UNL     1      11.138  14.395  17.468  0.00  0.00    +0.000 A 
BRANCH  29  30
ATOM     30  O   UNL     1      10.770  13.420  16.580  0.00  0.00    +0.000 OA
ATOM     31  H   UNL     1      11.344  12.649  16.729  0.00  0.00    +0.000 HD
ENDBRANCH  29  30
ENDBRANCH  23  24
ENDBRANCH  20  23
ENDBRANCH  18  21
ENDBRANCH  17  18
ENDBRANCH   1  17
TORSDOF 9
ENDMDL
MODEL 5
REMARK VINA RESULT:      -7.2      6.535      9.834
REMARK  Name = 
REMARK  9 active torsions:
REMARK  status: ('A' for Active; 'I' for Inactive)
REMARK    1  A    between atoms: C_2  and  C_3
REMARK    2  A    between atoms: C_3  and  C_4
REMARK    3  A    between atoms: C_9  and  O_10
REMARK    4  A    between atoms: N_11  and  C_12
REMARK    5  A    between atoms: C_12  and  C_13
REMARK    6  A    between atoms: C_13  and  C_14
REMARK    7  A    between atoms: C_14  and  N_15
REMARK    8  A    between atoms: C_16  and  C_18
REMARK    9  A    between atoms: C_20  and  C_21
REMARK                            x       y       z     vdW  Elec       q    Type
REMARK                         _______ _______ _______ _____ _____    ______ ____
ROOT
ATOM      1  C   UNL     1       7.649   8.980  17.614  0.00  0.00    +0.000 C 
ENDROOT
BRANCH   1   2
ATOM      2  N   UNL     1       6.771   7.853  17.833  0.00  0.00    +0.000 N 
ATOM      3  C   UNL     1       6.861   6.689  17.101  0.00  0.00    +0.000 C 
ATOM      4  O   UNL     1       7.700   6.511  16.221  0.00  0.00    +0.000 OA
ATOM      5  H   UNL     1       6.101   7.869  18.599  0.00  0.00    +0.000 HD
BRANCH   3   6
ATOM      6  C   UNL     1       5.873   5.667  17.451  0.00  0.00    +0.000 A 
ATOM      7  C   UNL     1       4.735   5.833  18.275  0.00  0.00    +0.000 A 
ATOM      8  C   UNL     1       4.128   4.600  18.298  0.00  0.00    +0.000 A 
ATOM      9  O   UNL     1       4.870   3.743  17.536  0.00  0.00    +0.000 OA
ATOM     10  N   UNL     1       5.960   4.404  16.999  0.00  0.00    +0.000 NA
BRANCH   8  11
ATOM     11  C   UNL     1       2.915   4.060  18.901  0.00  0.00    +0.000 A 
ATOM     12  C   UNL     1       1.976   3.371  18.117  0.00  0.00    +0.000 A 
ATOM     13  C   UNL     1       0.843   2.795  18.698  0.00  0.00    +0.000 A 
ATOM     14  C   UNL     1       0.630   2.905  20.069  0.00  0.00    +0.000 A 
ATOM     15  C   UNL     1       1.538   3.605  20.859  0.00  0.00    +0.000 A 
ATOM     16  C   UNL     1       2.671   4.182  20.277  0.00  0.00    +0.000 A 
ENDBRANCH   8  11
ENDBRANCH   3   6
ENDBRANCH   1   2
BRANCH   1  17
ATOM     17  C   UNL     1       8.884   8.918  18.508  0.00  0.00    +0.000 C 
BRANCH  17  18
ATOM     18  C   UNL     1       9.110  10.248  19.221  0.00  0.00    +0.000 C 
BRANCH  18  21
ATOM     19  O   UNL     1       9.009  12.475  17.459  0.00  0.00    +0.000 OA
ATOM     20  C   UNL     1      10.101  12.060  17.843  0.00  0.00    +0.000 C 
ATOM     21  N   UNL     1      10.244  10.976  18.685  0.00  0.00    +0.000 N 
ATOM     22  H   UNL     1      11.166  10.803  19.071  0.00  0.00    +0.000 HD
BRANCH  20  23
ATOM     23  C   UNL     1      11.412  12.681  17.393  0.00  0.00    +0.000 C 
BRANCH  23  24
ATOM     24  C   UNL     1      11.647  14.060  17.957  0.00  0.00    +0.000 A 
ATOM     25  C   UNL     1      12.116  14.212  19.272  0.00  0.00    +0.000 A 
ATOM     26  C   UNL     1      12.333  15.481  19.810  0.00  0.00    +0.000 A 
ATOM     27  C   UNL     1      12.087  16.616  19.041  0.00  0.00    +0.000 A 
ATOM     28  C   UNL     1      11.626  16.484  17.732  0.00  0.00    +0.000 A 
ATOM     29  C   UNL     1      11.413  15.211  17.198  0.00  0.00    +0.000 A 
BRANCH  29  30
ATOM     30  O   UNL     1      10.965  15.074  15.913  0.00  0.00    +0.000 OA
ATOM     31  H   UNL     1      11.206  14.183  15.607  0.00  0.00    +0.000 HD
ENDBRANCH  29  30
ENDBRANCH  23  24
ENDBRANCH  20  23
ENDBRANCH  18  21
ENDBRANCH  17  18
ENDBRANCH   1  17
TORSDOF 9
ENDMDL
MODEL 6
REMARK VINA RESULT:      -7.1      6.142      9.760
REMARK  Name = 
REMARK  9 active torsions:
REMARK  status: ('A' for Active; 'I' for Inactive)
REMARK    1  A    between atoms: C_2  and  C_3
REMARK    2  A    between atoms: C_3  and  C_4
REMARK    3  A    between atoms: C_9  and  O_10
REMARK    4  A    between atoms: N_11  and  C_12
REMARK    5  A    between atoms: C_12  and  C_13
REMARK    6  A    between atoms: C_13  and  C_14
REMARK    7  A    between atoms: C_14  and  N_15
REMARK    8  A    between atoms: C_16  and  C_18
REMARK    9  A    between atoms: C_20  and  C_21
REMARK                            x       y       z     vdW  Elec       q    Type
REMARK                         _______ _______ _______ _____ _____    ______ ____
ROOT
ATOM      1  C   UNL     1       8.265   8.705  17.568  0.00  0.00    +0.000 C 
ENDROOT
BRANCH   1   2
ATOM      2  N   UNL     1       7.389   7.665  18.054  0.00  0.00    +0.000 N 
ATOM      3  C   UNL     1       7.092   6.540  17.315  0.00  0.00    +0.000 C 
ATOM      4  O   UNL     1       7.558   6.325  16.199  0.00  0.00    +0.000 OA
ATOM      5  H   UNL     1       7.023   7.706  19.002  0.00  0.00    +0.000 HD
BRANCH   3   6
ATOM      6  C   UNL     1       6.168   5.606  17.964  0.00  0.00    +0.000 A 
ATOM      7  C   UNL     1       4.757   5.697  18.001  0.00  0.00    +0.000 A 
ATOM      8  C   UNL     1       4.348   4.598  18.717  0.00  0.00    +0.000 A 
ATOM      9  O   UNL     1       5.456   3.897  19.096  0.00  0.00    +0.000 OA
ATOM     10  N   UNL     1       6.598   4.518  18.624  0.00  0.00    +0.000 NA
BRANCH   8  11
ATOM     11  C   UNL     1       3.055   4.044  19.104  0.00  0.00    +0.000 A 
ATOM     12  C   UNL     1       2.362   3.183  18.239  0.00  0.00    +0.000 A 
ATOM     13  C   UNL     1       1.154   2.596  18.627  0.00  0.00    +0.000 A 
ATOM     14  C   UNL     1       0.621   2.867  19.884  0.00  0.00    +0.000 A 
ATOM     15  C   UNL     1       1.283   3.737  20.746  0.00  0.00    +0.000 A 
ATOM     16  C   UNL     1       2.490   4.324  20.357  0.00  0.00    +0.000 A 
ENDBRANCH   8  11
ENDBRANCH   3   6
ENDBRANCH   1   2
BRANCH   1  17
ATOM     17  C   UNL     1       8.775   9.592  18.699  0.00  0.00    +0.000 C 
BRANCH  17  18
ATOM     18  C   UNL     1       9.337  10.903  18.156  0.00  0.00    +0.000 C 
BRANCH  18  21
ATOM     19  O   UNL     1       9.903  13.687  18.130  0.00  0.00    +0.000 OA
ATOM     20  C   UNL     1      10.297  13.002  19.072  0.00  0.00    +0.000 C 
ATOM     21  N   UNL     1      10.081  11.642  19.158  0.00  0.00    +0.000 N 
ATOM     22  H   UNL     1      10.303  11.188  20.039  0.00  0.00    +0.000 HD
BRANCH  20  23
ATOM     23  C   UNL     1      11.099  13.583  20.223  0.00  0.00    +0.000 C 
BRANCH  23  24
ATOM     24  C   UNL     1      10.242  14.171  21.316  0.00  0.00    +0.000 A 
ATOM     25  C   UNL     1      10.168  15.564  21.480  0.00  0.00    +0.000 A 
ATOM     26  C   UNL     1       9.384  16.123  22.490  0.00  0.00    +0.000 A 
ATOM     27  C   UNL     1       8.661  15.298  23.349  0.00  0.00    +0.000 A 
ATOM     28  C   UNL     1       8.719  13.913  23.198  0.00  0.00    +0.000 A 
ATOM     29  C   UNL     1       9.503  13.360  22.184  0.00  0.00    +0.000 A 
BRANCH  29  30
ATOM     30  O   UNL     1       9.562  12.002  22.027  0.00  0.00    +0.000 OA
ATOM     31  H   UNL     1       9.108  11.778  21.196  0.00  0.00    +0.000 HD
ENDBRANCH  29  30
ENDBRANCH  23  24
ENDBRANCH  20  23
ENDBRANCH  18  21
ENDBRANCH  17  18
ENDBRANCH   1  17
TORSDOF 9
ENDMDL
MODEL 7
REMARK VINA RESULT:      -7.1      5.225      7.437
REMARK  Name = 
REMARK  9 active torsions:
REMARK  status: ('A' for Active; 'I' for Inactive)
REMARK    1  A    between atoms: C_2  and  C_3
REMARK    2  A    between atoms: C_3  and  C_4
REMARK    3  A    between atoms: C_9  and  O_10
REMARK    4  A    between atoms: N_11  and  C_12
REMARK    5  A    between atoms: C_12  and  C_13
REMARK    6  A    between atoms: C_13  and  C_14
REMARK    7  A    between atoms: C_14  and  N_15
REMARK    8  A    between atoms: C_16  and  C_18
REMARK    9  A    between atoms: C_20  and  C_21
REMARK                            x       y       z     vdW  Elec       q    Type
REMARK                         _______ _______ _______ _____ _____    ______ ____
ROOT
ATOM      1  C   UNL     1       7.976   5.774  18.678  0.00  0.00    +0.000 C 
ENDROOT
BRANCH   1   2
ATOM      2  N   UNL     1       8.363   7.147  18.907  0.00  0.00    +0.000 N 
ATOM      3  C   UNL     1       8.117   8.149  17.993  0.00  0.00    +0.000 C 
ATOM      4  O   UNL     1       7.539   7.959  16.925  0.00  0.00    +0.000 OA
ATOM      5  H   UNL     1       8.767   7.423  19.798  0.00  0.00    +0.000 HD
BRANCH   3   6
ATOM      6  C   UNL     1       8.601   9.473  18.389  0.00  0.00    +0.000 A 
ATOM      7  C   UNL     1       8.534  10.664  17.629  0.00  0.00    +0.000 A 
ATOM      8  C   UNL     1       9.112  11.626  18.422  0.00  0.00    +0.000 A 
ATOM      9  O   UNL     1       9.511  11.038  19.587  0.00  0.00    +0.000 OA
ATOM     10  N   UNL     1       9.190   9.692  19.577  0.00  0.00    +0.000 NA
BRANCH   8  11
ATOM     11  C   UNL     1       9.343  13.061  18.297  0.00  0.00    +0.000 A 
ATOM     12  C   UNL     1      10.490  13.544  17.648  0.00  0.00    +0.000 A 
ATOM     13  C   UNL     1      10.687  14.916  17.468  0.00  0.00    +0.000 A 
ATOM     14  C   UNL     1       9.743  15.823  17.940  0.00  0.00    +0.000 A 
ATOM     15  C   UNL     1       8.611  15.364  18.607  0.00  0.00    +0.000 A 
ATOM     16  C   UNL     1       8.414  13.992  18.788  0.00  0.00    +0.000 A 
ENDBRANCH   8  11
ENDBRANCH   3   6
ENDBRANCH   1   2
BRANCH   1  17
ATOM     17  C   UNL     1       6.477   5.567  18.874  0.00  0.00    +0.000 C 
BRANCH  17  18
ATOM     18  C   UNL     1       5.805   5.160  17.566  0.00  0.00    +0.000 C 
BRANCH  18  21
ATOM     19  O   UNL     1       3.690   7.055  17.680  0.00  0.00    +0.000 OA
ATOM     20  C   UNL     1       3.430   5.856  17.767  0.00  0.00    +0.000 C 
ATOM     21  N   UNL     1       4.394   4.870  17.737  0.00  0.00    +0.000 N 
ATOM     22  H   UNL     1       4.078   3.909  17.658  0.00  0.00    +0.000 HD
BRANCH  20  23
ATOM     23  C   UNL     1       2.013   5.342  17.956  0.00  0.00    +0.000 C 
BRANCH  23  24
ATOM     24  C   UNL     1       1.867   4.400  19.126  0.00  0.00    +0.000 A 
ATOM     25  C   UNL     1       1.424   3.084  18.918  0.00  0.00    +0.000 A 
ATOM     26  C   UNL     1       1.278   2.203  19.990  0.00  0.00    +0.000 A 
ATOM     27  C   UNL     1       1.576   2.624  21.285  0.00  0.00    +0.000 A 
ATOM     28  C   UNL     1       2.022   3.926  21.508  0.00  0.00    +0.000 A 
ATOM     29  C   UNL     1       2.168   4.802  20.431  0.00  0.00    +0.000 A 
BRANCH  29  30
ATOM     30  O   UNL     1       2.609   6.080  20.642  0.00  0.00    +0.000 OA
ATOM     31  H   UNL     1       2.019   6.495  21.294  0.00  0.00    +0.000 HD
ENDBRANCH  29  30
ENDBRANCH  23  24
ENDBRANCH  20  23
ENDBRANCH  18  21
ENDBRANCH  17  18
ENDBRANCH   1  17
TORSDOF 9
ENDMDL
MODEL 8
REMARK VINA RESULT:      -7.1      1.657      1.838
REMARK  Name = 
REMARK  9 active torsions:
REMARK  status: ('A' for Active; 'I' for Inactive)
REMARK    1  A    between atoms: C_2  and  C_3
REMARK    2  A    between atoms: C_3  and  C_4
REMARK    3  A    between atoms: C_9  and  O_10
REMARK    4  A    between atoms: N_11  and  C_12
REMARK    5  A    between atoms: C_12  and  C_13
REMARK    6  A    between atoms: C_13  and  C_14
REMARK    7  A    between atoms: C_14  and  N_15
REMARK    8  A    between atoms: C_16  and  C_18
REMARK    9  A    between atoms: C_20  and  C_21
REMARK                            x       y       z     vdW  Elec       q    Type
REMARK                         _______ _______ _______ _____ _____    ______ ____
ROOT
ATOM      1  C   UNL     1       1.804   4.228  20.946  0.00  0.00    +0.000 C 
ENDROOT
BRANCH   1   2
ATOM      2  N   UNL     1       1.474   5.634  20.941  0.00  0.00    +0.000 N 
ATOM      3  C   UNL     1       2.111   6.542  20.123  0.00  0.00    +0.000 C 
ATOM      4  O   UNL     1       2.993   6.229  19.328  0.00  0.00    +0.000 OA
ATOM      5  H   UNL     1       0.696   5.979  21.499  0.00  0.00    +0.000 HD
BRANCH   3   6
ATOM      6  C   UNL     1       1.657   7.927  20.273  0.00  0.00    +0.000 A 
ATOM      7  C   UNL     1       1.482   8.879  19.242  0.00  0.00    +0.000 A 
ATOM      8  C   UNL     1       1.045  10.017  19.877  0.00  0.00    +0.000 A 
ATOM      9  O   UNL     1       0.974   9.759  21.216  0.00  0.00    +0.000 OA
ATOM     10  N   UNL     1       1.350   8.453  21.471  0.00  0.00    +0.000 NA
BRANCH   8  11
ATOM     11  C   UNL     1       0.636  11.347  19.442  0.00  0.00    +0.000 A 
ATOM     12  C   UNL     1       1.453  12.461  19.695  0.00  0.00    +0.000 A 
ATOM     13  C   UNL     1       1.100  13.729  19.225  0.00  0.00    +0.000 A 
ATOM     14  C   UNL     1      -0.077  13.902  18.501  0.00  0.00    +0.000 A 
ATOM     15  C   UNL     1      -0.910  12.813  18.262  0.00  0.00    +0.000 A 
ATOM     16  C   UNL     1      -0.558  11.545  18.732  0.00  0.00    +0.000 A 
ENDBRANCH   8  11
ENDBRANCH   3   6
ENDBRANCH   1   2
BRANCH   1  17
ATOM     17  C   UNL     1       0.954   3.442  19.952  0.00  0.00    +0.000 C 
BRANCH  17  18
ATOM     18  C   UNL     1       1.617   2.115  19.594  0.00  0.00    +0.000 C 
BRANCH  18  21
ATOM     19  O   UNL     1       1.725   3.597  17.172  0.00  0.00    +0.000 OA
ATOM     20  C   UNL     1       2.741   3.042  17.584  0.00  0.00    +0.000 C 
ATOM     21  N   UNL     1       2.776   2.290  18.740  0.00  0.00    +0.000 N 
ATOM     22  H   UNL     1       3.687   2.001  19.083  0.00  0.00    +0.000 HD
BRANCH  20  23
ATOM     23  C   UNL     1       4.061   3.097  16.833  0.00  0.00    +0.000 C 
BRANCH  23  24
ATOM     24  C   UNL     1       4.888   4.315  17.163  0.00  0.00    +0.000 A 
ATOM     25  C   UNL     1       4.906   5.412  16.286  0.00  0.00    +0.000 A 
ATOM     26  C   UNL     1       5.671   6.543  16.574  0.00  0.00    +0.000 A 
ATOM     27  C   UNL     1       6.427   6.596  17.743  0.00  0.00    +0.000 A 
ATOM     28  C   UNL     1       6.417   5.517  18.627  0.00  0.00    +0.000 A 
ATOM     29  C   UNL     1       5.648   4.389  18.335  0.00  0.00    +0.000 A 
BRANCH  29  30
ATOM     30  O   UNL     1       5.630   3.329  19.200  0.00  0.00    +0.000 OA
ATOM     31  H   UNL     1       6.080   3.604  20.017  0.00  0.00    +0.000 HD
ENDBRANCH  29  30
ENDBRANCH  23  24
ENDBRANCH  20  23
ENDBRANCH  18  21
ENDBRANCH  17  18
ENDBRANCH   1  17
TORSDOF 9
ENDMDL
MODEL 9
REMARK VINA RESULT:      -7.1      1.772      3.922
REMARK  Name = 
REMARK  9 active torsions:
REMARK  status: ('A' for Active; 'I' for Inactive)
REMARK    1  A    between atoms: C_2  and  C_3
REMARK    2  A    between atoms: C_3  and  C_4
REMARK    3  A    between atoms: C_9  and  O_10
REMARK    4  A    between atoms: N_11  and  C_12
REMARK    5  A    between atoms: C_12  and  C_13
REMARK    6  A    between atoms: C_13  and  C_14
REMARK    7  A    between atoms: C_14  and  N_15
REMARK    8  A    between atoms: C_16  and  C_18
REMARK    9  A    between atoms: C_20  and  C_21
REMARK                            x       y       z     vdW  Elec       q    Type
REMARK                         _______ _______ _______ _____ _____    ______ ____
ROOT
ATOM      1  C   UNL     1       5.298   6.782  17.171  0.00  0.00    +0.000 C 
ENDROOT
BRANCH   1   2
ATOM      2  N   UNL     1       4.216   7.675  17.520  0.00  0.00    +0.000 N 
ATOM      3  C   UNL     1       3.125   7.266  18.255  0.00  0.00    +0.000 C 
ATOM      4  O   UNL     1       2.992   6.122  18.683  0.00  0.00    +0.000 OA
ATOM      5  H   UNL     1       4.275   8.664  17.289  0.00  0.00    +0.000 HD
BRANCH   3   6
ATOM      6  C   UNL     1       2.120   8.305  18.491  0.00  0.00    +0.000 A 
ATOM      7  C   UNL     1       1.578   8.693  19.739  0.00  0.00    +0.000 A 
ATOM      8  C   UNL     1       0.686   9.696  19.444  0.00  0.00    +0.000 A 
ATOM      9  O   UNL     1       0.689   9.887  18.092  0.00  0.00    +0.000 OA
ATOM     10  N   UNL     1       1.587   9.025  17.490  0.00  0.00    +0.000 NA
BRANCH   8  11
ATOM     11  C   UNL     1      -0.184  10.565  20.228  0.00  0.00    +0.000 A 
ATOM     12  C   UNL     1      -1.095  11.422  19.592  0.00  0.00    +0.000 A 
ATOM     13  C   UNL     1      -1.976  12.211  20.336  0.00  0.00    +0.000 A 
ATOM     14  C   UNL     1      -1.954  12.158  21.727  0.00  0.00    +0.000 A 
ATOM     15  C   UNL     1      -1.041  11.331  22.376  0.00  0.00    +0.000 A 
ATOM     16  C   UNL     1      -0.159  10.543  21.631  0.00  0.00    +0.000 A 
ENDBRANCH   8  11
ENDBRANCH   3   6
ENDBRANCH   1   2
BRANCH   1  17
ATOM     17  C   UNL     1       4.827   5.649  16.264  0.00  0.00    +0.000 C 
BRANCH  17  18
ATOM     18  C   UNL     1       5.673   4.396  16.469  0.00  0.00    +0.000 C 
BRANCH  18  21
ATOM     19  O   UNL     1       6.017   4.317  19.289  0.00  0.00    +0.000 OA
ATOM     20  C   UNL     1       5.270   3.502  18.750  0.00  0.00    +0.000 C 
ATOM     21  N   UNL     1       5.057   3.459  17.388  0.00  0.00    +0.000 N 
ATOM     22  H   UNL     1       4.310   2.860  17.051  0.00  0.00    +0.000 HD
BRANCH  20  23
ATOM     23  C   UNL     1       4.532   2.431  19.535  0.00  0.00    +0.000 C 
BRANCH  23  24
ATOM     24  C   UNL     1       3.059   2.715  19.699  0.00  0.00    +0.000 A 
ATOM     25  C   UNL     1       2.601   3.428  20.820  0.00  0.00    +0.000 A 
ATOM     26  C   UNL     1       1.242   3.693  20.989  0.00  0.00    +0.000 A 
ATOM     27  C   UNL     1       0.321   3.253  20.041  0.00  0.00    +0.000 A 
ATOM     28  C   UNL     1       0.759   2.548  18.921  0.00  0.00    +0.000 A 
ATOM     29  C   UNL     1       2.120   2.287  18.755  0.00  0.00    +0.000 A 
BRANCH  29  30
ATOM     30  O   UNL     1       2.558   1.600  17.656  0.00  0.00    +0.000 OA
ATOM     31  H   UNL     1       3.407   1.987  17.380  0.00  0.00    +0.000 HD
ENDBRANCH  29  30
ENDBRANCH  23  24
ENDBRANCH  20  23
ENDBRANCH  18  21
ENDBRANCH  17  18
ENDBRANCH   1  17
TORSDOF 9
ENDMDL
