MODEL 1
REMARK VINA RESULT:      -8.2      0.000      0.000
REMARK  Name = 
REMARK  4 active torsions:
REMARK  status: ('A' for Active; 'I' for Inactive)
REMARK    1  A    between atoms: N_1  and  C_2
REMARK    2  A    between atoms: C_11  and  C_13
REMARK    3  A    between atoms: C_16  and  S_17
REMARK    4  A    between atoms: S_17  and  N_20
REMARK                            x       y       z     vdW  Elec       q    Type
REMARK                         _______ _______ _______ _____ _____    ______ ____
ROOT
ATOM      1  C   UNL     1       6.698   5.873  16.455  0.00  0.00    +0.000 A 
ATOM      2  C   UNL     1       7.304   5.045  15.500  0.00  0.00    +0.000 A 
ATOM      3  C   UNL     1       6.724   3.818  15.112  0.00  0.00    +0.000 A 
ATOM      4  C   UNL     1       5.492   3.415  15.632  0.00  0.00    +0.000 A 
ATOM      5  C   UNL     1       4.888   4.258  16.542  0.00  0.00    +0.000 A 
ATOM      6  C   UNL     1       5.475   5.441  16.943  0.00  0.00    +0.000 A 
ATOM      7  C   UNL     1       4.583   6.053  17.921  0.00  0.00    +0.000 C 
ATOM      8  O   UNL     1       4.907   7.026  18.582  0.00  0.00    +0.000 OA
ATOM      9  N   UNL     1       3.437   5.287  17.968  0.00  0.00    +0.000 N 
ATOM     10  C   UNL     1       2.323   5.504  18.780  0.00  0.00    +0.000 C 
ATOM     11  O   UNL     1       1.702   4.602  19.343  0.00  0.00    +0.000 OA
ATOM     12  C   UNL     1       3.581   4.163  17.189  0.00  0.00    +0.000 C 
ATOM     13  O   UNL     1       2.810   3.255  16.941  0.00  0.00    +0.000 OA
ENDROOT
BRANCH  10  14
ATOM     14  C   UNL     1       1.950   6.913  19.109  0.00  0.00    +0.000 A 
ATOM     15  C   UNL     1       1.900   7.913  18.127  0.00  0.00    +0.000 A 
ATOM     16  C   UNL     1       1.569   9.225  18.473  0.00  0.00    +0.000 A 
ATOM     17  C   UNL     1       1.223   9.527  19.794  0.00  0.00    +0.000 A 
ATOM     18  C   UNL     1       1.259   8.538  20.780  0.00  0.00    +0.000 A 
ATOM     19  C   UNL     1       1.609   7.230  20.434  0.00  0.00    +0.000 A 
BRANCH  17  20
ATOM     20  S   UNL     1       0.764  11.208  20.204  0.00  0.00    +0.000 S 
ATOM     21  O   UNL     1       0.703  11.300  21.646  0.00  0.00    +0.000 OA
ATOM     22  O   UNL     1       1.612  12.087  19.428  0.00  0.00    +0.000 OA
BRANCH  20  23
ATOM     23  N   UNL     1      -0.840  11.305  19.588  0.00  0.00    +0.000 NA
ATOM     24  C   UNL     1      -1.526  12.606  19.748  0.00  0.00    +0.000 C 
ATOM     25  C   UNL     1      -2.997  12.423  20.113  0.00  0.00    +0.000 C 
ATOM     26  C   UNL     1      -3.912  12.156  18.924  0.00  0.00    +0.000 C 
ATOM     27  C   UNL     1      -3.584  10.879  18.163  0.00  0.00    +0.000 C 
ATOM     28  C   UNL     1      -2.230  10.949  17.470  0.00  0.00    +0.000 C 
ATOM     29  C   UNL     1      -1.065  10.517  18.350  0.00  0.00    +0.000 C 
ENDBRANCH  20  23
ENDBRANCH  17  20
ENDBRANCH  10  14
BRANCH   1  30
ATOM     30  N   UNL     1       7.180   7.164  16.679  0.00  0.00    +0.000 N 
ATOM     31  H   UNL     1       7.266   7.437  17.653  0.00  0.00    +0.000 HD
ATOM     32  H   UNL     1       6.721   7.883  16.113  0.00  0.00    +0.000 HD
ENDBRANCH   1  30
TORSDOF 4
ENDMDL
MODEL 2
REMARK VINA RESULT:      -8.2      0.272      1.433
REMARK  Name = 
REMARK  4 active torsions:
REMARK  status: ('A' for Active; 'I' for Inactive)
REMARK    1  A    between atoms: N_1  and  C_2
REMARK    2  A    between atoms: C_11  and  C_13
REMARK    3  A    between atoms: C_16  and  S_17
REMARK    4  A    between atoms: S_17  and  N_20
REMARK                            x       y       z     vdW  Elec       q    Type
REMARK                         _______ _______ _______ _____ _____    ______ ____
ROOT
ATOM      1  C   UNL     1       6.702   5.876  16.448  0.00  0.00    +0.000 A 
ATOM      2  C   UNL     1       7.310   5.047  15.495  0.00  0.00    +0.000 A 
ATOM      3  C   UNL     1       6.728   3.823  15.104  0.00  0.00    +0.000 A 
ATOM      4  C   UNL     1       5.492   3.422  15.617  0.00  0.00    +0.000 A 
ATOM      5  C   UNL     1       4.886   4.267  16.524  0.00  0.00    +0.000 A 
ATOM      6  C   UNL     1       5.475   5.448  16.930  0.00  0.00    +0.000 A 
ATOM      7  C   UNL     1       4.580   6.062  17.904  0.00  0.00    +0.000 C 
ATOM      8  O   UNL     1       4.904   7.034  18.567  0.00  0.00    +0.000 OA
ATOM      9  N   UNL     1       3.431   5.300  17.944  0.00  0.00    +0.000 N 
ATOM     10  C   UNL     1       2.314   5.519  18.751  0.00  0.00    +0.000 C 
ATOM     11  O   UNL     1       1.688   4.619  19.310  0.00  0.00    +0.000 OA
ATOM     12  C   UNL     1       3.576   4.176  17.165  0.00  0.00    +0.000 C 
ATOM     13  O   UNL     1       2.803   3.270  16.912  0.00  0.00    +0.000 OA
ENDROOT
BRANCH  10  14
ATOM     14  C   UNL     1       1.944   6.930  19.079  0.00  0.00    +0.000 A 
ATOM     15  C   UNL     1       1.722   7.347  20.398  0.00  0.00    +0.000 A 
ATOM     16  C   UNL     1       1.356   8.668  20.668  0.00  0.00    +0.000 A 
ATOM     17  C   UNL     1       1.274   9.592  19.622  0.00  0.00    +0.000 A 
ATOM     18  C   UNL     1       1.503   9.191  18.303  0.00  0.00    +0.000 A 
ATOM     19  C   UNL     1       1.851   7.865  18.034  0.00  0.00    +0.000 A 
BRANCH  17  20
ATOM     20  S   UNL     1       0.842  11.288  19.998  0.00  0.00    +0.000 S 
ATOM     21  O   UNL     1       0.791  11.412  21.437  0.00  0.00    +0.000 OA
ATOM     22  O   UNL     1       1.698  12.137  19.198  0.00  0.00    +0.000 OA
BRANCH  20  23
ATOM     23  N   UNL     1      -0.764  11.394  19.389  0.00  0.00    +0.000 NA
ATOM     24  C   UNL     1      -1.423  10.113  19.050  0.00  0.00    +0.000 C 
ATOM     25  C   UNL     1      -2.249  10.228  17.772  0.00  0.00    +0.000 C 
ATOM     26  C   UNL     1      -3.639  10.819  17.972  0.00  0.00    +0.000 C 
ATOM     27  C   UNL     1      -3.637  12.243  18.510  0.00  0.00    +0.000 C 
ATOM     28  C   UNL     1      -3.086  12.326  19.928  0.00  0.00    +0.000 C 
ATOM     29  C   UNL     1      -1.573  12.484  19.991  0.00  0.00    +0.000 C 
ENDBRANCH  20  23
ENDBRANCH  17  20
ENDBRANCH  10  14
BRANCH   1  30
ATOM     30  N   UNL     1       7.187   7.165  16.675  0.00  0.00    +0.000 N 
ATOM     31  H   UNL     1       7.141   7.796  15.881  0.00  0.00    +0.000 HD
ATOM     32  H   UNL     1       8.098   7.191  17.141  0.00  0.00    +0.000 HD
ENDBRANCH   1  30
TORSDOF 4
ENDMDL
MODEL 3
REMARK VINA RESULT:      -8.1      3.221      8.589
REMARK  Name = 
REMARK  4 active torsions:
REMARK  status: ('A' for Active; 'I' for Inactive)
REMARK    1  A    between atoms: N_1  and  C_2
REMARK    2  A    between atoms: C_11  and  C_13
REMARK    3  A    between atoms: C_16  and  S_17
REMARK    4  A    between atoms: S_17  and  N_20
REMARK                            x       y       z     vdW  Elec       q    Type
REMARK                         _______ _______ _______ _____ _____    ______ ____
ROOT
ATOM      1  C   UNL     1       3.791  14.355  18.296  0.00  0.00    +0.000 A 
ATOM      2  C   UNL     1       3.933  15.695  18.679  0.00  0.00    +0.000 A 
ATOM      3  C   UNL     1       2.910  16.378  19.371  0.00  0.00    +0.000 A 
ATOM      4  C   UNL     1       1.739  15.718  19.747  0.00  0.00    +0.000 A 
ATOM      5  C   UNL     1       1.629  14.387  19.400  0.00  0.00    +0.000 A 
ATOM      6  C   UNL     1       2.618  13.733  18.693  0.00  0.00    +0.000 A 
ATOM      7  C   UNL     1       2.159  12.365  18.478  0.00  0.00    +0.000 C 
ATOM      8  O   UNL     1       2.741  11.589  17.739  0.00  0.00    +0.000 OA
ATOM      9  N   UNL     1       0.979  12.213  19.176  0.00  0.00    +0.000 N 
ATOM     10  C   UNL     1       0.190  11.064  19.238  0.00  0.00    +0.000 C 
ATOM     11  O   UNL     1      -1.041  11.078  19.208  0.00  0.00    +0.000 OA
ATOM     12  C   UNL     1       0.586  13.415  19.717  0.00  0.00    +0.000 C 
ATOM     13  O   UNL     1      -0.369  13.706  20.414  0.00  0.00    +0.000 OA
ENDROOT
BRANCH  10  14
ATOM     14  C   UNL     1       0.870   9.734  19.184  0.00  0.00    +0.000 A 
ATOM     15  C   UNL     1       1.232   9.043  20.349  0.00  0.00    +0.000 A 
ATOM     16  C   UNL     1       1.887   7.812  20.263  0.00  0.00    +0.000 A 
ATOM     17  C   UNL     1       2.122   7.238  19.010  0.00  0.00    +0.000 A 
ATOM     18  C   UNL     1       1.756   7.912  17.841  0.00  0.00    +0.000 A 
ATOM     19  C   UNL     1       1.119   9.152  17.930  0.00  0.00    +0.000 A 
BRANCH  17  20
ATOM     20  S   UNL     1       2.927   5.641  18.928  0.00  0.00    +0.000 S 
ATOM     21  O   UNL     1       2.908   5.078  20.260  0.00  0.00    +0.000 OA
ATOM     22  O   UNL     1       2.358   4.931  17.802  0.00  0.00    +0.000 OA
BRANCH  20  23
ATOM     23  N   UNL     1       4.547   6.073  18.546  0.00  0.00    +0.000 NA
ATOM     24  C   UNL     1       5.586   5.066  18.861  0.00  0.00    +0.000 C 
ATOM     25  C   UNL     1       6.848   5.718  19.418  0.00  0.00    +0.000 C 
ATOM     26  C   UNL     1       7.793   6.270  18.356  0.00  0.00    +0.000 C 
ATOM     27  C   UNL     1       7.186   7.371  17.498  0.00  0.00    +0.000 C 
ATOM     28  C   UNL     1       6.043   6.864  16.627  0.00  0.00    +0.000 C 
ATOM     29  C   UNL     1       4.686   6.892  17.316  0.00  0.00    +0.000 C 
ENDBRANCH  20  23
ENDBRANCH  17  20
ENDBRANCH  10  14
BRANCH   1  30
ATOM     30  N   UNL     1       4.882  13.644  17.792  0.00  0.00    +0.000 N 
ATOM     31  H   UNL     1       5.108  13.822  16.819  0.00  0.00    +0.000 HD
ATOM     32  H   UNL     1       4.863  12.644  18.011  0.00  0.00    +0.000 HD
ENDBRANCH   1  30
TORSDOF 4
ENDMDL
MODEL 4
REMARK VINA RESULT:      -8.1      3.151      8.551
REMARK  Name = 
REMARK  4 active torsions:
REMARK  status: ('A' for Active; 'I' for Inactive)
REMARK    1  A    between atoms: N_1  and  C_2
REMARK    2  A    between atoms: C_11  and  C_13
REMARK    3  A    between atoms: C_16  and  S_17
REMARK    4  A    between atoms: S_17  and  N_20
REMARK                            x       y       z     vdW  Elec       q    Type
REMARK                         _______ _______ _______ _____ _____    ______ ____
ROOT
ATOM      1  C   UNL     1       2.907  14.622  19.377  0.00  0.00    +0.000 A 
ATOM      2  C   UNL     1       2.747  15.852  20.029  0.00  0.00    +0.000 A 
ATOM      3  C   UNL     1       1.553  16.177  20.708  0.00  0.00    +0.000 A 
ATOM      4  C   UNL     1       0.509  15.254  20.799  0.00  0.00    +0.000 A 
ATOM      5  C   UNL     1       0.696  14.032  20.187  0.00  0.00    +0.000 A 
ATOM      6  C   UNL     1       1.852  13.731  19.495  0.00  0.00    +0.000 A 
ATOM      7  C   UNL     1       1.694  12.383  18.960  0.00  0.00    +0.000 C 
ATOM      8  O   UNL     1       2.480  11.900  18.162  0.00  0.00    +0.000 OA
ATOM      9  N   UNL     1       0.513  11.877  19.463  0.00  0.00    +0.000 N 
ATOM     10  C   UNL     1      -0.033  10.621  19.200  0.00  0.00    +0.000 C 
ATOM     11  O   UNL     1      -1.235  10.423  19.020  0.00  0.00    +0.000 OA
ATOM     12  C   UNL     1      -0.156  12.845  20.175  0.00  0.00    +0.000 C 
ATOM     13  O   UNL     1      -1.205  12.806  20.791  0.00  0.00    +0.000 OA
ENDROOT
BRANCH  10  14
ATOM     14  C   UNL     1       0.900   9.476  18.972  0.00  0.00    +0.000 A 
ATOM     15  C   UNL     1       1.377   9.154  17.694  0.00  0.00    +0.000 A 
ATOM     16  C   UNL     1       2.230   8.063  17.515  0.00  0.00    +0.000 A 
ATOM     17  C   UNL     1       2.662   7.331  18.624  0.00  0.00    +0.000 A 
ATOM     18  C   UNL     1       2.202   7.647  19.905  0.00  0.00    +0.000 A 
ATOM     19  C   UNL     1       1.333   8.728  20.080  0.00  0.00    +0.000 A 
BRANCH  17  20
ATOM     20  S   UNL     1       3.787   5.961  18.372  0.00  0.00    +0.000 S 
ATOM     21  O   UNL     1       3.619   5.509  17.009  0.00  0.00    +0.000 OA
ATOM     22  O   UNL     1       5.080   6.370  18.876  0.00  0.00    +0.000 OA
BRANCH  20  23
ATOM     23  N   UNL     1       3.139   4.763  19.422  0.00  0.00    +0.000 NA
ATOM     24  C   UNL     1       1.762   4.309  19.128  0.00  0.00    +0.000 C 
ATOM     25  C   UNL     1       0.955   4.101  20.407  0.00  0.00    +0.000 C 
ATOM     26  C   UNL     1       1.187   2.756  21.086  0.00  0.00    +0.000 C 
ATOM     27  C   UNL     1       2.622   2.531  21.542  0.00  0.00    +0.000 C 
ATOM     28  C   UNL     1       3.593   2.431  20.373  0.00  0.00    +0.000 C 
ATOM     29  C   UNL     1       4.136   3.776  19.908  0.00  0.00    +0.000 C 
ENDBRANCH  20  23
ENDBRANCH  17  20
ENDBRANCH  10  14
BRANCH   1  30
ATOM     30  N   UNL     1       4.156  14.241  18.883  0.00  0.00    +0.000 N 
ATOM     31  H   UNL     1       4.897  14.928  18.989  0.00  0.00    +0.000 HD
ATOM     32  H   UNL     1       4.127  13.843  17.941  0.00  0.00    +0.000 HD
ENDBRANCH   1  30
TORSDOF 4
ENDMDL
MODEL 5
REMARK VINA RESULT:      -8.0      2.799      8.662
REMARK  Name = 
REMARK  4 active torsions:
REMARK  status: ('A' for Active; 'I' for Inactive)
REMARK    1  A    between atoms: N_1  and  C_2
REMARK    2  A    between atoms: C_11  and  C_13
REMARK    3  A    between atoms: C_16  and  S_17
REMARK    4  A    between atoms: S_17  and  N_20
REMARK                            x       y       z     vdW  Elec       q    Type
REMARK                         _______ _______ _______ _____ _____    ______ ____
ROOT
ATOM      1  C   UNL     1       2.323  14.277  20.956  0.00  0.00    +0.000 A 
ATOM      2  C   UNL     1       1.984  15.301  21.850  0.00  0.00    +0.000 A 
ATOM      3  C   UNL     1       0.703  15.376  22.435  0.00  0.00    +0.000 A 
ATOM      4  C   UNL     1      -0.257  14.393  22.183  0.00  0.00    +0.000 A 
ATOM      5  C   UNL     1       0.104  13.368  21.333  0.00  0.00    +0.000 A 
ATOM      6  C   UNL     1       1.347  13.317  20.736  0.00  0.00    +0.000 A 
ATOM      7  C   UNL     1       1.369  12.130  19.890  0.00  0.00    +0.000 C 
ATOM      8  O   UNL     1       2.274  11.904  19.103  0.00  0.00    +0.000 OA
ATOM      9  N   UNL     1       0.195  11.443  20.115  0.00  0.00    +0.000 N 
ATOM     10  C   UNL     1      -0.205  10.254  19.504  0.00  0.00    +0.000 C 
ATOM     11  O   UNL     1      -1.359  10.027  19.139  0.00  0.00    +0.000 OA
ATOM     12  C   UNL     1      -0.630  12.166  20.944  0.00  0.00    +0.000 C 
ATOM     13  O   UNL     1      -1.730  11.913  21.402  0.00  0.00    +0.000 OA
ENDROOT
BRANCH  10  14
ATOM     14  C   UNL     1       0.847   9.259  19.134  0.00  0.00    +0.000 A 
ATOM     15  C   UNL     1       1.370   9.185  17.836  0.00  0.00    +0.000 A 
ATOM     16  C   UNL     1       2.337   8.229  17.519  0.00  0.00    +0.000 A 
ATOM     17  C   UNL     1       2.832   7.386  18.518  0.00  0.00    +0.000 A 
ATOM     18  C   UNL     1       2.327   7.456  19.819  0.00  0.00    +0.000 A 
ATOM     19  C   UNL     1       1.346   8.401  20.129  0.00  0.00    +0.000 A 
BRANCH  17  20
ATOM     20  S   UNL     1       4.100   6.194  18.095  0.00  0.00    +0.000 S 
ATOM     21  O   UNL     1       4.368   6.332  16.680  0.00  0.00    +0.000 OA
ATOM     22  O   UNL     1       5.154   6.323  19.077  0.00  0.00    +0.000 OA
BRANCH  20  23
ATOM     23  N   UNL     1       3.289   4.699  18.348  0.00  0.00    +0.000 NA
ATOM     24  C   UNL     1       1.892   4.620  17.866  0.00  0.00    +0.000 C 
ATOM     25  C   UNL     1       1.004   3.852  18.842  0.00  0.00    +0.000 C 
ATOM     26  C   UNL     1       1.074   2.336  18.697  0.00  0.00    +0.000 C 
ATOM     27  C   UNL     1       2.456   1.752  18.953  0.00  0.00    +0.000 C 
ATOM     28  C   UNL     1       3.473   2.185  17.905  0.00  0.00    +0.000 C 
ATOM     29  C   UNL     1       4.162   3.504  18.226  0.00  0.00    +0.000 C 
ENDBRANCH  20  23
ENDBRANCH  17  20
ENDBRANCH  10  14
BRANCH   1  30
ATOM     30  N   UNL     1       3.646  14.107  20.544  0.00  0.00    +0.000 N 
ATOM     31  H   UNL     1       4.187  14.960  20.446  0.00  0.00    +0.000 HD
ATOM     32  H   UNL     1       3.754  13.484  19.739  0.00  0.00    +0.000 HD
ENDBRANCH   1  30
TORSDOF 4
ENDMDL
MODEL 6
REMARK VINA RESULT:      -8.0      3.151      8.583
REMARK  Name = 
REMARK  4 active torsions:
REMARK  status: ('A' for Active; 'I' for Inactive)
REMARK    1  A    between atoms: N_1  and  C_2
REMARK    2  A    between atoms: C_11  and  C_13
REMARK    3  A    between atoms: C_16  and  S_17
REMARK    4  A    between atoms: S_17  and  N_20
REMARK                            x       y       z     vdW  Elec       q    Type
REMARK                         _______ _______ _______ _____ _____    ______ ____
ROOT
ATOM      1  C   UNL     1       2.909  14.728  18.981  0.00  0.00    +0.000 A 
ATOM      2  C   UNL     1       2.745  16.012  19.520  0.00  0.00    +0.000 A 
ATOM      3  C   UNL     1       1.537  16.406  20.134  0.00  0.00    +0.000 A 
ATOM      4  C   UNL     1       0.480  15.505  20.274  0.00  0.00    +0.000 A 
ATOM      5  C   UNL     1       0.669  14.232  19.775  0.00  0.00    +0.000 A 
ATOM      6  C   UNL     1       1.840  13.861  19.146  0.00  0.00    +0.000 A 
ATOM      7  C   UNL     1       1.680  12.474  18.725  0.00  0.00    +0.000 C 
ATOM      8  O   UNL     1       2.482  11.916  17.995  0.00  0.00    +0.000 OA
ATOM      9  N   UNL     1       0.480  12.025  19.236  0.00  0.00    +0.000 N 
ATOM     10  C   UNL     1      -0.075  10.756  19.067  0.00  0.00    +0.000 C 
ATOM     11  O   UNL     1      -1.273  10.555  18.871  0.00  0.00    +0.000 OA
ATOM     12  C   UNL     1      -0.197  13.057  19.842  0.00  0.00    +0.000 C 
ATOM     13  O   UNL     1      -1.264  13.082  20.429  0.00  0.00    +0.000 OA
ENDROOT
BRANCH  10  14
ATOM     14  C   UNL     1       0.850   9.587  18.966  0.00  0.00    +0.000 A 
ATOM     15  C   UNL     1       1.243   8.856  20.096  0.00  0.00    +0.000 A 
ATOM     16  C   UNL     1       2.126   7.782  19.970  0.00  0.00    +0.000 A 
ATOM     17  C   UNL     1       2.569   7.395  18.702  0.00  0.00    +0.000 A 
ATOM     18  C   UNL     1       2.177   8.108  17.566  0.00  0.00    +0.000 A 
ATOM     19  C   UNL     1       1.308   9.194  17.698  0.00  0.00    +0.000 A 
BRANCH  17  20
ATOM     20  S   UNL     1       3.670   5.989  18.562  0.00  0.00    +0.000 S 
ATOM     21  O   UNL     1       3.889   5.750  17.153  0.00  0.00    +0.000 OA
ATOM     22  O   UNL     1       4.774   6.218  19.468  0.00  0.00    +0.000 OA
BRANCH  20  23
ATOM     23  N   UNL     1       2.702   4.710  19.183  0.00  0.00    +0.000 NA
ATOM     24  C   UNL     1       2.417   3.593  18.255  0.00  0.00    +0.000 C 
ATOM     25  C   UNL     1       0.981   3.096  18.399  0.00  0.00    +0.000 C 
ATOM     26  C   UNL     1       0.768   2.115  19.546  0.00  0.00    +0.000 C 
ATOM     27  C   UNL     1       1.074   2.692  20.922  0.00  0.00    +0.000 C 
ATOM     28  C   UNL     1       2.551   3.019  21.098  0.00  0.00    +0.000 C 
ATOM     29  C   UNL     1       2.933   4.413  20.619  0.00  0.00    +0.000 C 
ENDBRANCH  20  23
ENDBRANCH  17  20
ENDBRANCH  10  14
BRANCH   1  30
ATOM     30  N   UNL     1       4.166  14.294  18.559  0.00  0.00    +0.000 N 
ATOM     31  H   UNL     1       4.639  14.900  17.896  0.00  0.00    +0.000 HD
ATOM     32  H   UNL     1       4.193  13.311  18.274  0.00  0.00    +0.000 HD
ENDBRANCH   1  30
TORSDOF 4
ENDMDL
MODEL 7
REMARK VINA RESULT:      -7.9      3.218      8.351
REMARK  Name = 
REMARK  4 active torsions:
REMARK  status: ('A' for Active; 'I' for Inactive)
REMARK    1  A    between atoms: N_1  and  C_2
REMARK    2  A    between atoms: C_11  and  C_13
REMARK    3  A    between atoms: C_16  and  S_17
REMARK    4  A    between atoms: S_17  and  N_20
REMARK                            x       y       z     vdW  Elec       q    Type
REMARK                         _______ _______ _______ _____ _____    ______ ____
ROOT
ATOM      1  C   UNL     1       3.026  14.586  18.497  0.00  0.00    +0.000 A 
ATOM      2  C   UNL     1       2.918  15.891  18.997  0.00  0.00    +0.000 A 
ATOM      3  C   UNL     1       1.780  16.315  19.715  0.00  0.00    +0.000 A 
ATOM      4  C   UNL     1       0.743  15.424  20.000  0.00  0.00    +0.000 A 
ATOM      5  C   UNL     1       0.881  14.131  19.537  0.00  0.00    +0.000 A 
ATOM      6  C   UNL     1       1.980  13.731  18.806  0.00  0.00    +0.000 A 
ATOM      7  C   UNL     1       1.780  12.328  18.462  0.00  0.00    +0.000 C 
ATOM      8  O   UNL     1       2.503  11.737  17.676  0.00  0.00    +0.000 OA
ATOM      9  N   UNL     1       0.639  11.904  19.111  0.00  0.00    +0.000 N 
ATOM     10  C   UNL     1       0.070  10.632  19.052  0.00  0.00    +0.000 C 
ATOM     11  O   UNL     1      -1.142  10.427  18.989  0.00  0.00    +0.000 OA
ATOM     12  C   UNL     1       0.027  12.963  19.741  0.00  0.00    +0.000 C 
ATOM     13  O   UNL     1      -0.974  13.016  20.433  0.00  0.00    +0.000 OA
ENDROOT
BRANCH  10  14
ATOM     14  C   UNL     1       0.981   9.456  18.905  0.00  0.00    +0.000 A 
ATOM     15  C   UNL     1       1.497   9.072  17.660  0.00  0.00    +0.000 A 
ATOM     16  C   UNL     1       2.328   7.954  17.556  0.00  0.00    +0.000 A 
ATOM     17  C   UNL     1       2.698   7.255  18.708  0.00  0.00    +0.000 A 
ATOM     18  C   UNL     1       2.199   7.633  19.958  0.00  0.00    +0.000 A 
ATOM     19  C   UNL     1       1.353   8.741  20.056  0.00  0.00    +0.000 A 
BRANCH  17  20
ATOM     20  S   UNL     1       3.796   5.850  18.553  0.00  0.00    +0.000 S 
ATOM     21  O   UNL     1       3.942   5.569  17.142  0.00  0.00    +0.000 OA
ATOM     22  O   UNL     1       4.945   6.107  19.392  0.00  0.00    +0.000 OA
BRANCH  20  23
ATOM     23  N   UNL     1       2.868   4.586  19.261  0.00  0.00    +0.000 NA
ATOM     24  C   UNL     1       2.234   4.889  20.563  0.00  0.00    +0.000 C 
ATOM     25  C   UNL     1       2.303   3.695  21.512  0.00  0.00    +0.000 C 
ATOM     26  C   UNL     1       1.212   2.654  21.294  0.00  0.00    +0.000 C 
ATOM     27  C   UNL     1       1.241   2.004  19.917  0.00  0.00    +0.000 C 
ATOM     28  C   UNL     1       0.921   2.990  18.802  0.00  0.00    +0.000 C 
ATOM     29  C   UNL     1       2.135   3.745  18.281  0.00  0.00    +0.000 C 
ENDBRANCH  20  23
ENDBRANCH  17  20
ENDBRANCH  10  14
BRANCH   1  30
ATOM     30  N   UNL     1       4.234  14.131  17.966  0.00  0.00    +0.000 N 
ATOM     31  H   UNL     1       4.782  14.824  17.466  0.00  0.00    +0.000 HD
ATOM     32  H   UNL     1       4.155  13.251  17.449  0.00  0.00    +0.000 HD
ENDBRANCH   1  30
TORSDOF 4
ENDMDL
MODEL 8
REMARK VINA RESULT:      -7.8      2.866      8.371
REMARK  Name = 
REMARK  4 active torsions:
REMARK  status: ('A' for Active; 'I' for Inactive)
REMARK    1  A    between atoms: N_1  and  C_2
REMARK    2  A    between atoms: C_11  and  C_13
REMARK    3  A    between atoms: C_16  and  S_17
REMARK    4  A    between atoms: S_17  and  N_20
REMARK                            x       y       z     vdW  Elec       q    Type
REMARK                         _______ _______ _______ _____ _____    ______ ____
ROOT
ATOM      1  C   UNL     1       1.825  12.232  18.547  0.00  0.00    +0.000 A 
ATOM      2  C   UNL     1       1.869  13.592  18.880  0.00  0.00    +0.000 A 
ATOM      3  C   UNL     1       1.366  14.069  20.109  0.00  0.00    +0.000 A 
ATOM      4  C   UNL     1       0.854  13.185  21.062  0.00  0.00    +0.000 A 
ATOM      5  C   UNL     1       0.853  11.844  20.737  0.00  0.00    +0.000 A 
ATOM      6  C   UNL     1       1.316  11.386  19.521  0.00  0.00    +0.000 A 
ATOM      7  C   UNL     1       1.139   9.939  19.510  0.00  0.00    +0.000 C 
ATOM      8  O   UNL     1       1.301   9.267  18.505  0.00  0.00    +0.000 OA
ATOM      9  N   UNL     1       0.706   9.569  20.767  0.00  0.00    +0.000 N 
ATOM     10  C   UNL     1       0.400   8.277  21.195  0.00  0.00    +0.000 C 
ATOM     11  O   UNL     1      -0.555   8.007  21.924  0.00  0.00    +0.000 OA
ATOM     12  C   UNL     1       0.472  10.683  21.538  0.00  0.00    +0.000 C 
ATOM     13  O   UNL     1       0.109  10.796  22.695  0.00  0.00    +0.000 OA
ENDROOT
BRANCH  10  14
ATOM     14  C   UNL     1       1.178   7.138  20.621  0.00  0.00    +0.000 A 
ATOM     15  C   UNL     1       2.398   7.335  19.959  0.00  0.00    +0.000 A 
ATOM     16  C   UNL     1       3.088   6.250  19.415  0.00  0.00    +0.000 A 
ATOM     17  C   UNL     1       2.593   4.955  19.590  0.00  0.00    +0.000 A 
ATOM     18  C   UNL     1       1.384   4.743  20.257  0.00  0.00    +0.000 A 
ATOM     19  C   UNL     1       0.685   5.832  20.784  0.00  0.00    +0.000 A 
BRANCH  17  20
ATOM     20  S   UNL     1       3.518   3.577  18.918  0.00  0.00    +0.000 S 
ATOM     21  O   UNL     1       4.225   2.954  20.015  0.00  0.00    +0.000 OA
ATOM     22  O   UNL     1       2.613   2.821  18.079  0.00  0.00    +0.000 OA
BRANCH  20  23
ATOM     23  N   UNL     1       4.668   4.370  17.915  0.00  0.00    +0.000 NA
ATOM     24  C   UNL     1       6.014   4.574  18.495  0.00  0.00    +0.000 C 
ATOM     25  C   UNL     1       6.585   5.939  18.120  0.00  0.00    +0.000 C 
ATOM     26  C   UNL     1       7.239   5.991  16.743  0.00  0.00    +0.000 C 
ATOM     27  C   UNL     1       6.288   5.687  15.594  0.00  0.00    +0.000 C 
ATOM     28  C   UNL     1       5.790   4.247  15.618  0.00  0.00    +0.000 C 
ATOM     29  C   UNL     1       4.547   4.041  16.471  0.00  0.00    +0.000 C 
ENDBRANCH  20  23
ENDBRANCH  17  20
ENDBRANCH  10  14
BRANCH   1  30
ATOM     30  N   UNL     1       2.501  11.757  17.422  0.00  0.00    +0.000 N 
ATOM     31  H   UNL     1       3.317  11.183  17.612  0.00  0.00    +0.000 HD
ATOM     32  H   UNL     1       2.685  12.473  16.714  0.00  0.00    +0.000 HD
ENDBRANCH   1  30
TORSDOF 4
ENDMDL
MODEL 9
REMARK VINA RESULT:      -7.7      1.931      3.556
REMARK  Name = 
REMARK  4 active torsions:
REMARK  status: ('A' for Active; 'I' for Inactive)
REMARK    1  A    between atoms: N_1  and  C_2
REMARK    2  A    between atoms: C_11  and  C_13
REMARK    3  A    between atoms: C_16  and  S_17
REMARK    4  A    between atoms: S_17  and  N_20
REMARK                            x       y       z     vdW  Elec       q    Type
REMARK                         _______ _______ _______ _____ _____    ______ ____
ROOT
ATOM      1  C   UNL     1       1.639   2.623  18.751  0.00  0.00    +0.000 A 
ATOM      2  C   UNL     1       2.244   1.374  18.943  0.00  0.00    +0.000 A 
ATOM      3  C   UNL     1       3.633   1.192  18.775  0.00  0.00    +0.000 A 
ATOM      4  C   UNL     1       4.462   2.272  18.463  0.00  0.00    +0.000 A 
ATOM      5  C   UNL     1       3.859   3.505  18.316  0.00  0.00    +0.000 A 
ATOM      6  C   UNL     1       2.495   3.671  18.449  0.00  0.00    +0.000 A 
ATOM      7  C   UNL     1       2.208   5.079  18.201  0.00  0.00    +0.000 C 
ATOM      8  O   UNL     1       1.070   5.503  18.082  0.00  0.00    +0.000 OA
ATOM      9  N   UNL     1       3.417   5.728  18.065  0.00  0.00    +0.000 N 
ATOM     10  C   UNL     1       3.610   7.085  17.806  0.00  0.00    +0.000 C 
ATOM     11  O   UNL     1       4.473   7.519  17.042  0.00  0.00    +0.000 OA
ATOM     12  C   UNL     1       4.450   4.820  18.081  0.00  0.00    +0.000 C 
ATOM     13  O   UNL     1       5.656   4.975  18.013  0.00  0.00    +0.000 OA
ENDROOT
BRANCH  10  14
ATOM     14  C   UNL     1       2.624   8.059  18.365  0.00  0.00    +0.000 A 
ATOM     15  C   UNL     1       2.127   7.941  19.670  0.00  0.00    +0.000 A 
ATOM     16  C   UNL     1       1.190   8.857  20.153  0.00  0.00    +0.000 A 
ATOM     17  C   UNL     1       0.797   9.933  19.353  0.00  0.00    +0.000 A 
ATOM     18  C   UNL     1       1.293  10.069  18.053  0.00  0.00    +0.000 A 
ATOM     19  C   UNL     1       2.216   9.140  17.566  0.00  0.00    +0.000 A 
BRANCH  17  20
ATOM     20  S   UNL     1      -0.376  11.116  20.010  0.00  0.00    +0.000 S 
ATOM     21  O   UNL     1      -0.894  10.571  21.244  0.00  0.00    +0.000 OA
ATOM     22  O   UNL     1       0.256  12.417  19.967  0.00  0.00    +0.000 OA
BRANCH  20  23
ATOM     23  N   UNL     1      -1.630  11.073  18.832  0.00  0.00    +0.000 NA
ATOM     24  C   UNL     1      -1.880   9.764  18.188  0.00  0.00    +0.000 C 
ATOM     25  C   UNL     1      -2.174   9.920  16.698  0.00  0.00    +0.000 C 
ATOM     26  C   UNL     1      -3.619  10.284  16.377  0.00  0.00    +0.000 C 
ATOM     27  C   UNL     1      -4.066  11.618  16.958  0.00  0.00    +0.000 C 
ATOM     28  C   UNL     1      -4.108  11.603  18.480  0.00  0.00    +0.000 C 
ATOM     29  C   UNL     1      -2.782  11.959  19.136  0.00  0.00    +0.000 C 
ENDBRANCH  20  23
ENDBRANCH  17  20
ENDBRANCH  10  14
BRANCH   1  30
ATOM     30  N   UNL     1       0.306   2.826  19.112  0.00  0.00    +0.000 N 
ATOM     31  H   UNL     1      -0.300   3.170  18.373  0.00  0.00    +0.000 HD
ATOM     32  H   UNL     1       0.186   3.345  19.986  0.00  0.00    +0.000 HD
ENDBRANCH   1  30
TORSDOF 4
ENDMDL
