MODEL 1
REMARK VINA RESULT:      -6.8      0.000      0.000
REMARK  Name = 
REMARK  2 active torsions:
REMARK  status: ('A' for Active; 'I' for Inactive)
REMARK    1  A    between atoms: N_8  and  S_9
REMARK    2  A    between atoms: S_9  and  C_10
REMARK                            x       y       z     vdW  Elec       q    Type
REMARK                         _______ _______ _______ _____ _____    ______ ____
ROOT
ATOM      1  O   UNL     1       2.613   6.438  18.709  0.00  0.00    +0.000 OA
ATOM      2  C   UNL     1       2.757   5.385  19.336  0.00  0.00    +0.000 C 
ATOM      3  C   UNL     1       1.934   5.151  20.590  0.00  0.00    +0.000 C 
ATOM      4  C   UNL     1       0.836   4.118  20.371  0.00  0.00    +0.000 C 
ATOM      5  C   UNL     1       1.315   2.676  20.503  0.00  0.00    +0.000 C 
ATOM      6  C   UNL     1       2.402   2.268  19.509  0.00  0.00    +0.000 C 
ATOM      7  C   UNL     1       3.695   3.072  19.655  0.00  0.00    +0.000 C 
ATOM      8  N   UNL     1       3.632   4.366  18.976  0.00  0.00    +0.000 N 
ENDROOT
BRANCH   8   9
ATOM      9  S   UNL     1       4.422   4.470  17.446  0.00  0.00    +0.000 S 
BRANCH   9  10
ATOM     10  C   UNL     1       5.791   5.573  17.791  0.00  0.00    +0.000 A 
ATOM     11  C   UNL     1       6.692   5.202  18.800  0.00  0.00    +0.000 A 
ATOM     12  C   UNL     1       7.816   5.984  19.082  0.00  0.00    +0.000 A 
ATOM     13  C   UNL     1       8.052   7.146  18.357  0.00  0.00    +0.000 A 
ATOM     14  C   UNL     1       7.164   7.527  17.349  0.00  0.00    +0.000 A 
ATOM     15  C   UNL     1       6.041   6.740  17.065  0.00  0.00    +0.000 A 
ENDBRANCH   9  10
ENDBRANCH   8   9
TORSDOF 2
ENDMDL
MODEL 2
REMARK VINA RESULT:      -6.7      0.162      1.254
REMARK  Name = 
REMARK  2 active torsions:
REMARK  status: ('A' for Active; 'I' for Inactive)
REMARK    1  A    between atoms: N_8  and  S_9
REMARK    2  A    between atoms: S_9  and  C_10
REMARK                            x       y       z     vdW  Elec       q    Type
REMARK                         _______ _______ _______ _____ _____    ______ ____
ROOT
ATOM      1  O   UNL     1       2.393   6.306  18.534  0.00  0.00    +0.000 OA
ATOM      2  C   UNL     1       2.646   5.316  19.225  0.00  0.00    +0.000 C 
ATOM      3  C   UNL     1       1.847   5.072  20.491  0.00  0.00    +0.000 C 
ATOM      4  C   UNL     1       0.868   3.915  20.337  0.00  0.00    +0.000 C 
ATOM      5  C   UNL     1       1.501   2.544  20.559  0.00  0.00    +0.000 C 
ATOM      6  C   UNL     1       2.631   2.196  19.590  0.00  0.00    +0.000 C 
ATOM      7  C   UNL     1       3.828   3.142  19.685  0.00  0.00    +0.000 C 
ATOM      8  N   UNL     1       3.629   4.377  18.927  0.00  0.00    +0.000 N 
ENDROOT
BRANCH   8   9
ATOM      9  S   UNL     1       4.412   4.472  17.393  0.00  0.00    +0.000 S 
BRANCH   9  10
ATOM     10  C   UNL     1       5.856   5.469  17.756  0.00  0.00    +0.000 A 
ATOM     11  C   UNL     1       6.043   6.644  17.014  0.00  0.00    +0.000 A 
ATOM     12  C   UNL     1       7.115   7.501  17.284  0.00  0.00    +0.000 A 
ATOM     13  C   UNL     1       8.010   7.192  18.300  0.00  0.00    +0.000 A 
ATOM     14  C   UNL     1       7.835   6.025  19.048  0.00  0.00    +0.000 A 
ATOM     15  C   UNL     1       6.759   5.170  18.779  0.00  0.00    +0.000 A 
ENDBRANCH   9  10
ENDBRANCH   8   9
TORSDOF 2
ENDMDL
MODEL 3
REMARK VINA RESULT:      -6.7      1.786      2.335
REMARK  Name = 
REMARK  2 active torsions:
REMARK  status: ('A' for Active; 'I' for Inactive)
REMARK    1  A    between atoms: N_8  and  S_9
REMARK    2  A    between atoms: S_9  and  C_10
REMARK                            x       y       z     vdW  Elec       q    Type
REMARK                         _______ _______ _______ _____ _____    ______ ____
ROOT
ATOM      1  O   UNL     1       3.010   6.432  19.481  0.00  0.00    +0.000 OA
ATOM      2  C   UNL     1       3.058   5.200  19.462  0.00  0.00    +0.000 C 
ATOM      3  C   UNL     1       1.763   4.409  19.453  0.00  0.00    +0.000 C 
ATOM      4  C   UNL     1       1.486   3.776  18.095  0.00  0.00    +0.000 C 
ATOM      5  C   UNL     1       2.212   2.452  17.875  0.00  0.00    +0.000 C 
ATOM      6  C   UNL     1       3.737   2.541  17.931  0.00  0.00    +0.000 C 
ATOM      7  C   UNL     1       4.272   3.002  19.288  0.00  0.00    +0.000 C 
ATOM      8  N   UNL     1       4.234   4.455  19.443  0.00  0.00    +0.000 N 
ENDROOT
BRANCH   8   9
ATOM      9  S   UNL     1       5.726   5.292  19.221  0.00  0.00    +0.000 S 
BRANCH   9  10
ATOM     10  C   UNL     1       5.921   5.268  17.440  0.00  0.00    +0.000 A 
ATOM     11  C   UNL     1       6.932   4.456  16.904  0.00  0.00    +0.000 A 
ATOM     12  C   UNL     1       7.103   4.342  15.521  0.00  0.00    +0.000 A 
ATOM     13  C   UNL     1       6.264   5.038  14.658  0.00  0.00    +0.000 A 
ATOM     14  C   UNL     1       5.253   5.849  15.179  0.00  0.00    +0.000 A 
ATOM     15  C   UNL     1       5.080   5.959  16.564  0.00  0.00    +0.000 A 
ENDBRANCH   9  10
ENDBRANCH   8   9
TORSDOF 2
ENDMDL
MODEL 4
REMARK VINA RESULT:      -6.6      1.926      2.735
REMARK  Name = 
REMARK  2 active torsions:
REMARK  status: ('A' for Active; 'I' for Inactive)
REMARK    1  A    between atoms: N_8  and  S_9
REMARK    2  A    between atoms: S_9  and  C_10
REMARK                            x       y       z     vdW  Elec       q    Type
REMARK                         _______ _______ _______ _____ _____    ______ ____
ROOT
ATOM      1  O   UNL     1       4.914   2.470  19.805  0.00  0.00    +0.000 OA
ATOM      2  C   UNL     1       3.846   3.037  19.565  0.00  0.00    +0.000 C 
ATOM      3  C   UNL     1       2.547   2.268  19.718  0.00  0.00    +0.000 C 
ATOM      4  C   UNL     1       1.762   2.707  20.948  0.00  0.00    +0.000 C 
ATOM      5  C   UNL     1       0.913   3.954  20.721  0.00  0.00    +0.000 C 
ATOM      6  C   UNL     1       1.701   5.203  20.327  0.00  0.00    +0.000 C 
ATOM      7  C   UNL     1       2.454   5.058  19.004  0.00  0.00    +0.000 C 
ATOM      8  N   UNL     1       3.731   4.363  19.157  0.00  0.00    +0.000 N 
ENDROOT
BRANCH   8   9
ATOM      9  S   UNL     1       5.145   5.352  19.186  0.00  0.00    +0.000 S 
BRANCH   9  10
ATOM     10  C   UNL     1       5.703   5.279  17.486  0.00  0.00    +0.000 A 
ATOM     11  C   UNL     1       6.895   4.592  17.217  0.00  0.00    +0.000 A 
ATOM     12  C   UNL     1       7.359   4.444  15.906  0.00  0.00    +0.000 A 
ATOM     13  C   UNL     1       6.634   4.980  14.849  0.00  0.00    +0.000 A 
ATOM     14  C   UNL     1       5.444   5.666  15.102  0.00  0.00    +0.000 A 
ATOM     15  C   UNL     1       4.979   5.810  16.415  0.00  0.00    +0.000 A 
ENDBRANCH   9  10
ENDBRANCH   8   9
TORSDOF 2
ENDMDL
MODEL 5
REMARK VINA RESULT:      -6.6      1.329      1.847
REMARK  Name = 
REMARK  2 active torsions:
REMARK  status: ('A' for Active; 'I' for Inactive)
REMARK    1  A    between atoms: N_8  and  S_9
REMARK    2  A    between atoms: S_9  and  C_10
REMARK                            x       y       z     vdW  Elec       q    Type
REMARK                         _______ _______ _______ _____ _____    ______ ____
ROOT
ATOM      1  O   UNL     1       1.076   4.045  17.469  0.00  0.00    +0.000 OA
ATOM      2  C   UNL     1       1.712   4.086  18.525  0.00  0.00    +0.000 C 
ATOM      3  C   UNL     1       0.961   4.152  19.841  0.00  0.00    +0.000 C 
ATOM      4  C   UNL     1       1.024   2.836  20.605  0.00  0.00    +0.000 C 
ATOM      5  C   UNL     1       2.299   2.663  21.425  0.00  0.00    +0.000 C 
ATOM      6  C   UNL     1       3.591   2.672  20.609  0.00  0.00    +0.000 C 
ATOM      7  C   UNL     1       3.837   3.989  19.870  0.00  0.00    +0.000 C 
ATOM      8  N   UNL     1       3.101   4.072  18.609  0.00  0.00    +0.000 N 
ENDROOT
BRANCH   8   9
ATOM      9  S   UNL     1       4.004   3.767  17.171  0.00  0.00    +0.000 S 
BRANCH   9  10
ATOM     10  C   UNL     1       5.376   4.908  17.327  0.00  0.00    +0.000 A 
ATOM     11  C   UNL     1       5.154   6.250  16.986  0.00  0.00    +0.000 A 
ATOM     12  C   UNL     1       6.162   7.207  17.139  0.00  0.00    +0.000 A 
ATOM     13  C   UNL     1       7.404   6.832  17.637  0.00  0.00    +0.000 A 
ATOM     14  C   UNL     1       7.639   5.499  17.982  0.00  0.00    +0.000 A 
ATOM     15  C   UNL     1       6.627   4.543  17.831  0.00  0.00    +0.000 A 
ENDBRANCH   9  10
ENDBRANCH   8   9
TORSDOF 2
ENDMDL
MODEL 6
REMARK VINA RESULT:      -6.6      1.673      5.637
REMARK  Name = 
REMARK  2 active torsions:
REMARK  status: ('A' for Active; 'I' for Inactive)
REMARK    1  A    between atoms: N_8  and  S_9
REMARK    2  A    between atoms: S_9  and  C_10
REMARK                            x       y       z     vdW  Elec       q    Type
REMARK                         _______ _______ _______ _____ _____    ______ ____
ROOT
ATOM      1  O   UNL     1       4.685   7.126  15.828  0.00  0.00    +0.000 OA
ATOM      2  C   UNL     1       5.187   6.278  16.569  0.00  0.00    +0.000 C 
ATOM      3  C   UNL     1       6.611   5.821  16.314  0.00  0.00    +0.000 C 
ATOM      4  C   UNL     1       7.584   6.369  17.350  0.00  0.00    +0.000 C 
ATOM      5  C   UNL     1       7.630   5.554  18.640  0.00  0.00    +0.000 C 
ATOM      6  C   UNL     1       6.303   5.472  19.393  0.00  0.00    +0.000 C 
ATOM      7  C   UNL     1       5.190   4.788  18.598  0.00  0.00    +0.000 C 
ATOM      8  N   UNL     1       4.538   5.693  17.653  0.00  0.00    +0.000 N 
ENDROOT
BRANCH   8   9
ATOM      9  S   UNL     1       3.009   6.333  18.131  0.00  0.00    +0.000 S 
BRANCH   9  10
ATOM     10  C   UNL     1       2.177   4.892  18.794  0.00  0.00    +0.000 A 
ATOM     11  C   UNL     1       1.918   4.861  20.172  0.00  0.00    +0.000 A 
ATOM     12  C   UNL     1       1.219   3.796  20.748  0.00  0.00    +0.000 A 
ATOM     13  C   UNL     1       0.769   2.750  19.951  0.00  0.00    +0.000 A 
ATOM     14  C   UNL     1       1.018   2.769  18.577  0.00  0.00    +0.000 A 
ATOM     15  C   UNL     1       1.715   3.838  18.001  0.00  0.00    +0.000 A 
ENDBRANCH   9  10
ENDBRANCH   8   9
TORSDOF 2
ENDMDL
MODEL 7
REMARK VINA RESULT:      -6.6      1.721      5.650
REMARK  Name = 
REMARK  2 active torsions:
REMARK  status: ('A' for Active; 'I' for Inactive)
REMARK    1  A    between atoms: N_8  and  S_9
REMARK    2  A    between atoms: S_9  and  C_10
REMARK                            x       y       z     vdW  Elec       q    Type
REMARK                         _______ _______ _______ _____ _____    ______ ____
ROOT
ATOM      1  O   UNL     1       4.865   7.067  15.682  0.00  0.00    +0.000 OA
ATOM      2  C   UNL     1       5.292   6.228  16.478  0.00  0.00    +0.000 C 
ATOM      3  C   UNL     1       6.699   5.688  16.301  0.00  0.00    +0.000 C 
ATOM      4  C   UNL     1       7.658   6.231  17.352  0.00  0.00    +0.000 C 
ATOM      5  C   UNL     1       7.612   5.473  18.676  0.00  0.00    +0.000 C 
ATOM      6  C   UNL     1       6.254   5.494  19.378  0.00  0.00    +0.000 C 
ATOM      7  C   UNL     1       5.138   4.833  18.568  0.00  0.00    +0.000 C 
ATOM      8  N   UNL     1       4.571   5.727  17.558  0.00  0.00    +0.000 N 
ENDROOT
BRANCH   8   9
ATOM      9  S   UNL     1       3.062   6.465  17.947  0.00  0.00    +0.000 S 
BRANCH   9  10
ATOM     10  C   UNL     1       2.174   5.133  18.750  0.00  0.00    +0.000 A 
ATOM     11  C   UNL     1       1.739   4.063  17.954  0.00  0.00    +0.000 A 
ATOM     12  C   UNL     1       1.093   2.961  18.522  0.00  0.00    +0.000 A 
ATOM     13  C   UNL     1       0.876   2.916  19.894  0.00  0.00    +0.000 A 
ATOM     14  C   UNL     1       1.306   3.973  20.699  0.00  0.00    +0.000 A 
ATOM     15  C   UNL     1       1.956   5.074  20.129  0.00  0.00    +0.000 A 
ENDBRANCH   9  10
ENDBRANCH   8   9
TORSDOF 2
ENDMDL
MODEL 8
REMARK VINA RESULT:      -6.6      2.113      3.078
REMARK  Name = 
REMARK  2 active torsions:
REMARK  status: ('A' for Active; 'I' for Inactive)
REMARK    1  A    between atoms: N_8  and  S_9
REMARK    2  A    between atoms: S_9  and  C_10
REMARK                            x       y       z     vdW  Elec       q    Type
REMARK                         _______ _______ _______ _____ _____    ______ ____
ROOT
ATOM      1  O   UNL     1       4.480   1.893  19.552  0.00  0.00    +0.000 OA
ATOM      2  C   UNL     1       3.560   2.687  19.346  0.00  0.00    +0.000 C 
ATOM      3  C   UNL     1       2.126   2.210  19.480  0.00  0.00    +0.000 C 
ATOM      4  C   UNL     1       1.455   2.753  20.736  0.00  0.00    +0.000 C 
ATOM      5  C   UNL     1       0.894   4.162  20.571  0.00  0.00    +0.000 C 
ATOM      6  C   UNL     1       1.933   5.228  20.223  0.00  0.00    +0.000 C 
ATOM      7  C   UNL     1       2.635   4.983  18.887  0.00  0.00    +0.000 C 
ATOM      8  N   UNL     1       3.734   4.023  18.998  0.00  0.00    +0.000 N 
ENDROOT
BRANCH   8   9
ATOM      9  S   UNL     1       5.327   4.682  19.055  0.00  0.00    +0.000 S 
BRANCH   9  10
ATOM     10  C   UNL     1       5.844   4.593  17.342  0.00  0.00    +0.000 A 
ATOM     11  C   UNL     1       4.866   4.307  16.377  0.00  0.00    +0.000 A 
ATOM     12  C   UNL     1       5.187   4.281  15.016  0.00  0.00    +0.000 A 
ATOM     13  C   UNL     1       6.488   4.542  14.605  0.00  0.00    +0.000 A 
ATOM     14  C   UNL     1       7.471   4.829  15.555  0.00  0.00    +0.000 A 
ATOM     15  C   UNL     1       7.148   4.858  16.916  0.00  0.00    +0.000 A 
ENDBRANCH   9  10
ENDBRANCH   8   9
TORSDOF 2
ENDMDL
MODEL 9
REMARK VINA RESULT:      -6.6      1.540      1.928
REMARK  Name = 
REMARK  2 active torsions:
REMARK  status: ('A' for Active; 'I' for Inactive)
REMARK    1  A    between atoms: N_8  and  S_9
REMARK    2  A    between atoms: S_9  and  C_10
REMARK                            x       y       z     vdW  Elec       q    Type
REMARK                         _______ _______ _______ _____ _____    ______ ____
ROOT
ATOM      1  O   UNL     1       3.673   2.892  17.216  0.00  0.00    +0.000 OA
ATOM      2  C   UNL     1       3.093   3.631  18.015  0.00  0.00    +0.000 C 
ATOM      3  C   UNL     1       1.587   3.789  17.919  0.00  0.00    +0.000 C 
ATOM      4  C   UNL     1       0.861   3.069  19.048  0.00  0.00    +0.000 C 
ATOM      5  C   UNL     1       0.790   3.873  20.343  0.00  0.00    +0.000 C 
ATOM      6  C   UNL     1       2.147   4.229  20.951  0.00  0.00    +0.000 C 
ATOM      7  C   UNL     1       3.007   5.113  20.048  0.00  0.00    +0.000 C 
ATOM      8  N   UNL     1       3.724   4.347  19.029  0.00  0.00    +0.000 N 
ENDROOT
BRANCH   8   9
ATOM      9  S   UNL     1       5.392   4.033  19.334  0.00  0.00    +0.000 S 
BRANCH   9  10
ATOM     10  C   UNL     1       6.191   5.480  18.644  0.00  0.00    +0.000 A 
ATOM     11  C   UNL     1       7.461   5.820  19.130  0.00  0.00    +0.000 A 
ATOM     12  C   UNL     1       8.169   6.901  18.596  0.00  0.00    +0.000 A 
ATOM     13  C   UNL     1       7.614   7.653  17.566  0.00  0.00    +0.000 A 
ATOM     14  C   UNL     1       6.350   7.324  17.071  0.00  0.00    +0.000 A 
ATOM     15  C   UNL     1       5.645   6.239  17.606  0.00  0.00    +0.000 A 
ENDBRANCH   9  10
ENDBRANCH   8   9
TORSDOF 2
ENDMDL
