MODEL 1
REMARK VINA RESULT:      -7.9      0.000      0.000
REMARK  Name = 
REMARK  5 active torsions:
REMARK  status: ('A' for Active; 'I' for Inactive)
REMARK    1  A    between atoms: C_1  and  C_2
REMARK    2  A    between atoms: N_4  and  C_5
REMARK    3  A    between atoms: N_8  and  O_10
REMARK    4  A    between atoms: C_11  and  C_12
REMARK    5  A    between atoms: C_12  and  O_13
REMARK                            x       y       z     vdW  Elec       q    Type
REMARK                         _______ _______ _______ _____ _____    ______ ____
ROOT
ATOM      1  C   UNL     1       5.226   4.552  18.168  0.00  0.00    +0.000 C 
ATOM      2  C   UNL     1       4.140   5.576  18.470  0.00  0.00    +0.000 C 
ATOM      3  C   UNL     1       3.372   4.748  19.418  0.00  0.00    +0.000 C 
ATOM      4  N   UNL     1       2.541   5.224  20.306  0.00  0.00    +0.000 N 
ATOM      5  O   UNL     1       1.844   4.436  21.011  0.00  0.00    +0.000 OA
ATOM      6  C   UNL     1       3.528   3.279  19.222  0.00  0.00    +0.000 C 
ATOM      7  O   UNL     1       4.585   3.260  18.220  0.00  0.00    +0.000 OA
ENDROOT
BRANCH   1  11
ATOM      8  C   UNL     1       5.411   3.704  13.272  0.00  0.00    +0.000 C 
ATOM      9  C   UNL     1       5.927   4.323  14.528  0.00  0.00    +0.000 A 
ATOM     10  C   UNL     1       5.365   4.161  15.731  0.00  0.00    +0.000 A 
ATOM     11  N   UNL     1       5.865   4.750  16.875  0.00  0.00    +0.000 N 
ATOM     12  C   UNL     1       6.974   5.588  16.831  0.00  0.00    +0.000 A 
ATOM     13  O   UNL     1       7.395   6.205  17.804  0.00  0.00    +0.000 OA
ATOM     14  N   UNL     1       7.577   5.713  15.609  0.00  0.00    +0.000 N 
ATOM     15  C   UNL     1       7.140   5.168  14.435  0.00  0.00    +0.000 A 
ATOM     16  O   UNL     1       7.708   5.378  13.368  0.00  0.00    +0.000 OA
ATOM     17  H   UNL     1       8.390   6.304  15.560  0.00  0.00    +0.000 HD
ENDBRANCH   1  11
BRANCH   4  18
ATOM     18  O   UNL     1       2.324   6.582  20.511  0.00  0.00    +0.000 OA
ATOM     19  H   UNL     1       2.299   6.960  19.626  0.00  0.00    +0.000 HD
ENDBRANCH   4  18
BRANCH   6  20
ATOM     20  C   UNL     1       3.963   2.448  20.426  0.00  0.00    +0.000 C 
BRANCH  20  21
ATOM     21  O   UNL     1       5.117   1.671  20.107  0.00  0.00    +0.000 OA
ATOM     22  H   UNL     1       5.556   2.132  19.370  0.00  0.00    +0.000 HD
ENDBRANCH  20  21
ENDBRANCH   6  20
TORSDOF 4
ENDMDL
MODEL 2
REMARK VINA RESULT:      -7.5      1.946      6.386
REMARK  Name = 
REMARK  5 active torsions:
REMARK  status: ('A' for Active; 'I' for Inactive)
REMARK    1  A    between atoms: C_1  and  C_2
REMARK    2  A    between atoms: N_4  and  C_5
REMARK    3  A    between atoms: N_8  and  O_10
REMARK    4  A    between atoms: C_11  and  C_12
REMARK    5  A    between atoms: C_12  and  O_13
REMARK                            x       y       z     vdW  Elec       q    Type
REMARK                         _______ _______ _______ _____ _____    ______ ____
ROOT
ATOM      1  C   UNL     1       5.213   4.074  18.610  0.00  0.00    +0.000 C 
ATOM      2  C   UNL     1       4.965   3.641  17.171  0.00  0.00    +0.000 C 
ATOM      3  C   UNL     1       5.834   4.644  16.530  0.00  0.00    +0.000 C 
ATOM      4  N   UNL     1       6.330   4.529  15.327  0.00  0.00    +0.000 N 
ATOM      5  O   UNL     1       6.983   5.485  14.813  0.00  0.00    +0.000 OA
ATOM      6  C   UNL     1       6.033   5.889  17.326  0.00  0.00    +0.000 C 
ATOM      7  O   UNL     1       5.387   5.507  18.573  0.00  0.00    +0.000 OA
ENDROOT
BRANCH   1  11
ATOM      8  C   UNL     1       0.697   4.952  20.496  0.00  0.00    +0.000 C 
ATOM      9  C   UNL     1       1.961   4.165  20.403  0.00  0.00    +0.000 A 
ATOM     10  C   UNL     1       2.974   4.467  19.582  0.00  0.00    +0.000 A 
ATOM     11  N   UNL     1       4.131   3.717  19.517  0.00  0.00    +0.000 N 
ATOM     12  C   UNL     1       4.293   2.569  20.284  0.00  0.00    +0.000 A 
ATOM     13  O   UNL     1       5.263   1.823  20.189  0.00  0.00    +0.000 OA
ATOM     14  N   UNL     1       3.279   2.290  21.158  0.00  0.00    +0.000 N 
ATOM     15  C   UNL     1       2.104   2.978  21.277  0.00  0.00    +0.000 A 
ATOM     16  O   UNL     1       1.217   2.626  22.048  0.00  0.00    +0.000 OA
ATOM     17  H   UNL     1       3.384   1.471  21.734  0.00  0.00    +0.000 HD
ENDBRANCH   1  11
BRANCH   4  18
ATOM     18  O   UNL     1       6.149   3.410  14.522  0.00  0.00    +0.000 OA
ATOM     19  H   UNL     1       5.281   3.073  14.765  0.00  0.00    +0.000 HD
ENDBRANCH   4  18
BRANCH   6  20
ATOM     20  C   UNL     1       7.468   6.321  17.615  0.00  0.00    +0.000 C 
BRANCH  20  21
ATOM     21  O   UNL     1       7.843   7.408  16.769  0.00  0.00    +0.000 OA
ATOM     22  H   UNL     1       8.562   7.072  16.204  0.00  0.00    +0.000 HD
ENDBRANCH  20  21
ENDBRANCH   6  20
TORSDOF 4
ENDMDL
MODEL 3
REMARK VINA RESULT:      -7.4      1.088      1.153
REMARK  Name = 
REMARK  5 active torsions:
REMARK  status: ('A' for Active; 'I' for Inactive)
REMARK    1  A    between atoms: C_1  and  C_2
REMARK    2  A    between atoms: N_4  and  C_5
REMARK    3  A    between atoms: N_8  and  O_10
REMARK    4  A    between atoms: C_11  and  C_12
REMARK    5  A    between atoms: C_12  and  O_13
REMARK                            x       y       z     vdW  Elec       q    Type
REMARK                         _______ _______ _______ _____ _____    ______ ____
ROOT
ATOM      1  C   UNL     1       4.826   4.243  17.697  0.00  0.00    +0.000 C 
ATOM      2  C   UNL     1       4.050   5.444  18.222  0.00  0.00    +0.000 C 
ATOM      3  C   UNL     1       2.946   4.688  18.839  0.00  0.00    +0.000 C 
ATOM      4  N   UNL     1       2.167   5.155  19.777  0.00  0.00    +0.000 N 
ATOM      5  O   UNL     1       1.176   4.476  20.180  0.00  0.00    +0.000 OA
ATOM      6  C   UNL     1       2.697   3.349  18.232  0.00  0.00    +0.000 C 
ATOM      7  O   UNL     1       3.838   3.256  17.331  0.00  0.00    +0.000 OA
ENDROOT
BRANCH   1  11
ATOM      8  C   UNL     1       5.978   3.689  12.892  0.00  0.00    +0.000 C 
ATOM      9  C   UNL     1       6.204   4.269  14.248  0.00  0.00    +0.000 A 
ATOM     10  C   UNL     1       5.443   4.001  15.315  0.00  0.00    +0.000 A 
ATOM     11  N   UNL     1       5.677   4.555  16.558  0.00  0.00    +0.000 N 
ATOM     12  C   UNL     1       6.708   5.465  16.761  0.00  0.00    +0.000 A 
ATOM     13  O   UNL     1       6.894   6.052  17.823  0.00  0.00    +0.000 OA
ATOM     14  N   UNL     1       7.516   5.699  15.682  0.00  0.00    +0.000 N 
ATOM     15  C   UNL     1       7.347   5.195  14.423  0.00  0.00    +0.000 A 
ATOM     16  O   UNL     1       8.085   5.502  13.493  0.00  0.00    +0.000 OA
ATOM     17  H   UNL     1       8.278   6.344  15.813  0.00  0.00    +0.000 HD
ENDBRANCH   1  11
BRANCH   4  18
ATOM     18  O   UNL     1       2.324   6.408  20.358  0.00  0.00    +0.000 OA
ATOM     19  H   UNL     1       2.347   7.020  19.615  0.00  0.00    +0.000 HD
ENDBRANCH   4  18
BRANCH   6  20
ATOM     20  C   UNL     1       2.691   2.141  19.163  0.00  0.00    +0.000 C 
BRANCH  20  21
ATOM     21  O   UNL     1       1.419   1.494  19.135  0.00  0.00    +0.000 OA
ATOM     22  H   UNL     1       1.111   1.468  20.059  0.00  0.00    +0.000 HD
ENDBRANCH  20  21
ENDBRANCH   6  20
TORSDOF 4
ENDMDL
MODEL 4
REMARK VINA RESULT:      -7.3      1.664      1.707
REMARK  Name = 
REMARK  5 active torsions:
REMARK  status: ('A' for Active; 'I' for Inactive)
REMARK    1  A    between atoms: C_1  and  C_2
REMARK    2  A    between atoms: N_4  and  C_5
REMARK    3  A    between atoms: N_8  and  O_10
REMARK    4  A    between atoms: C_11  and  C_12
REMARK    5  A    between atoms: C_12  and  O_13
REMARK                            x       y       z     vdW  Elec       q    Type
REMARK                         _______ _______ _______ _____ _____    ______ ____
ROOT
ATOM      1  C   UNL     1       4.591   4.142  17.741  0.00  0.00    +0.000 C 
ATOM      2  C   UNL     1       3.185   3.802  17.265  0.00  0.00    +0.000 C 
ATOM      3  C   UNL     1       2.812   2.946  18.405  0.00  0.00    +0.000 C 
ATOM      4  N   UNL     1       1.582   2.673  18.749  0.00  0.00    +0.000 N 
ATOM      5  O   UNL     1       1.351   1.844  19.679  0.00  0.00    +0.000 OA
ATOM      6  C   UNL     1       3.964   2.305  19.100  0.00  0.00    +0.000 C 
ATOM      7  O   UNL     1       5.074   2.971  18.433  0.00  0.00    +0.000 OA
ENDROOT
BRANCH   1  11
ATOM      8  C   UNL     1       6.113   3.635  13.035  0.00  0.00    +0.000 C 
ATOM      9  C   UNL     1       6.204   4.237  14.397  0.00  0.00    +0.000 A 
ATOM     10  C   UNL     1       5.389   3.927  15.411  0.00  0.00    +0.000 A 
ATOM     11  N   UNL     1       5.497   4.503  16.661  0.00  0.00    +0.000 N 
ATOM     12  C   UNL     1       6.450   5.481  16.926  0.00  0.00    +0.000 A 
ATOM     13  O   UNL     1       6.521   6.086  17.991  0.00  0.00    +0.000 OA
ATOM     14  N   UNL     1       7.314   5.761  15.903  0.00  0.00    +0.000 N 
ATOM     15  C   UNL     1       7.268   5.238  14.641  0.00  0.00    +0.000 A 
ATOM     16  O   UNL     1       8.048   5.588  13.762  0.00  0.00    +0.000 OA
ATOM     17  H   UNL     1       8.021   6.456  16.079  0.00  0.00    +0.000 HD
ENDBRANCH   1  11
BRANCH   4  18
ATOM     18  O   UNL     1       0.466   3.209  18.118  0.00  0.00    +0.000 OA
ATOM     19  H   UNL     1      -0.270   2.991  18.698  0.00  0.00    +0.000 HD
ENDBRANCH   4  18
BRANCH   6  20
ATOM     20  C   UNL     1       4.085   2.513  20.607  0.00  0.00    +0.000 C 
BRANCH  20  21
ATOM     21  O   UNL     1       5.139   1.711  21.140  0.00  0.00    +0.000 OA
ATOM     22  H   UNL     1       4.990   1.677  22.102  0.00  0.00    +0.000 HD
ENDBRANCH  20  21
ENDBRANCH   6  20
TORSDOF 4
ENDMDL
MODEL 5
REMARK VINA RESULT:      -6.9      2.233      5.982
REMARK  Name = 
REMARK  5 active torsions:
REMARK  status: ('A' for Active; 'I' for Inactive)
REMARK    1  A    between atoms: C_1  and  C_2
REMARK    2  A    between atoms: N_4  and  C_5
REMARK    3  A    between atoms: N_8  and  O_10
REMARK    4  A    between atoms: C_11  and  C_12
REMARK    5  A    between atoms: C_12  and  O_13
REMARK                            x       y       z     vdW  Elec       q    Type
REMARK                         _______ _______ _______ _____ _____    ______ ____
ROOT
ATOM      1  C   UNL     1       5.044   3.971  18.172  0.00  0.00    +0.000 C 
ATOM      2  C   UNL     1       5.082   4.595  16.784  0.00  0.00    +0.000 C 
ATOM      3  C   UNL     1       6.261   5.451  17.004  0.00  0.00    +0.000 C 
ATOM      4  N   UNL     1       7.008   5.938  16.050  0.00  0.00    +0.000 N 
ATOM      5  O   UNL     1       7.941   6.750  16.322  0.00  0.00    +0.000 OA
ATOM      6  C   UNL     1       6.495   5.828  18.428  0.00  0.00    +0.000 C 
ATOM      7  O   UNL     1       5.497   4.995  19.084  0.00  0.00    +0.000 OA
ENDROOT
BRANCH   1  11
ATOM      8  C   UNL     1       0.686   4.714  20.448  0.00  0.00    +0.000 C 
ATOM      9  C   UNL     1       1.642   3.882  19.659  0.00  0.00    +0.000 A 
ATOM     10  C   UNL     1       2.862   4.288  19.290  0.00  0.00    +0.000 A 
ATOM     11  N   UNL     1       3.723   3.496  18.558  0.00  0.00    +0.000 N 
ATOM     12  C   UNL     1       3.348   2.229  18.124  0.00  0.00    +0.000 A 
ATOM     13  O   UNL     1       4.044   1.530  17.395  0.00  0.00    +0.000 OA
ATOM     14  N   UNL     1       2.120   1.796  18.545  0.00  0.00    +0.000 N 
ATOM     15  C   UNL     1       1.212   2.521  19.264  0.00  0.00    +0.000 A 
ATOM     16  O   UNL     1       0.105   2.078  19.551  0.00  0.00    +0.000 OA
ATOM     17  H   UNL     1       1.836   0.876  18.254  0.00  0.00    +0.000 HD
ENDBRANCH   1  11
BRANCH   4  18
ATOM     18  O   UNL     1       6.819   5.654  14.702  0.00  0.00    +0.000 OA
ATOM     19  H   UNL     1       7.618   5.975  14.272  0.00  0.00    +0.000 HD
ENDBRANCH   4  18
BRANCH   6  20
ATOM     20  C   UNL     1       7.868   5.530  19.022  0.00  0.00    +0.000 C 
BRANCH  20  21
ATOM     21  O   UNL     1       7.797   5.484  20.447  0.00  0.00    +0.000 OA
ATOM     22  H   UNL     1       7.702   6.408  20.740  0.00  0.00    +0.000 HD
ENDBRANCH  20  21
ENDBRANCH   6  20
TORSDOF 4
ENDMDL
MODEL 6
REMARK VINA RESULT:      -6.9      1.500      2.269
REMARK  Name = 
REMARK  5 active torsions:
REMARK  status: ('A' for Active; 'I' for Inactive)
REMARK    1  A    between atoms: C_1  and  C_2
REMARK    2  A    between atoms: N_4  and  C_5
REMARK    3  A    between atoms: N_8  and  O_10
REMARK    4  A    between atoms: C_11  and  C_12
REMARK    5  A    between atoms: C_12  and  O_13
REMARK                            x       y       z     vdW  Elec       q    Type
REMARK                         _______ _______ _______ _____ _____    ______ ____
ROOT
ATOM      1  C   UNL     1       4.096   4.656  17.196  0.00  0.00    +0.000 C 
ATOM      2  C   UNL     1       3.696   3.198  17.378  0.00  0.00    +0.000 C 
ATOM      3  C   UNL     1       3.125   3.338  18.730  0.00  0.00    +0.000 C 
ATOM      4  N   UNL     1       2.275   2.500  19.261  0.00  0.00    +0.000 N 
ATOM      5  O   UNL     1       1.914   2.638  20.467  0.00  0.00    +0.000 OA
ATOM      6  C   UNL     1       3.678   4.474  19.521  0.00  0.00    +0.000 C 
ATOM      7  O   UNL     1       4.483   5.133  18.502  0.00  0.00    +0.000 OA
ENDROOT
BRANCH   1  11
ATOM      8  C   UNL     1       6.256   3.586  12.847  0.00  0.00    +0.000 C 
ATOM      9  C   UNL     1       6.194   4.310  14.151  0.00  0.00    +0.000 A 
ATOM     10  C   UNL     1       5.212   4.159  15.047  0.00  0.00    +0.000 A 
ATOM     11  N   UNL     1       5.181   4.844  16.244  0.00  0.00    +0.000 N 
ATOM     12  C   UNL     1       6.164   5.773  16.571  0.00  0.00    +0.000 A 
ATOM     13  O   UNL     1       6.127   6.471  17.579  0.00  0.00    +0.000 OA
ATOM     14  N   UNL     1       7.193   5.889  15.677  0.00  0.00    +0.000 N 
ATOM     15  C   UNL     1       7.291   5.251  14.473  0.00  0.00    +0.000 A 
ATOM     16  O   UNL     1       8.221   5.457  13.700  0.00  0.00    +0.000 OA
ATOM     17  H   UNL     1       7.922   6.546  15.903  0.00  0.00    +0.000 HD
ENDBRANCH   1  11
BRANCH   4  18
ATOM     18  O   UNL     1       1.751   1.402  18.589  0.00  0.00    +0.000 OA
ATOM     19  H   UNL     1       1.013   1.756  18.083  0.00  0.00    +0.000 HD
ENDBRANCH   4  18
BRANCH   6  20
ATOM     20  C   UNL     1       2.688   5.476  20.106  0.00  0.00    +0.000 C 
BRANCH  20  21
ATOM     21  O   UNL     1       2.423   5.177  21.476  0.00  0.00    +0.000 OA
ATOM     22  H   UNL     1       2.209   4.227  21.506  0.00  0.00    +0.000 HD
ENDBRANCH  20  21
ENDBRANCH   6  20
TORSDOF 4
ENDMDL
MODEL 7
REMARK VINA RESULT:      -6.9      2.059      6.227
REMARK  Name = 
REMARK  5 active torsions:
REMARK  status: ('A' for Active; 'I' for Inactive)
REMARK    1  A    between atoms: C_1  and  C_2
REMARK    2  A    between atoms: N_4  and  C_5
REMARK    3  A    between atoms: N_8  and  O_10
REMARK    4  A    between atoms: C_11  and  C_12
REMARK    5  A    between atoms: C_12  and  O_13
REMARK                            x       y       z     vdW  Elec       q    Type
REMARK                         _______ _______ _______ _____ _____    ______ ____
ROOT
ATOM      1  C   UNL     1       4.988   3.811  18.020  0.00  0.00    +0.000 C 
ATOM      2  C   UNL     1       4.831   3.896  16.508  0.00  0.00    +0.000 C 
ATOM      3  C   UNL     1       6.045   4.690  16.247  0.00  0.00    +0.000 C 
ATOM      4  N   UNL     1       6.651   4.751  15.091  0.00  0.00    +0.000 N 
ATOM      5  O   UNL     1       7.629   5.540  14.926  0.00  0.00    +0.000 OA
ATOM      6  C   UNL     1       6.494   5.529  17.394  0.00  0.00    +0.000 C 
ATOM      7  O   UNL     1       5.589   5.056  18.432  0.00  0.00    +0.000 OA
ENDROOT
BRANCH   1  11
ATOM      8  C   UNL     1       1.170   5.583  20.666  0.00  0.00    +0.000 C 
ATOM      9  C   UNL     1       1.911   4.478  19.990  0.00  0.00    +0.000 A 
ATOM     10  C   UNL     1       3.068   4.640  19.339  0.00  0.00    +0.000 A 
ATOM     11  N   UNL     1       3.730   3.598  18.722  0.00  0.00    +0.000 N 
ATOM     12  C   UNL     1       3.201   2.312  18.709  0.00  0.00    +0.000 A 
ATOM     13  O   UNL     1       3.707   1.378  18.095  0.00  0.00    +0.000 OA
ATOM     14  N   UNL     1       2.044   2.138  19.418  0.00  0.00    +0.000 N 
ATOM     15  C   UNL     1       1.329   3.117  20.049  0.00  0.00    +0.000 A 
ATOM     16  O   UNL     1       0.266   2.887  20.614  0.00  0.00    +0.000 OA
ATOM     17  H   UNL     1       1.652   1.211  19.434  0.00  0.00    +0.000 HD
ENDBRANCH   1  11
BRANCH   4  18
ATOM     18  O   UNL     1       6.259   4.022  13.975  0.00  0.00    +0.000 OA
ATOM     19  H   UNL     1       5.297   4.030  14.004  0.00  0.00    +0.000 HD
ENDBRANCH   4  18
BRANCH   6  20
ATOM     20  C   UNL     1       7.934   5.366  17.869  0.00  0.00    +0.000 C 
BRANCH  20  21
ATOM     21  O   UNL     1       8.363   4.013  17.709  0.00  0.00    +0.000 OA
ATOM     22  H   UNL     1       8.761   3.961  16.822  0.00  0.00    +0.000 HD
ENDBRANCH  20  21
ENDBRANCH   6  20
TORSDOF 4
ENDMDL
MODEL 8
REMARK VINA RESULT:      -6.7      1.761      2.186
REMARK  Name = 
REMARK  5 active torsions:
REMARK  status: ('A' for Active; 'I' for Inactive)
REMARK    1  A    between atoms: C_1  and  C_2
REMARK    2  A    between atoms: N_4  and  C_5
REMARK    3  A    between atoms: N_8  and  O_10
REMARK    4  A    between atoms: C_11  and  C_12
REMARK    5  A    between atoms: C_12  and  O_13
REMARK                            x       y       z     vdW  Elec       q    Type
REMARK                         _______ _______ _______ _____ _____    ______ ____
ROOT
ATOM      1  C   UNL     1       3.813   4.485  18.050  0.00  0.00    +0.000 C 
ATOM      2  C   UNL     1       2.788   3.462  17.580  0.00  0.00    +0.000 C 
ATOM      3  C   UNL     1       2.304   3.068  18.916  0.00  0.00    +0.000 C 
ATOM      4  N   UNL     1       1.150   2.499  19.143  0.00  0.00    +0.000 N 
ATOM      5  O   UNL     1       0.856   2.099  20.308  0.00  0.00    +0.000 OA
ATOM      6  C   UNL     1       3.290   3.268  20.015  0.00  0.00    +0.000 C 
ATOM      7  O   UNL     1       4.336   3.984  19.299  0.00  0.00    +0.000 OA
ENDROOT
BRANCH   1  11
ATOM      8  C   UNL     1       5.827   3.741  13.566  0.00  0.00    +0.000 C 
ATOM      9  C   UNL     1       5.834   4.326  14.938  0.00  0.00    +0.000 A 
ATOM     10  C   UNL     1       4.859   4.145  15.836  0.00  0.00    +0.000 A 
ATOM     11  N   UNL     1       4.893   4.702  17.099  0.00  0.00    +0.000 N 
ATOM     12  C   UNL     1       5.940   5.527  17.497  0.00  0.00    +0.000 A 
ATOM     13  O   UNL     1       5.965   6.117  18.572  0.00  0.00    +0.000 OA
ATOM     14  N   UNL     1       6.959   5.670  16.596  0.00  0.00    +0.000 N 
ATOM     15  C   UNL     1       6.996   5.157  15.330  0.00  0.00    +0.000 A 
ATOM     16  O   UNL     1       7.924   5.383  14.562  0.00  0.00    +0.000 OA
ATOM     17  H   UNL     1       7.734   6.252  16.871  0.00  0.00    +0.000 HD
ENDBRANCH   1  11
BRANCH   4  18
ATOM     18  O   UNL     1       0.204   2.252  18.155  0.00  0.00    +0.000 OA
ATOM     19  H   UNL     1       0.473   2.806  17.416  0.00  0.00    +0.000 HD
ENDBRANCH   4  18
BRANCH   6  20
ATOM     20  C   UNL     1       2.848   4.095  21.219  0.00  0.00    +0.000 C 
BRANCH  20  21
ATOM     21  O   UNL     1       2.413   3.243  22.279  0.00  0.00    +0.000 OA
ATOM     22  H   UNL     1       2.629   3.712  23.105  0.00  0.00    +0.000 HD
ENDBRANCH  20  21
ENDBRANCH   6  20
TORSDOF 4
ENDMDL
MODEL 9
REMARK VINA RESULT:      -6.7      1.557      2.383
REMARK  Name = 
REMARK  5 active torsions:
REMARK  status: ('A' for Active; 'I' for Inactive)
REMARK    1  A    between atoms: C_1  and  C_2
REMARK    2  A    between atoms: N_4  and  C_5
REMARK    3  A    between atoms: N_8  and  O_10
REMARK    4  A    between atoms: C_11  and  C_12
REMARK    5  A    between atoms: C_12  and  O_13
REMARK                            x       y       z     vdW  Elec       q    Type
REMARK                         _______ _______ _______ _____ _____    ______ ____
ROOT
ATOM      1  C   UNL     1       4.221   3.509  17.893  0.00  0.00    +0.000 C 
ATOM      2  C   UNL     1       4.822   3.030  19.207  0.00  0.00    +0.000 C 
ATOM      3  C   UNL     1       3.606   3.180  20.026  0.00  0.00    +0.000 C 
ATOM      4  N   UNL     1       3.398   2.561  21.156  0.00  0.00    +0.000 N 
ATOM      5  O   UNL     1       2.370   2.826  21.848  0.00  0.00    +0.000 OA
ATOM      6  C   UNL     1       2.641   4.197  19.519  0.00  0.00    +0.000 C 
ATOM      7  O   UNL     1       3.255   4.524  18.240  0.00  0.00    +0.000 OA
ENDROOT
BRANCH   1  11
ATOM      8  C   UNL     1       6.143   3.762  13.314  0.00  0.00    +0.000 C 
ATOM      9  C   UNL     1       6.107   4.142  14.757  0.00  0.00    +0.000 A 
ATOM     10  C   UNL     1       5.216   3.669  15.635  0.00  0.00    +0.000 A 
ATOM     11  N   UNL     1       5.207   4.043  16.964  0.00  0.00    +0.000 N 
ATOM     12  C   UNL     1       6.112   4.975  17.460  0.00  0.00    +0.000 A 
ATOM     13  O   UNL     1       6.080   5.405  18.608  0.00  0.00    +0.000 OA
ATOM     14  N   UNL     1       7.053   5.419  16.572  0.00  0.00    +0.000 N 
ATOM     15  C   UNL     1       7.124   5.102  15.245  0.00  0.00    +0.000 A 
ATOM     16  O   UNL     1       7.967   5.592  14.502  0.00  0.00    +0.000 OA
ATOM     17  H   UNL     1       7.727   6.084  16.915  0.00  0.00    +0.000 HD
ENDBRANCH   1  11
BRANCH   4  18
ATOM     18  O   UNL     1       4.275   1.629  21.699  0.00  0.00    +0.000 OA
ATOM     19  H   UNL     1       5.141   1.887  21.366  0.00  0.00    +0.000 HD
ENDBRANCH   4  18
BRANCH   6  20
ATOM     20  C   UNL     1       1.201   3.752  19.287  0.00  0.00    +0.000 C 
BRANCH  20  21
ATOM     21  O   UNL     1       0.397   4.041  20.431  0.00  0.00    +0.000 OA
ATOM     22  H   UNL     1      -0.501   4.206  20.093  0.00  0.00    +0.000 HD
ENDBRANCH  20  21
ENDBRANCH   6  20
TORSDOF 4
ENDMDL
