MODEL 1
REMARK VINA RESULT:      -9.4      0.000      0.000
REMARK  Name = 
REMARK  6 active torsions:
REMARK  status: ('A' for Active; 'I' for Inactive)
REMARK    1  A    between atoms: C_1  and  C_2
REMARK    2  A    between atoms: C_2  and  C_3
REMARK    3  A    between atoms: C_2  and  N_9
REMARK    4  A    between atoms: C_17  and  N_18
REMARK    5  A    between atoms: C_19  and  C_20
REMARK    6  A    between atoms: C_22  and  C_23
REMARK                            x       y       z     vdW  Elec       q    Type
REMARK                         _______ _______ _______ _____ _____    ______ ____
ROOT
ATOM      1  N   UNL     1       0.695   9.648  18.677  0.00  0.00    +0.000 NA
ATOM      2  C   UNL     1       0.984   9.328  20.088  0.00  0.00    +0.000 C 
ATOM      3  C   UNL     1       1.575   7.942  20.262  0.00  0.00    +0.000 C 
ATOM      4  O   UNL     1       1.440   7.319  21.316  0.00  0.00    +0.000 OA
ATOM      5  C   UNL     1       2.474   7.432  19.200  0.00  0.00    +0.000 C 
ATOM      6  C   UNL     1       2.623   8.174  18.094  0.00  0.00    +0.000 C 
ATOM      7  C   UNL     1       1.871   9.446  17.819  0.00  0.00    +0.000 C 
ATOM      8  O   UNL     1       3.534   7.829  17.104  0.00  0.00    +0.000 OA
ATOM      9  C   UNL     1       4.459   6.814  17.327  0.00  0.00    +0.000 C 
ATOM     10  C   UNL     1       4.374   6.014  18.409  0.00  0.00    +0.000 C 
ATOM     11  C   UNL     1       3.266   6.180  19.440  0.00  0.00    +0.000 C 
ENDROOT
BRANCH  11  12
ATOM     12  C   UNL     1       2.364   4.950  19.485  0.00  0.00    +0.000 A 
ATOM     13  C   UNL     1       1.802   4.456  18.297  0.00  0.00    +0.000 A 
ATOM     14  C   UNL     1       0.991   3.321  18.321  0.00  0.00    +0.000 A 
ATOM     15  C   UNL     1       0.730   2.675  19.528  0.00  0.00    +0.000 A 
ATOM     16  C   UNL     1       1.283   3.154  20.711  0.00  0.00    +0.000 A 
ATOM     17  C   UNL     1       2.097   4.286  20.695  0.00  0.00    +0.000 A 
ENDBRANCH  11  12
BRANCH   9  18
ATOM     18  N   UNL     1       5.412   6.735  16.341  0.00  0.00    +0.000 N 
ATOM     19  H   UNL     1       5.019   6.843  15.411  0.00  0.00    +0.000 HD
ATOM     20  H   UNL     1       6.056   5.951  16.413  0.00  0.00    +0.000 HD
ENDBRANCH   9  18
BRANCH   1  22
ATOM     21  C   UNL     1       0.330  11.865  19.793  0.00  0.00    +0.000 C 
ATOM     22  C   UNL     1       0.076  11.001  18.545  0.00  0.00    +0.000 C 
BRANCH  22  23
ATOM     23  C   UNL     1      -1.396  10.968  18.121  0.00  0.00    +0.000 A 
ATOM     24  C   UNL     1      -2.364  11.809  18.693  0.00  0.00    +0.000 A 
ATOM     25  C   UNL     1      -3.723  11.602  18.452  0.00  0.00    +0.000 A 
ATOM     26  C   UNL     1      -4.137  10.566  17.618  0.00  0.00    +0.000 A 
ATOM     27  C   UNL     1      -3.190   9.766  16.985  0.00  0.00    +0.000 A 
ATOM     28  C   UNL     1      -1.830   9.978  17.220  0.00  0.00    +0.000 A 
ENDBRANCH  22  23
ENDBRANCH   1  22
BRANCH  10  29
ATOM     29  C   UNL     1       5.340   4.991  18.645  0.00  0.00    +0.000 C 
ATOM     30  N   UNL     1       6.109   4.151  18.857  0.00  0.00    +0.000 NA
ENDBRANCH  10  29
TORSDOF 5
ENDMDL
MODEL 2
REMARK VINA RESULT:      -9.3      0.320      1.323
REMARK  Name = 
REMARK  6 active torsions:
REMARK  status: ('A' for Active; 'I' for Inactive)
REMARK    1  A    between atoms: C_1  and  C_2
REMARK    2  A    between atoms: C_2  and  C_3
REMARK    3  A    between atoms: C_2  and  N_9
REMARK    4  A    between atoms: C_17  and  N_18
REMARK    5  A    between atoms: C_19  and  C_20
REMARK    6  A    between atoms: C_22  and  C_23
REMARK                            x       y       z     vdW  Elec       q    Type
REMARK                         _______ _______ _______ _____ _____    ______ ____
ROOT
ATOM      1  N   UNL     1       0.497   9.536  18.688  0.00  0.00    +0.000 NA
ATOM      2  C   UNL     1       0.842   9.272  20.098  0.00  0.00    +0.000 C 
ATOM      3  C   UNL     1       1.506   7.923  20.293  0.00  0.00    +0.000 C 
ATOM      4  O   UNL     1       1.433   7.326  21.369  0.00  0.00    +0.000 OA
ATOM      5  C   UNL     1       2.397   7.425  19.218  0.00  0.00    +0.000 C 
ATOM      6  C   UNL     1       2.477   8.140  18.088  0.00  0.00    +0.000 C 
ATOM      7  C   UNL     1       1.654   9.365  17.800  0.00  0.00    +0.000 C 
ATOM      8  O   UNL     1       3.373   7.810  17.080  0.00  0.00    +0.000 OA
ATOM      9  C   UNL     1       4.353   6.847  17.303  0.00  0.00    +0.000 C 
ATOM     10  C   UNL     1       4.340   6.077  18.410  0.00  0.00    +0.000 C 
ATOM     11  C   UNL     1       3.256   6.221  19.470  0.00  0.00    +0.000 C 
ENDROOT
BRANCH  11  12
ATOM     12  C   UNL     1       2.418   4.950  19.578  0.00  0.00    +0.000 A 
ATOM     13  C   UNL     1       2.256   4.327  20.826  0.00  0.00    +0.000 A 
ATOM     14  C   UNL     1       1.478   3.176  20.943  0.00  0.00    +0.000 A 
ATOM     15  C   UNL     1       0.860   2.634  19.817  0.00  0.00    +0.000 A 
ATOM     16  C   UNL     1       1.011   3.244  18.575  0.00  0.00    +0.000 A 
ATOM     17  C   UNL     1       1.785   4.397  18.451  0.00  0.00    +0.000 A 
ENDBRANCH  11  12
BRANCH   9  18
ATOM     18  N   UNL     1       5.279   6.785  16.291  0.00  0.00    +0.000 N 
ATOM     19  H   UNL     1       6.229   6.922  16.624  0.00  0.00    +0.000 HD
ATOM     20  H   UNL     1       5.064   7.334  15.463  0.00  0.00    +0.000 HD
ENDBRANCH   9  18
BRANCH   1  22
ATOM     21  C   UNL     1      -0.072  11.705  19.813  0.00  0.00    +0.000 C 
ATOM     22  C   UNL     1      -0.192  10.853  18.537  0.00  0.00    +0.000 C 
BRANCH  22  23
ATOM     23  C   UNL     1      -1.628  10.743  18.015  0.00  0.00    +0.000 A 
ATOM     24  C   UNL     1      -1.958  10.006  16.866  0.00  0.00    +0.000 A 
ATOM     25  C   UNL     1      -3.225  10.108  16.290  0.00  0.00    +0.000 A 
ATOM     26  C   UNL     1      -4.190  10.931  16.863  0.00  0.00    +0.000 A 
ATOM     27  C   UNL     1      -3.906  11.616  18.041  0.00  0.00    +0.000 A 
ATOM     28  C   UNL     1      -2.642  11.508  18.623  0.00  0.00    +0.000 A 
ENDBRANCH  22  23
ENDBRANCH   1  22
BRANCH  10  29
ATOM     29  C   UNL     1       5.361   5.110  18.644  0.00  0.00    +0.000 C 
ATOM     30  N   UNL     1       6.203   4.341  18.852  0.00  0.00    +0.000 NA
ENDBRANCH  10  29
TORSDOF 5
ENDMDL
MODEL 3
REMARK VINA RESULT:      -8.2      1.982      7.437
REMARK  Name = 
REMARK  6 active torsions:
REMARK  status: ('A' for Active; 'I' for Inactive)
REMARK    1  A    between atoms: C_1  and  C_2
REMARK    2  A    between atoms: C_2  and  C_3
REMARK    3  A    between atoms: C_2  and  N_9
REMARK    4  A    between atoms: C_17  and  N_18
REMARK    5  A    between atoms: C_19  and  C_20
REMARK    6  A    between atoms: C_22  and  C_23
REMARK                            x       y       z     vdW  Elec       q    Type
REMARK                         _______ _______ _______ _____ _____    ______ ____
ROOT
ATOM      1  N   UNL     1       2.566   6.800  18.575  0.00  0.00    +0.000 NA
ATOM      2  C   UNL     1       3.024   8.060  17.957  0.00  0.00    +0.000 C 
ATOM      3  C   UNL     1       2.048   9.201  18.168  0.00  0.00    +0.000 C 
ATOM      4  O   UNL     1       1.988  10.144  17.378  0.00  0.00    +0.000 OA
ATOM      5  C   UNL     1       1.298   9.246  19.446  0.00  0.00    +0.000 C 
ATOM      6  C   UNL     1       1.438   8.216  20.293  0.00  0.00    +0.000 C 
ATOM      7  C   UNL     1       2.235   6.976  19.995  0.00  0.00    +0.000 C 
ATOM      8  O   UNL     1       0.865   8.231  21.558  0.00  0.00    +0.000 OA
ATOM      9  C   UNL     1       0.300   9.402  22.055  0.00  0.00    +0.000 C 
ATOM     10  C   UNL     1       0.113  10.480  21.268  0.00  0.00    +0.000 C 
ATOM     11  C   UNL     1       0.510  10.474  19.798  0.00  0.00    +0.000 C 
ENDROOT
BRANCH  11  12
ATOM     12  C   UNL     1      -0.710  10.631  18.895  0.00  0.00    +0.000 A 
ATOM     13  C   UNL     1      -0.969  11.870  18.286  0.00  0.00    +0.000 A 
ATOM     14  C   UNL     1      -2.071  12.023  17.444  0.00  0.00    +0.000 A 
ATOM     15  C   UNL     1      -2.924  10.946  17.208  0.00  0.00    +0.000 A 
ATOM     16  C   UNL     1      -2.676   9.714  17.805  0.00  0.00    +0.000 A 
ATOM     17  C   UNL     1      -1.575   9.552  18.645  0.00  0.00    +0.000 A 
ENDBRANCH  11  12
BRANCH   9  18
ATOM     18  N   UNL     1      -0.034   9.309  23.384  0.00  0.00    +0.000 N 
ATOM     19  H   UNL     1      -0.270  10.209  23.790  0.00  0.00    +0.000 HD
ATOM     20  H   UNL     1       0.603   8.767  23.962  0.00  0.00    +0.000 HD
ENDBRANCH   9  18
BRANCH   1  22
ATOM     21  C   UNL     1       4.372   5.954  17.053  0.00  0.00    +0.000 C 
ATOM     22  C   UNL     1       3.528   5.688  18.312  0.00  0.00    +0.000 C 
BRANCH  22  23
ATOM     23  C   UNL     1       2.885   4.297  18.328  0.00  0.00    +0.000 A 
ATOM     24  C   UNL     1       1.493   4.111  18.337  0.00  0.00    +0.000 A 
ATOM     25  C   UNL     1       0.942   2.852  18.578  0.00  0.00    +0.000 A 
ATOM     26  C   UNL     1       1.772   1.754  18.794  0.00  0.00    +0.000 A 
ATOM     27  C   UNL     1       3.153   1.905  18.720  0.00  0.00    +0.000 A 
ATOM     28  C   UNL     1       3.705   3.162  18.470  0.00  0.00    +0.000 A 
ENDBRANCH  22  23
ENDBRANCH   1  22
BRANCH  10  29
ATOM     29  C   UNL     1      -0.445  11.684  21.791  0.00  0.00    +0.000 C 
ATOM     30  N   UNL     1      -0.883  12.659  22.238  0.00  0.00    +0.000 NA
ENDBRANCH  10  29
TORSDOF 5
ENDMDL
MODEL 4
REMARK VINA RESULT:      -8.1      2.018      4.024
REMARK  Name = 
REMARK  6 active torsions:
REMARK  status: ('A' for Active; 'I' for Inactive)
REMARK    1  A    between atoms: C_1  and  C_2
REMARK    2  A    between atoms: C_2  and  C_3
REMARK    3  A    between atoms: C_2  and  N_9
REMARK    4  A    between atoms: C_17  and  N_18
REMARK    5  A    between atoms: C_19  and  C_20
REMARK    6  A    between atoms: C_22  and  C_23
REMARK                            x       y       z     vdW  Elec       q    Type
REMARK                         _______ _______ _______ _____ _____    ______ ____
ROOT
ATOM      1  N   UNL     1       1.711   8.527  20.441  0.00  0.00    +0.000 NA
ATOM      2  C   UNL     1       1.729   8.567  18.966  0.00  0.00    +0.000 C 
ATOM      3  C   UNL     1       2.584   7.469  18.363  0.00  0.00    +0.000 C 
ATOM      4  O   UNL     1       3.105   7.602  17.255  0.00  0.00    +0.000 OA
ATOM      5  C   UNL     1       2.624   6.160  19.058  0.00  0.00    +0.000 C 
ATOM      6  C   UNL     1       1.998   6.056  20.238  0.00  0.00    +0.000 C 
ATOM      7  C   UNL     1       1.331   7.202  20.948  0.00  0.00    +0.000 C 
ATOM      8  O   UNL     1       1.887   4.840  20.899  0.00  0.00    +0.000 OA
ATOM      9  C   UNL     1       2.250   3.659  20.256  0.00  0.00    +0.000 C 
ATOM     10  C   UNL     1       2.893   3.675  19.072  0.00  0.00    +0.000 C 
ATOM     11  C   UNL     1       3.256   4.981  18.377  0.00  0.00    +0.000 C 
ENDROOT
BRANCH  11  12
ATOM     12  C   UNL     1       4.769   5.146  18.265  0.00  0.00    +0.000 A 
ATOM     13  C   UNL     1       5.384   5.086  17.004  0.00  0.00    +0.000 A 
ATOM     14  C   UNL     1       6.764   5.253  16.886  0.00  0.00    +0.000 A 
ATOM     15  C   UNL     1       7.540   5.475  18.022  0.00  0.00    +0.000 A 
ATOM     16  C   UNL     1       6.942   5.538  19.276  0.00  0.00    +0.000 A 
ATOM     17  C   UNL     1       5.563   5.375  19.402  0.00  0.00    +0.000 A 
ENDBRANCH  11  12
BRANCH   9  18
ATOM     18  N   UNL     1       1.891   2.537  20.961  0.00  0.00    +0.000 N 
ATOM     19  H   UNL     1       2.129   2.605  21.946  0.00  0.00    +0.000 HD
ATOM     20  H   UNL     1       2.163   1.649  20.546  0.00  0.00    +0.000 HD
ENDBRANCH   9  18
BRANCH   1  22
ATOM     21  C   UNL     1      -0.180   9.132  21.974  0.00  0.00    +0.000 C 
ATOM     22  C   UNL     1       0.896   9.646  21.002  0.00  0.00    +0.000 C 
BRANCH  22  23
ATOM     23  C   UNL     1       0.345  10.602  19.939  0.00  0.00    +0.000 A 
ATOM     24  C   UNL     1       0.996  11.798  19.592  0.00  0.00    +0.000 A 
ATOM     25  C   UNL     1       0.362  12.750  18.792  0.00  0.00    +0.000 A 
ATOM     26  C   UNL     1      -0.923  12.515  18.309  0.00  0.00    +0.000 A 
ATOM     27  C   UNL     1      -1.557  11.307  18.583  0.00  0.00    +0.000 A 
ATOM     28  C   UNL     1      -0.920  10.351  19.376  0.00  0.00    +0.000 A 
ENDBRANCH  22  23
ENDBRANCH   1  22
BRANCH  10  29
ATOM     29  C   UNL     1       3.240   2.462  18.407  0.00  0.00    +0.000 C 
ATOM     30  N   UNL     1       3.539   1.471  17.887  0.00  0.00    +0.000 NA
ENDBRANCH  10  29
TORSDOF 5
ENDMDL
MODEL 5
REMARK VINA RESULT:      -7.9      1.998      7.551
REMARK  Name = 
REMARK  6 active torsions:
REMARK  status: ('A' for Active; 'I' for Inactive)
REMARK    1  A    between atoms: C_1  and  C_2
REMARK    2  A    between atoms: C_2  and  C_3
REMARK    3  A    between atoms: C_2  and  N_9
REMARK    4  A    between atoms: C_17  and  N_18
REMARK    5  A    between atoms: C_19  and  C_20
REMARK    6  A    between atoms: C_22  and  C_23
REMARK                            x       y       z     vdW  Elec       q    Type
REMARK                         _______ _______ _______ _____ _____    ______ ____
ROOT
ATOM      1  N   UNL     1       2.547   7.002  18.660  0.00  0.00    +0.000 NA
ATOM      2  C   UNL     1       2.959   8.278  18.042  0.00  0.00    +0.000 C 
ATOM      3  C   UNL     1       1.908   9.362  18.187  0.00  0.00    +0.000 C 
ATOM      4  O   UNL     1       1.831  10.287  17.377  0.00  0.00    +0.000 OA
ATOM      5  C   UNL     1       1.097   9.381  19.427  0.00  0.00    +0.000 C 
ATOM      6  C   UNL     1       1.257   8.375  20.298  0.00  0.00    +0.000 C 
ATOM      7  C   UNL     1       2.139   7.180  20.060  0.00  0.00    +0.000 C 
ATOM      8  O   UNL     1       0.625   8.375  21.534  0.00  0.00    +0.000 OA
ATOM      9  C   UNL     1      -0.032   9.517  21.983  0.00  0.00    +0.000 C 
ATOM     10  C   UNL     1      -0.244  10.570  21.169  0.00  0.00    +0.000 C 
ATOM     11  C   UNL     1       0.223  10.565  19.719  0.00  0.00    +0.000 C 
ENDROOT
BRANCH  11  12
ATOM     12  C   UNL     1      -0.960  10.636  18.758  0.00  0.00    +0.000 A 
ATOM     13  C   UNL     1      -1.818   9.531  18.627  0.00  0.00    +0.000 A 
ATOM     14  C   UNL     1      -2.913   9.589  17.766  0.00  0.00    +0.000 A 
ATOM     15  C   UNL     1      -3.159  10.744  17.025  0.00  0.00    +0.000 A 
ATOM     16  C   UNL     1      -2.317  11.845  17.147  0.00  0.00    +0.000 A 
ATOM     17  C   UNL     1      -1.222  11.796  18.009  0.00  0.00    +0.000 A 
ENDBRANCH  11  12
BRANCH   9  18
ATOM     18  N   UNL     1      -0.423   9.424  23.297  0.00  0.00    +0.000 N 
ATOM     19  H   UNL     1      -1.087   8.671  23.452  0.00  0.00    +0.000 HD
ATOM     20  H   UNL     1      -0.702  10.298  23.736  0.00  0.00    +0.000 HD
ENDBRANCH   9  18
BRANCH   1  22
ATOM     21  C   UNL     1       4.274   6.078  17.093  0.00  0.00    +0.000 C 
ATOM     22  C   UNL     1       3.585   5.946  18.462  0.00  0.00    +0.000 C 
BRANCH  22  23
ATOM     23  C   UNL     1       3.086   4.527  18.756  0.00  0.00    +0.000 A 
ATOM     24  C   UNL     1       3.875   3.574  19.420  0.00  0.00    +0.000 A 
ATOM     25  C   UNL     1       3.485   2.235  19.473  0.00  0.00    +0.000 A 
ATOM     26  C   UNL     1       2.291   1.830  18.881  0.00  0.00    +0.000 A 
ATOM     27  C   UNL     1       1.461   2.771  18.279  0.00  0.00    +0.000 A 
ATOM     28  C   UNL     1       1.847   4.112  18.234  0.00  0.00    +0.000 A 
ENDBRANCH  22  23
ENDBRANCH   1  22
BRANCH  10  29
ATOM     29  C   UNL     1      -0.896  11.746  21.643  0.00  0.00    +0.000 C 
ATOM     30  N   UNL     1      -1.401  12.712  22.035  0.00  0.00    +0.000 NA
ENDBRANCH  10  29
TORSDOF 5
ENDMDL
MODEL 6
REMARK VINA RESULT:      -7.9      1.854      4.004
REMARK  Name = 
REMARK  6 active torsions:
REMARK  status: ('A' for Active; 'I' for Inactive)
REMARK    1  A    between atoms: C_1  and  C_2
REMARK    2  A    between atoms: C_2  and  C_3
REMARK    3  A    between atoms: C_2  and  N_9
REMARK    4  A    between atoms: C_17  and  N_18
REMARK    5  A    between atoms: C_19  and  C_20
REMARK    6  A    between atoms: C_22  and  C_23
REMARK                            x       y       z     vdW  Elec       q    Type
REMARK                         _______ _______ _______ _____ _____    ______ ____
ROOT
ATOM      1  N   UNL     1       1.655   8.989  20.422  0.00  0.00    +0.000 NA
ATOM      2  C   UNL     1       1.621   9.047  18.948  0.00  0.00    +0.000 C 
ATOM      3  C   UNL     1       2.426   7.935  18.302  0.00  0.00    +0.000 C 
ATOM      4  O   UNL     1       2.911   8.069  17.178  0.00  0.00    +0.000 OA
ATOM      5  C   UNL     1       2.458   6.617  18.980  0.00  0.00    +0.000 C 
ATOM      6  C   UNL     1       1.871   6.514  20.180  0.00  0.00    +0.000 C 
ATOM      7  C   UNL     1       1.260   7.668  20.927  0.00  0.00    +0.000 C 
ATOM      8  O   UNL     1       1.754   5.293  20.830  0.00  0.00    +0.000 OA
ATOM      9  C   UNL     1       2.062   4.112  20.161  0.00  0.00    +0.000 C 
ATOM     10  C   UNL     1       2.664   4.127  18.955  0.00  0.00    +0.000 C 
ATOM     11  C   UNL     1       3.034   5.432  18.263  0.00  0.00    +0.000 C 
ENDROOT
BRANCH  11  12
ATOM     12  C   UNL     1       4.546   5.560  18.099  0.00  0.00    +0.000 A 
ATOM     13  C   UNL     1       5.376   5.499  19.230  0.00  0.00    +0.000 A 
ATOM     14  C   UNL     1       6.761   5.596  19.093  0.00  0.00    +0.000 A 
ATOM     15  C   UNL     1       7.327   5.760  17.830  0.00  0.00    +0.000 A 
ATOM     16  C   UNL     1       6.515   5.821  16.701  0.00  0.00    +0.000 A 
ATOM     17  C   UNL     1       5.131   5.721  16.831  0.00  0.00    +0.000 A 
ENDBRANCH  11  12
BRANCH   9  18
ATOM     18  N   UNL     1       1.700   2.990  20.866  0.00  0.00    +0.000 N 
ATOM     19  H   UNL     1       2.443   2.656  21.473  0.00  0.00    +0.000 HD
ATOM     20  H   UNL     1       1.268   2.248  20.322  0.00  0.00    +0.000 HD
ENDBRANCH   9  18
BRANCH   1  22
ATOM     21  C   UNL     1       0.206   9.707  22.340  0.00  0.00    +0.000 C 
ATOM     22  C   UNL     1       0.889  10.121  21.025  0.00  0.00    +0.000 C 
BRANCH  22  23
ATOM     23  C   UNL     1      -0.058  10.818  20.043  0.00  0.00    +0.000 A 
ATOM     24  C   UNL     1      -1.105  10.142  19.397  0.00  0.00    +0.000 A 
ATOM     25  C   UNL     1      -1.803  10.741  18.347  0.00  0.00    +0.000 A 
ATOM     26  C   UNL     1      -1.480  12.033  17.938  0.00  0.00    +0.000 A 
ATOM     27  C   UNL     1      -0.493  12.746  18.611  0.00  0.00    +0.000 A 
ATOM     28  C   UNL     1       0.200  12.151  19.667  0.00  0.00    +0.000 A 
ENDBRANCH  22  23
ENDBRANCH   1  22
BRANCH  10  29
ATOM     29  C   UNL     1       2.955   2.914  18.264  0.00  0.00    +0.000 C 
ATOM     30  N   UNL     1       3.186   1.914  17.726  0.00  0.00    +0.000 NA
ENDBRANCH  10  29
TORSDOF 5
ENDMDL
MODEL 7
REMARK VINA RESULT:      -7.9      1.902      7.590
REMARK  Name = 
REMARK  6 active torsions:
REMARK  status: ('A' for Active; 'I' for Inactive)
REMARK    1  A    between atoms: C_1  and  C_2
REMARK    2  A    between atoms: C_2  and  C_3
REMARK    3  A    between atoms: C_2  and  N_9
REMARK    4  A    between atoms: C_17  and  N_18
REMARK    5  A    between atoms: C_19  and  C_20
REMARK    6  A    between atoms: C_22  and  C_23
REMARK                            x       y       z     vdW  Elec       q    Type
REMARK                         _______ _______ _______ _____ _____    ______ ____
ROOT
ATOM      1  N   UNL     1       2.117   7.116  19.363  0.00  0.00    +0.000 NA
ATOM      2  C   UNL     1       2.605   8.213  18.504  0.00  0.00    +0.000 C 
ATOM      3  C   UNL     1       1.592   9.332  18.356  0.00  0.00    +0.000 C 
ATOM      4  O   UNL     1       1.587  10.060  17.362  0.00  0.00    +0.000 OA
ATOM      5  C   UNL     1       0.729   9.646  19.519  0.00  0.00    +0.000 C 
ATOM      6  C   UNL     1       0.810   8.850  20.594  0.00  0.00    +0.000 C 
ATOM      7  C   UNL     1       1.654   7.608  20.668  0.00  0.00    +0.000 C 
ATOM      8  O   UNL     1       0.125   9.139  21.767  0.00  0.00    +0.000 OA
ATOM      9  C   UNL     1      -0.505  10.370  21.923  0.00  0.00    +0.000 C 
ATOM     10  C   UNL     1      -0.640  11.225  20.890  0.00  0.00    +0.000 C 
ATOM     11  C   UNL     1      -0.111  10.889  19.502  0.00  0.00    +0.000 C 
ENDROOT
BRANCH  11  12
ATOM     12  C   UNL     1      -1.246  10.782  18.488  0.00  0.00    +0.000 A 
ATOM     13  C   UNL     1      -2.098   9.665  18.513  0.00  0.00    +0.000 A 
ATOM     14  C   UNL     1      -3.151   9.563  17.605  0.00  0.00    +0.000 A 
ATOM     15  C   UNL     1      -3.360  10.568  16.662  0.00  0.00    +0.000 A 
ATOM     16  C   UNL     1      -2.524  11.680  16.628  0.00  0.00    +0.000 A 
ATOM     17  C   UNL     1      -1.471  11.791  17.535  0.00  0.00    +0.000 A 
ENDBRANCH  11  12
BRANCH   9  18
ATOM     18  N   UNL     1      -0.957  10.579  23.203  0.00  0.00    +0.000 N 
ATOM     19  H   UNL     1      -1.245   9.718  23.658  0.00  0.00    +0.000 HD
ATOM     20  H   UNL     1      -1.630  11.333  23.316  0.00  0.00    +0.000 HD
ENDBRANCH   9  18
BRANCH   1  22
ATOM     21  C   UNL     1       4.241   6.179  18.413  0.00  0.00    +0.000 C 
ATOM     22  C   UNL     1       3.120   6.013  19.453  0.00  0.00    +0.000 C 
BRANCH  22  23
ATOM     23  C   UNL     1       2.499   4.612  19.456  0.00  0.00    +0.000 A 
ATOM     24  C   UNL     1       2.351   3.851  18.286  0.00  0.00    +0.000 A 
ATOM     25  C   UNL     1       1.584   2.685  18.283  0.00  0.00    +0.000 A 
ATOM     26  C   UNL     1       0.969   2.248  19.454  0.00  0.00    +0.000 A 
ATOM     27  C   UNL     1       1.161   2.950  20.641  0.00  0.00    +0.000 A 
ATOM     28  C   UNL     1       1.935   4.112  20.645  0.00  0.00    +0.000 A 
ENDBRANCH  22  23
ENDBRANCH   1  22
BRANCH  10  29
ATOM     29  C   UNL     1      -1.266  12.495  21.062  0.00  0.00    +0.000 C 
ATOM     30  N   UNL     1      -1.790  13.516  21.223  0.00  0.00    +0.000 NA
ENDBRANCH  10  29
TORSDOF 5
ENDMDL
MODEL 8
REMARK VINA RESULT:      -7.8      2.006      7.750
REMARK  Name = 
REMARK  6 active torsions:
REMARK  status: ('A' for Active; 'I' for Inactive)
REMARK    1  A    between atoms: C_1  and  C_2
REMARK    2  A    between atoms: C_2  and  C_3
REMARK    3  A    between atoms: C_2  and  N_9
REMARK    4  A    between atoms: C_17  and  N_18
REMARK    5  A    between atoms: C_19  and  C_20
REMARK    6  A    between atoms: C_22  and  C_23
REMARK                            x       y       z     vdW  Elec       q    Type
REMARK                         _______ _______ _______ _____ _____    ______ ____
ROOT
ATOM      1  N   UNL     1       2.348   6.487  18.626  0.00  0.00    +0.000 NA
ATOM      2  C   UNL     1       2.933   7.686  17.994  0.00  0.00    +0.000 C 
ATOM      3  C   UNL     1       2.095   8.930  18.218  0.00  0.00    +0.000 C 
ATOM      4  O   UNL     1       2.127   9.872  17.424  0.00  0.00    +0.000 OA
ATOM      5  C   UNL     1       1.378   9.062  19.509  0.00  0.00    +0.000 C 
ATOM      6  C   UNL     1       1.417   8.025  20.357  0.00  0.00    +0.000 C 
ATOM      7  C   UNL     1       2.064   6.703  20.051  0.00  0.00    +0.000 C 
ATOM      8  O   UNL     1       0.873   8.107  21.632  0.00  0.00    +0.000 OA
ATOM      9  C   UNL     1       0.451   9.335  22.134  0.00  0.00    +0.000 C 
ATOM     10  C   UNL     1       0.371  10.425  21.345  0.00  0.00    +0.000 C 
ATOM     11  C   UNL     1       0.739  10.371  19.868  0.00  0.00    +0.000 C 
ENDROOT
BRANCH  11  12
ATOM     12  C   UNL     1      -0.472  10.662  18.987  0.00  0.00    +0.000 A 
ATOM     13  C   UNL     1      -0.640  11.943  18.436  0.00  0.00    +0.000 A 
ATOM     14  C   UNL     1      -1.733  12.217  17.613  0.00  0.00    +0.000 A 
ATOM     15  C   UNL     1      -2.667  11.220  17.339  0.00  0.00    +0.000 A 
ATOM     16  C   UNL     1      -2.511   9.947  17.877  0.00  0.00    +0.000 A 
ATOM     17  C   UNL     1      -1.420   9.664  18.698  0.00  0.00    +0.000 A 
ENDBRANCH  11  12
BRANCH   9  18
ATOM     18  N   UNL     1       0.132   9.283  23.469  0.00  0.00    +0.000 N 
ATOM     19  H   UNL     1       0.699   9.913  24.028  0.00  0.00    +0.000 HD
ATOM     20  H   UNL     1       0.060   8.351  23.869  0.00  0.00    +0.000 HD
ENDBRANCH   9  18
BRANCH   1  22
ATOM     21  C   UNL     1       2.903   4.157  19.374  0.00  0.00    +0.000 C 
ATOM     22  C   UNL     1       3.175   5.274  18.351  0.00  0.00    +0.000 C 
BRANCH  22  23
ATOM     23  C   UNL     1       4.667   5.573  18.163  0.00  0.00    +0.000 A 
ATOM     24  C   UNL     1       5.237   5.795  16.899  0.00  0.00    +0.000 A 
ATOM     25  C   UNL     1       6.623   5.839  16.738  0.00  0.00    +0.000 A 
ATOM     26  C   UNL     1       7.461   5.684  17.839  0.00  0.00    +0.000 A 
ATOM     27  C   UNL     1       6.914   5.533  19.110  0.00  0.00    +0.000 A 
ATOM     28  C   UNL     1       5.529   5.497  19.273  0.00  0.00    +0.000 A 
ENDBRANCH  22  23
ENDBRANCH   1  22
BRANCH  10  29
ATOM     29  C   UNL     1      -0.039  11.686  21.872  0.00  0.00    +0.000 C 
ATOM     30  N   UNL     1      -0.388  12.696  22.318  0.00  0.00    +0.000 NA
ENDBRANCH  10  29
TORSDOF 5
ENDMDL
MODEL 9
REMARK VINA RESULT:      -7.8      1.146      2.798
REMARK  Name = 
REMARK  6 active torsions:
REMARK  status: ('A' for Active; 'I' for Inactive)
REMARK    1  A    between atoms: C_1  and  C_2
REMARK    2  A    between atoms: C_2  and  C_3
REMARK    3  A    between atoms: C_2  and  N_9
REMARK    4  A    between atoms: C_17  and  N_18
REMARK    5  A    between atoms: C_19  and  C_20
REMARK    6  A    between atoms: C_22  and  C_23
REMARK                            x       y       z     vdW  Elec       q    Type
REMARK                         _______ _______ _______ _____ _____    ______ ____
ROOT
ATOM      1  N   UNL     1       0.464   9.591  19.102  0.00  0.00    +0.000 NA
ATOM      2  C   UNL     1       0.843   9.226  20.481  0.00  0.00    +0.000 C 
ATOM      3  C   UNL     1       1.475   7.850  20.566  0.00  0.00    +0.000 C 
ATOM      4  O   UNL     1       1.418   7.185  21.602  0.00  0.00    +0.000 OA
ATOM      5  C   UNL     1       2.321   7.403  19.434  0.00  0.00    +0.000 C 
ATOM      6  C   UNL     1       2.387   8.188  18.351  0.00  0.00    +0.000 C 
ATOM      7  C   UNL     1       1.590   9.451  18.170  0.00  0.00    +0.000 C 
ATOM      8  O   UNL     1       3.244   7.904  17.296  0.00  0.00    +0.000 OA
ATOM      9  C   UNL     1       4.204   6.904  17.426  0.00  0.00    +0.000 C 
ATOM     10  C   UNL     1       4.202   6.063  18.479  0.00  0.00    +0.000 C 
ATOM     11  C   UNL     1       3.154   6.163  19.579  0.00  0.00    +0.000 C 
ENDROOT
BRANCH  11  12
ATOM     12  C   UNL     1       2.285   4.910  19.630  0.00  0.00    +0.000 A 
ATOM     13  C   UNL     1       1.690   4.428  18.453  0.00  0.00    +0.000 A 
ATOM     14  C   UNL     1       0.909   3.273  18.481  0.00  0.00    +0.000 A 
ATOM     15  C   UNL     1       0.710   2.594  19.682  0.00  0.00    +0.000 A 
ATOM     16  C   UNL     1       1.295   3.061  20.854  0.00  0.00    +0.000 A 
ATOM     17  C   UNL     1       2.080   4.213  20.833  0.00  0.00    +0.000 A 
ENDBRANCH  11  12
BRANCH   9  18
ATOM     18  N   UNL     1       5.098   6.886  16.383  0.00  0.00    +0.000 N 
ATOM     19  H   UNL     1       6.056   7.020  16.691  0.00  0.00    +0.000 HD
ATOM     20  H   UNL     1       4.852   7.462  15.582  0.00  0.00    +0.000 HD
ENDBRANCH   9  18
BRANCH   1  22
ATOM     21  C   UNL     1      -1.123  11.070  17.841  0.00  0.00    +0.000 C 
ATOM     22  C   UNL     1      -0.193  10.932  19.060  0.00  0.00    +0.000 C 
BRANCH  22  23
ATOM     23  C   UNL     1       0.783  12.103  19.214  0.00  0.00    +0.000 A 
ATOM     24  C   UNL     1       1.296  12.806  18.112  0.00  0.00    +0.000 A 
ATOM     25  C   UNL     1       2.347  13.711  18.267  0.00  0.00    +0.000 A 
ATOM     26  C   UNL     1       2.889  13.945  19.529  0.00  0.00    +0.000 A 
ATOM     27  C   UNL     1       2.348  13.311  20.644  0.00  0.00    +0.000 A 
ATOM     28  C   UNL     1       1.291  12.412  20.490  0.00  0.00    +0.000 A 
ENDBRANCH  22  23
ENDBRANCH   1  22
BRANCH  10  29
ATOM     29  C   UNL     1       5.203   5.057  18.618  0.00  0.00    +0.000 C 
ATOM     30  N   UNL     1       6.000   4.226  18.748  0.00  0.00    +0.000 NA
ENDBRANCH  10  29
TORSDOF 5
ENDMDL
