MODEL 1
REMARK VINA RESULT:      -7.8      0.000      0.000
REMARK  Name = 
REMARK  6 active torsions:
REMARK  status: ('A' for Active; 'I' for Inactive)
REMARK    1  A    between atoms: C_2  and  O_3
REMARK    2  A    between atoms: C_2  and  C_28
REMARK    3  A    between atoms: O_3  and  C_4
REMARK    4  A    between atoms: C_7  and  O_8
REMARK    5  A    between atoms: O_8  and  C_9
REMARK    6  A    between atoms: C_9  and  C_11
REMARK                            x       y       z     vdW  Elec       q    Type
REMARK                         _______ _______ _______ _____ _____    ______ ____
ROOT
ATOM      1  C   UNL     1      -1.015  11.457  20.304  0.00  0.00    +0.000 A 
ATOM      2  C   UNL     1      -1.474  12.303  21.323  0.00  0.00    +0.000 A 
ATOM      3  C   UNL     1      -2.755  12.853  21.235  0.00  0.00    +0.000 A 
ATOM      4  C   UNL     1      -3.533  12.623  20.088  0.00  0.00    +0.000 A 
ATOM      5  C   UNL     1      -3.067  11.811  19.017  0.00  0.00    +0.000 A 
ATOM      6  C   UNL     1      -3.828  11.528  17.857  0.00  0.00    +0.000 A 
ATOM      7  C   UNL     1      -3.302  10.800  16.794  0.00  0.00    +0.000 A 
ATOM      8 CL   UNL     1      -4.242  10.571  15.370  0.00  0.00    +0.000 Cl
ATOM      9  C   UNL     1      -2.023  10.279  16.877  0.00  0.00    +0.000 A 
ATOM     10  C   UNL     1      -1.273  10.475  18.040  0.00  0.00    +0.000 A 
ATOM     11  C   UNL     1      -1.769  11.239  19.121  0.00  0.00    +0.000 A 
ATOM     12  O   UNL     1      -3.295  13.610  22.249  0.00  0.00    +0.000 OA
ATOM     13  C   UNL     1      -2.625  13.352  23.488  0.00  0.00    +0.000 C 
ATOM     14  C   UNL     1      -1.121  13.474  23.321  0.00  0.00    +0.000 C 
ATOM     15  O   UNL     1      -0.622  12.535  22.373  0.00  0.00    +0.000 OA
ENDROOT
BRANCH   1  16
ATOM     16  O   UNL     1       0.276  10.872  20.413  0.00  0.00    +0.000 OA
BRANCH  16  18
ATOM     17  O   UNL     1      -0.172   9.131  21.914  0.00  0.00    +0.000 OA
ATOM     18  C   UNL     1       0.362   9.571  20.905  0.00  0.00    +0.000 C 
BRANCH  18  19
ATOM     19  C   UNL     1       1.217   8.729  20.014  0.00  0.00    +0.000 A 
ATOM     20  C   UNL     1       1.556   9.224  18.742  0.00  0.00    +0.000 A 
ATOM     21  C   UNL     1       2.377   8.485  17.884  0.00  0.00    +0.000 A 
ATOM     22  C   UNL     1       2.870   7.247  18.291  0.00  0.00    +0.000 A 
ATOM     23  C   UNL     1       2.525   6.738  19.543  0.00  0.00    +0.000 A 
ATOM     24  C   UNL     1       1.701   7.474  20.404  0.00  0.00    +0.000 A 
ENDBRANCH  18  19
ENDBRANCH  16  18
ENDBRANCH   1  16
BRANCH   4  25
ATOM     25  O   UNL     1      -4.887  13.066  20.133  0.00  0.00    +0.000 OA
BRANCH  25  26
ATOM     26  C   UNL     1      -5.893  12.335  20.751  0.00  0.00    +0.000 C 
ATOM     27  O   UNL     1      -6.166  11.158  20.560  0.00  0.00    +0.000 OA
BRANCH  26  28
ATOM     28  C   UNL     1      -6.484  13.168  21.846  0.00  0.00    +0.000 A 
ATOM     29  C   UNL     1      -6.634  14.550  21.651  0.00  0.00    +0.000 A 
ATOM     30  C   UNL     1      -7.277  15.335  22.616  0.00  0.00    +0.000 A 
ATOM     31  C   UNL     1      -7.772  14.749  23.780  0.00  0.00    +0.000 A 
ATOM     32  C   UNL     1      -7.617  13.380  23.988  0.00  0.00    +0.000 A 
ATOM     33  C   UNL     1      -6.974  12.593  23.029  0.00  0.00    +0.000 A 
ENDBRANCH  26  28
ENDBRANCH  25  26
ENDBRANCH   4  25
TORSDOF 6
ENDMDL
MODEL 2
REMARK VINA RESULT:      -7.7      2.035      3.756
REMARK  Name = 
REMARK  6 active torsions:
REMARK  status: ('A' for Active; 'I' for Inactive)
REMARK    1  A    between atoms: C_2  and  O_3
REMARK    2  A    between atoms: C_2  and  C_28
REMARK    3  A    between atoms: O_3  and  C_4
REMARK    4  A    between atoms: C_7  and  O_8
REMARK    5  A    between atoms: O_8  and  C_9
REMARK    6  A    between atoms: C_9  and  C_11
REMARK                            x       y       z     vdW  Elec       q    Type
REMARK                         _______ _______ _______ _____ _____    ______ ____
ROOT
ATOM      1  C   UNL     1      -1.396  11.460  19.877  0.00  0.00    +0.000 A 
ATOM      2  C   UNL     1      -2.135  11.139  18.731  0.00  0.00    +0.000 A 
ATOM      3  C   UNL     1      -3.436  11.629  18.592  0.00  0.00    +0.000 A 
ATOM      4  C   UNL     1      -4.017  12.365  19.638  0.00  0.00    +0.000 A 
ATOM      5  C   UNL     1      -3.304  12.659  20.834  0.00  0.00    +0.000 A 
ATOM      6  C   UNL     1      -3.839  13.421  21.901  0.00  0.00    +0.000 A 
ATOM      7  C   UNL     1      -3.139  13.612  23.089  0.00  0.00    +0.000 A 
ATOM      8 CL   UNL     1      -3.881  14.466  24.386  0.00  0.00    +0.000 Cl
ATOM      9  C   UNL     1      -1.861  13.102  23.229  0.00  0.00    +0.000 A 
ATOM     10  C   UNL     1      -1.274  12.410  22.166  0.00  0.00    +0.000 A 
ATOM     11  C   UNL     1      -1.974  12.171  20.961  0.00  0.00    +0.000 A 
ATOM     12  O   UNL     1      -4.173  11.428  17.447  0.00  0.00    +0.000 OA
ATOM     13  C   UNL     1      -3.319  11.117  16.341  0.00  0.00    +0.000 C 
ATOM     14  C   UNL     1      -2.363   9.995  16.699  0.00  0.00    +0.000 C 
ATOM     15  O   UNL     1      -1.519  10.354  17.790  0.00  0.00    +0.000 OA
ENDROOT
BRANCH   1  16
ATOM     16  O   UNL     1      -0.060  10.987  20.000  0.00  0.00    +0.000 OA
BRANCH  16  18
ATOM     17  O   UNL     1      -0.369   9.341  21.637  0.00  0.00    +0.000 OA
ATOM     18  C   UNL     1       0.137   9.745  20.599  0.00  0.00    +0.000 C 
BRANCH  18  19
ATOM     19  C   UNL     1       1.080   8.916  19.788  0.00  0.00    +0.000 A 
ATOM     20  C   UNL     1       1.421   9.355  18.495  0.00  0.00    +0.000 A 
ATOM     21  C   UNL     1       2.322   8.628  17.710  0.00  0.00    +0.000 A 
ATOM     22  C   UNL     1       2.894   7.460  18.210  0.00  0.00    +0.000 A 
ATOM     23  C   UNL     1       2.548   7.006  19.482  0.00  0.00    +0.000 A 
ATOM     24  C   UNL     1       1.645   7.729  20.272  0.00  0.00    +0.000 A 
ENDBRANCH  18  19
ENDBRANCH  16  18
ENDBRANCH   1  16
BRANCH   4  25
ATOM     25  O   UNL     1      -5.274  12.980  19.368  0.00  0.00    +0.000 OA
BRANCH  25  26
ATOM     26  C   UNL     1      -6.484  12.340  19.599  0.00  0.00    +0.000 C 
ATOM     27  O   UNL     1      -6.959  11.415  18.954  0.00  0.00    +0.000 OA
BRANCH  26  28
ATOM     28  C   UNL     1      -7.046  12.836  20.896  0.00  0.00    +0.000 A 
ATOM     29  C   UNL     1      -7.366  11.911  21.903  0.00  0.00    +0.000 A 
ATOM     30  C   UNL     1      -7.795  12.354  23.159  0.00  0.00    +0.000 A 
ATOM     31  C   UNL     1      -7.910  13.719  23.419  0.00  0.00    +0.000 A 
ATOM     32  C   UNL     1      -7.607  14.644  22.423  0.00  0.00    +0.000 A 
ATOM     33  C   UNL     1      -7.180  14.206  21.167  0.00  0.00    +0.000 A 
ENDBRANCH  26  28
ENDBRANCH  25  26
ENDBRANCH   4  25
TORSDOF 6
ENDMDL
MODEL 3
REMARK VINA RESULT:      -7.6      2.015      3.743
REMARK  Name = 
REMARK  6 active torsions:
REMARK  status: ('A' for Active; 'I' for Inactive)
REMARK    1  A    between atoms: C_2  and  O_3
REMARK    2  A    between atoms: C_2  and  C_28
REMARK    3  A    between atoms: O_3  and  C_4
REMARK    4  A    between atoms: C_7  and  O_8
REMARK    5  A    between atoms: O_8  and  C_9
REMARK    6  A    between atoms: C_9  and  C_11
REMARK                            x       y       z     vdW  Elec       q    Type
REMARK                         _______ _______ _______ _____ _____    ______ ____
ROOT
ATOM      1  C   UNL     1      -1.182  11.331  19.684  0.00  0.00    +0.000 A 
ATOM      2  C   UNL     1      -1.976  11.032  18.568  0.00  0.00    +0.000 A 
ATOM      3  C   UNL     1      -3.272  11.545  18.490  0.00  0.00    +0.000 A 
ATOM      4  C   UNL     1      -3.795  12.283  19.566  0.00  0.00    +0.000 A 
ATOM      5  C   UNL     1      -3.025  12.555  20.731  0.00  0.00    +0.000 A 
ATOM      6  C   UNL     1      -3.500  13.318  21.826  0.00  0.00    +0.000 A 
ATOM      7  C   UNL     1      -2.746  13.488  22.983  0.00  0.00    +0.000 A 
ATOM      8 CL   UNL     1      -3.415  14.344  24.318  0.00  0.00    +0.000 Cl
ATOM      9  C   UNL     1      -1.472  12.954  23.065  0.00  0.00    +0.000 A 
ATOM     10  C   UNL     1      -0.944  12.261  21.972  0.00  0.00    +0.000 A 
ATOM     11  C   UNL     1      -1.699  12.044  20.797  0.00  0.00    +0.000 A 
ATOM     12  O   UNL     1      -4.062  11.366  17.377  0.00  0.00    +0.000 OA
ATOM     13  C   UNL     1      -3.262  11.049  16.232  0.00  0.00    +0.000 C 
ATOM     14  C   UNL     1      -2.311   9.908  16.541  0.00  0.00    +0.000 C 
ATOM     15  O   UNL     1      -1.415  10.243  17.596  0.00  0.00    +0.000 OA
ENDROOT
BRANCH   1  16
ATOM     16  O   UNL     1       0.150  10.834  19.745  0.00  0.00    +0.000 OA
BRANCH  16  18
ATOM     17  O   UNL     1      -0.158   9.207  21.401  0.00  0.00    +0.000 OA
ATOM     18  C   UNL     1       0.356   9.603  20.364  0.00  0.00    +0.000 C 
BRANCH  18  19
ATOM     19  C   UNL     1       1.321   8.776  19.577  0.00  0.00    +0.000 A 
ATOM     20  C   UNL     1       1.818   7.593  20.151  0.00  0.00    +0.000 A 
ATOM     21  C   UNL     1       2.700   6.772  19.442  0.00  0.00    +0.000 A 
ATOM     22  C   UNL     1       3.090   7.123  18.151  0.00  0.00    +0.000 A 
ATOM     23  C   UNL     1       2.619   8.304  17.579  0.00  0.00    +0.000 A 
ATOM     24  C   UNL     1       1.736   9.131  18.287  0.00  0.00    +0.000 A 
ENDBRANCH  18  19
ENDBRANCH  16  18
ENDBRANCH   1  16
BRANCH   4  25
ATOM     25  O   UNL     1      -5.051  12.922  19.355  0.00  0.00    +0.000 OA
BRANCH  25  26
ATOM     26  C   UNL     1      -6.260  12.318  19.676  0.00  0.00    +0.000 C 
ATOM     27  O   UNL     1      -6.765  11.352  19.121  0.00  0.00    +0.000 OA
BRANCH  26  28
ATOM     28  C   UNL     1      -6.772  12.921  20.947  0.00  0.00    +0.000 A 
ATOM     29  C   UNL     1      -6.889  14.317  21.045  0.00  0.00    +0.000 A 
ATOM     30  C   UNL     1      -7.460  14.900  22.182  0.00  0.00    +0.000 A 
ATOM     31  C   UNL     1      -7.916  14.098  23.228  0.00  0.00    +0.000 A 
ATOM     32  C   UNL     1      -7.794  12.713  23.144  0.00  0.00    +0.000 A 
ATOM     33  C   UNL     1      -7.222  12.126  22.013  0.00  0.00    +0.000 A 
ENDBRANCH  26  28
ENDBRANCH  25  26
ENDBRANCH   4  25
TORSDOF 6
ENDMDL
MODEL 4
REMARK VINA RESULT:      -7.3      2.101      8.436
REMARK  Name = 
REMARK  6 active torsions:
REMARK  status: ('A' for Active; 'I' for Inactive)
REMARK    1  A    between atoms: C_2  and  O_3
REMARK    2  A    between atoms: C_2  and  C_28
REMARK    3  A    between atoms: O_3  and  C_4
REMARK    4  A    between atoms: C_7  and  O_8
REMARK    5  A    between atoms: O_8  and  C_9
REMARK    6  A    between atoms: C_9  and  C_11
REMARK                            x       y       z     vdW  Elec       q    Type
REMARK                         _______ _______ _______ _____ _____    ______ ____
ROOT
ATOM      1  C   UNL     1      -4.046  12.491  19.396  0.00  0.00    +0.000 A 
ATOM      2  C   UNL     1      -3.471  11.659  18.426  0.00  0.00    +0.000 A 
ATOM      3  C   UNL     1      -2.141  11.256  18.567  0.00  0.00    +0.000 A 
ATOM      4  C   UNL     1      -1.372  11.756  19.632  0.00  0.00    +0.000 A 
ATOM      5  C   UNL     1      -1.920  12.643  20.600  0.00  0.00    +0.000 A 
ATOM      6  C   UNL     1      -1.192  13.148  21.705  0.00  0.00    +0.000 A 
ATOM      7  C   UNL     1      -1.740  14.081  22.580  0.00  0.00    +0.000 A 
ATOM      8 CL   UNL     1      -0.773  14.730  23.847  0.00  0.00    +0.000 Cl
ATOM      9  C   UNL     1      -3.050  14.496  22.419  0.00  0.00    +0.000 A 
ATOM     10  C   UNL     1      -3.821  13.959  21.383  0.00  0.00    +0.000 A 
ATOM     11  C   UNL     1      -3.280  13.036  20.459  0.00  0.00    +0.000 A 
ATOM     12  O   UNL     1      -1.553  10.364  17.700  0.00  0.00    +0.000 OA
ATOM     13  C   UNL     1      -2.545   9.599  17.006  0.00  0.00    +0.000 C 
ATOM     14  C   UNL     1      -3.590  10.510  16.388  0.00  0.00    +0.000 C 
ATOM     15  O   UNL     1      -4.269  11.276  17.378  0.00  0.00    +0.000 OA
ENDROOT
BRANCH   1  16
ATOM     16  O   UNL     1      -5.410  12.873  19.266  0.00  0.00    +0.000 OA
BRANCH  16  18
ATOM     17  O   UNL     1      -6.771  10.986  19.537  0.00  0.00    +0.000 OA
ATOM     18  C   UNL     1      -6.370  12.084  19.898  0.00  0.00    +0.000 C 
BRANCH  18  19
ATOM     19  C   UNL     1      -6.875  12.760  21.131  0.00  0.00    +0.000 A 
ATOM     20  C   UNL     1      -7.360  14.077  21.026  0.00  0.00    +0.000 A 
ATOM     21  C   UNL     1      -7.869  14.740  22.147  0.00  0.00    +0.000 A 
ATOM     22  C   UNL     1      -7.904  14.094  23.380  0.00  0.00    +0.000 A 
ATOM     23  C   UNL     1      -7.408  12.796  23.500  0.00  0.00    +0.000 A 
ATOM     24  C   UNL     1      -6.895  12.128  22.381  0.00  0.00    +0.000 A 
ENDBRANCH  18  19
ENDBRANCH  16  18
ENDBRANCH   1  16
BRANCH   4  25
ATOM     25  O   UNL     1      -0.083  11.177  19.819  0.00  0.00    +0.000 OA
BRANCH  25  26
ATOM     26  C   UNL     1       0.114  10.015  20.552  0.00  0.00    +0.000 C 
ATOM     27  O   UNL     1      -0.486   9.675  21.562  0.00  0.00    +0.000 OA
BRANCH  26  28
ATOM     28  C   UNL     1       1.062   9.132  19.801  0.00  0.00    +0.000 A 
ATOM     29  C   UNL     1       1.498   7.935  20.391  0.00  0.00    +0.000 A 
ATOM     30  C   UNL     1       2.301   7.043  19.671  0.00  0.00    +0.000 A 
ATOM     31  C   UNL     1       2.677   7.338  18.361  0.00  0.00    +0.000 A 
ATOM     32  C   UNL     1       2.258   8.529  17.770  0.00  0.00    +0.000 A 
ATOM     33  C   UNL     1       1.459   9.423  18.486  0.00  0.00    +0.000 A 
ENDBRANCH  26  28
ENDBRANCH  25  26
ENDBRANCH   4  25
TORSDOF 6
ENDMDL
MODEL 5
REMARK VINA RESULT:      -7.2      0.674      7.879
REMARK  Name = 
REMARK  6 active torsions:
REMARK  status: ('A' for Active; 'I' for Inactive)
REMARK    1  A    between atoms: C_2  and  O_3
REMARK    2  A    between atoms: C_2  and  C_28
REMARK    3  A    between atoms: O_3  and  C_4
REMARK    4  A    between atoms: C_7  and  O_8
REMARK    5  A    between atoms: O_8  and  C_9
REMARK    6  A    between atoms: C_9  and  C_11
REMARK                            x       y       z     vdW  Elec       q    Type
REMARK                         _______ _______ _______ _____ _____    ______ ____
ROOT
ATOM      1  C   UNL     1      -3.746  12.738  20.235  0.00  0.00    +0.000 A 
ATOM      2  C   UNL     1      -2.879  12.821  21.333  0.00  0.00    +0.000 A 
ATOM      3  C   UNL     1      -1.639  12.182  21.280  0.00  0.00    +0.000 A 
ATOM      4  C   UNL     1      -1.310  11.394  20.164  0.00  0.00    +0.000 A 
ATOM      5  C   UNL     1      -2.196  11.252  19.060  0.00  0.00    +0.000 A 
ATOM      6  C   UNL     1      -1.894  10.494  17.903  0.00  0.00    +0.000 A 
ATOM      7  C   UNL     1      -2.823  10.310  16.883  0.00  0.00    +0.000 A 
ATOM      8 CL   UNL     1      -2.433   9.298  15.547  0.00  0.00    +0.000 Cl
ATOM      9  C   UNL     1      -4.061  10.925  16.955  0.00  0.00    +0.000 A 
ATOM     10  C   UNL     1      -4.362  11.743  18.047  0.00  0.00    +0.000 A 
ATOM     11  C   UNL     1      -3.451  11.920  19.113  0.00  0.00    +0.000 A 
ATOM     12  O   UNL     1      -0.709  12.309  22.286  0.00  0.00    +0.000 OA
ATOM     13  C   UNL     1      -0.967  13.478  23.073  0.00  0.00    +0.000 C 
ATOM     14  C   UNL     1      -2.415  13.512  23.524  0.00  0.00    +0.000 C 
ATOM     15  O   UNL     1      -3.308  13.550  22.414  0.00  0.00    +0.000 OA
ENDROOT
BRANCH   1  16
ATOM     16  O   UNL     1      -4.995  13.417  20.280  0.00  0.00    +0.000 OA
BRANCH  16  18
ATOM     17  O   UNL     1      -6.375  11.686  21.042  0.00  0.00    +0.000 OA
ATOM     18  C   UNL     1      -6.015  12.855  21.044  0.00  0.00    +0.000 C 
BRANCH  18  19
ATOM     19  C   UNL     1      -6.647  13.890  21.917  0.00  0.00    +0.000 A 
ATOM     20  C   UNL     1      -7.204  15.032  21.312  0.00  0.00    +0.000 A 
ATOM     21  C   UNL     1      -7.832  16.014  22.085  0.00  0.00    +0.000 A 
ATOM     22  C   UNL     1      -7.914  15.862  23.468  0.00  0.00    +0.000 A 
ATOM     23  C   UNL     1      -7.348  14.744  24.080  0.00  0.00    +0.000 A 
ATOM     24  C   UNL     1      -6.716  13.759  23.310  0.00  0.00    +0.000 A 
ENDBRANCH  18  19
ENDBRANCH  16  18
ENDBRANCH   1  16
BRANCH   4  25
ATOM     25  O   UNL     1       0.030  10.912  20.092  0.00  0.00    +0.000 OA
BRANCH  25  26
ATOM     26  C   UNL     1       0.451   9.773  20.765  0.00  0.00    +0.000 C 
ATOM     27  O   UNL     1       0.128   9.427  21.893  0.00  0.00    +0.000 OA
BRANCH  26  28
ATOM     28  C   UNL     1       1.229   8.917  19.814  0.00  0.00    +0.000 A 
ATOM     29  C   UNL     1       1.516   9.406  18.530  0.00  0.00    +0.000 A 
ATOM     30  C   UNL     1       2.328   8.671  17.658  0.00  0.00    +0.000 A 
ATOM     31  C   UNL     1       2.856   7.444  18.060  0.00  0.00    +0.000 A 
ATOM     32  C   UNL     1       2.567   6.945  19.328  0.00  0.00    +0.000 A 
ATOM     33  C   UNL     1       1.755   7.675  20.200  0.00  0.00    +0.000 A 
ENDBRANCH  26  28
ENDBRANCH  25  26
ENDBRANCH   4  25
TORSDOF 6
ENDMDL
MODEL 6
REMARK VINA RESULT:      -7.2      1.759      2.543
REMARK  Name = 
REMARK  6 active torsions:
REMARK  status: ('A' for Active; 'I' for Inactive)
REMARK    1  A    between atoms: C_2  and  O_3
REMARK    2  A    between atoms: C_2  and  C_28
REMARK    3  A    between atoms: O_3  and  C_4
REMARK    4  A    between atoms: C_7  and  O_8
REMARK    5  A    between atoms: O_8  and  C_9
REMARK    6  A    between atoms: C_9  and  C_11
REMARK                            x       y       z     vdW  Elec       q    Type
REMARK                         _______ _______ _______ _____ _____    ______ ____
ROOT
ATOM      1  C   UNL     1       0.097  11.311  19.258  0.00  0.00    +0.000 A 
ATOM      2  C   UNL     1       0.592  12.449  19.908  0.00  0.00    +0.000 A 
ATOM      3  C   UNL     1      -0.291  13.463  20.286  0.00  0.00    +0.000 A 
ATOM      4  C   UNL     1      -1.649  13.369  19.936  0.00  0.00    +0.000 A 
ATOM      5  C   UNL     1      -2.165  12.247  19.230  0.00  0.00    +0.000 A 
ATOM      6  C   UNL     1      -3.530  12.097  18.883  0.00  0.00    +0.000 A 
ATOM      7  C   UNL     1      -3.978  11.025  18.117  0.00  0.00    +0.000 A 
ATOM      8 CL   UNL     1      -5.631  10.948  17.646  0.00  0.00    +0.000 Cl
ATOM      9  C   UNL     1      -3.093  10.037  17.723  0.00  0.00    +0.000 A 
ATOM     10  C   UNL     1      -1.753  10.116  18.114  0.00  0.00    +0.000 A 
ATOM     11  C   UNL     1      -1.263  11.210  18.863  0.00  0.00    +0.000 A 
ATOM     12  O   UNL     1       0.122  14.557  21.012  0.00  0.00    +0.000 OA
ATOM     13  C   UNL     1       1.354  14.282  21.689  0.00  0.00    +0.000 C 
ATOM     14  C   UNL     1       2.383  13.719  20.725  0.00  0.00    +0.000 C 
ATOM     15  O   UNL     1       1.942  12.495  20.146  0.00  0.00    +0.000 OA
ENDROOT
BRANCH   1  16
ATOM     16  O   UNL     1       0.994  10.265  18.903  0.00  0.00    +0.000 OA
BRANCH  16  18
ATOM     17  O   UNL     1       0.629   9.096  20.899  0.00  0.00    +0.000 OA
ATOM     18  C   UNL     1       1.133   9.199  19.789  0.00  0.00    +0.000 C 
BRANCH  18  19
ATOM     19  C   UNL     1       2.005   8.138  19.199  0.00  0.00    +0.000 A 
ATOM     20  C   UNL     1       2.584   8.367  17.938  0.00  0.00    +0.000 A 
ATOM     21  C   UNL     1       3.430   7.416  17.358  0.00  0.00    +0.000 A 
ATOM     22  C   UNL     1       3.708   6.230  18.035  0.00  0.00    +0.000 A 
ATOM     23  C   UNL     1       3.123   5.984  19.277  0.00  0.00    +0.000 A 
ATOM     24  C   UNL     1       2.274   6.933  19.860  0.00  0.00    +0.000 A 
ENDBRANCH  18  19
ENDBRANCH  16  18
ENDBRANCH   1  16
BRANCH   4  25
ATOM     25  O   UNL     1      -2.523  14.345  20.498  0.00  0.00    +0.000 OA
BRANCH  25  26
ATOM     26  C   UNL     1      -3.126  14.183  21.738  0.00  0.00    +0.000 C 
ATOM     27  O   UNL     1      -2.597  14.317  22.832  0.00  0.00    +0.000 OA
BRANCH  26  28
ATOM     28  C   UNL     1      -4.598  14.000  21.532  0.00  0.00    +0.000 A 
ATOM     29  C   UNL     1      -5.203  12.798  21.936  0.00  0.00    +0.000 A 
ATOM     30  C   UNL     1      -6.591  12.641  21.850  0.00  0.00    +0.000 A 
ATOM     31  C   UNL     1      -7.385  13.678  21.360  0.00  0.00    +0.000 A 
ATOM     32  C   UNL     1      -6.793  14.870  20.946  0.00  0.00    +0.000 A 
ATOM     33  C   UNL     1      -5.408  15.030  21.028  0.00  0.00    +0.000 A 
ENDBRANCH  26  28
ENDBRANCH  25  26
ENDBRANCH   4  25
TORSDOF 6
ENDMDL
MODEL 7
REMARK VINA RESULT:      -7.1      9.120     11.548
REMARK  Name = 
REMARK  6 active torsions:
REMARK  status: ('A' for Active; 'I' for Inactive)
REMARK    1  A    between atoms: C_2  and  O_3
REMARK    2  A    between atoms: C_2  and  C_28
REMARK    3  A    between atoms: O_3  and  C_4
REMARK    4  A    between atoms: C_7  and  O_8
REMARK    5  A    between atoms: O_8  and  C_9
REMARK    6  A    between atoms: C_9  and  C_11
REMARK                            x       y       z     vdW  Elec       q    Type
REMARK                         _______ _______ _______ _____ _____    ______ ____
ROOT
ATOM      1  C   UNL     1       9.149  15.353  20.011  0.00  0.00    +0.000 A 
ATOM      2  C   UNL     1       9.413  15.801  21.313  0.00  0.00    +0.000 A 
ATOM      3  C   UNL     1       8.357  15.960  22.212  0.00  0.00    +0.000 A 
ATOM      4  C   UNL     1       7.036  15.751  21.779  0.00  0.00    +0.000 A 
ATOM      5  C   UNL     1       6.740  15.347  20.448  0.00  0.00    +0.000 A 
ATOM      6  C   UNL     1       5.428  15.097  19.976  0.00  0.00    +0.000 A 
ATOM      7  C   UNL     1       5.175  14.786  18.643  0.00  0.00    +0.000 A 
ATOM      8 CL   UNL     1       3.551  14.588  18.109  0.00  0.00    +0.000 Cl
ATOM      9  C   UNL     1       6.224  14.656  17.750  0.00  0.00    +0.000 A 
ATOM     10  C   UNL     1       7.537  14.821  18.201  0.00  0.00    +0.000 A 
ATOM     11  C   UNL     1       7.822  15.170  19.541  0.00  0.00    +0.000 A 
ATOM     12  O   UNL     1       8.565  16.303  23.528  0.00  0.00    +0.000 OA
ATOM     13  C   UNL     1       9.908  16.005  23.925  0.00  0.00    +0.000 C 
ATOM     14  C   UNL     1      10.902  16.591  22.939  0.00  0.00    +0.000 C 
ATOM     15  O   UNL     1      10.723  16.053  21.632  0.00  0.00    +0.000 OA
ENDROOT
BRANCH   1  16
ATOM     16  O   UNL     1      10.230  15.160  19.107  0.00  0.00    +0.000 OA
BRANCH  16  18
ATOM     17  O   UNL     1      12.332  14.265  19.622  0.00  0.00    +0.000 OA
ATOM     18  C   UNL     1      11.138  14.141  19.387  0.00  0.00    +0.000 C 
BRANCH  18  19
ATOM     19  C   UNL     1      10.454  12.812  19.371  0.00  0.00    +0.000 A 
ATOM     20  C   UNL     1      10.109  12.246  18.130  0.00  0.00    +0.000 A 
ATOM     21  C   UNL     1       9.494  10.992  18.065  0.00  0.00    +0.000 A 
ATOM     22  C   UNL     1       9.224  10.289  19.237  0.00  0.00    +0.000 A 
ATOM     23  C   UNL     1       9.544  10.849  20.474  0.00  0.00    +0.000 A 
ATOM     24  C   UNL     1      10.158  12.106  20.544  0.00  0.00    +0.000 A 
ENDBRANCH  18  19
ENDBRANCH  16  18
ENDBRANCH   1  16
BRANCH   4  25
ATOM     25  O   UNL     1       6.024  15.761  22.782  0.00  0.00    +0.000 OA
BRANCH  25  26
ATOM     26  C   UNL     1       5.358  14.611  23.183  0.00  0.00    +0.000 C 
ATOM     27  O   UNL     1       4.189  14.327  22.963  0.00  0.00    +0.000 OA
BRANCH  26  28
ATOM     28  C   UNL     1       6.355  13.665  23.776  0.00  0.00    +0.000 A 
ATOM     29  C   UNL     1       6.816  12.584  23.008  0.00  0.00    +0.000 A 
ATOM     30  C   UNL     1       7.823  11.745  23.500  0.00  0.00    +0.000 A 
ATOM     31  C   UNL     1       8.375  11.976  24.759  0.00  0.00    +0.000 A 
ATOM     32  C   UNL     1       7.917  13.040  25.534  0.00  0.00    +0.000 A 
ATOM     33  C   UNL     1       6.910  13.878  25.048  0.00  0.00    +0.000 A 
ENDBRANCH  26  28
ENDBRANCH  25  26
ENDBRANCH   4  25
TORSDOF 6
ENDMDL
MODEL 8
REMARK VINA RESULT:      -7.0      2.362      4.162
REMARK  Name = 
REMARK  6 active torsions:
REMARK  status: ('A' for Active; 'I' for Inactive)
REMARK    1  A    between atoms: C_2  and  O_3
REMARK    2  A    between atoms: C_2  and  C_28
REMARK    3  A    between atoms: O_3  and  C_4
REMARK    4  A    between atoms: C_7  and  O_8
REMARK    5  A    between atoms: O_8  and  C_9
REMARK    6  A    between atoms: C_9  and  C_11
REMARK                            x       y       z     vdW  Elec       q    Type
REMARK                         _______ _______ _______ _____ _____    ______ ____
ROOT
ATOM      1  C   UNL     1      -1.390  10.555  19.467  0.00  0.00    +0.000 A 
ATOM      2  C   UNL     1      -2.135  10.549  18.280  0.00  0.00    +0.000 A 
ATOM      3  C   UNL     1      -3.212  11.427  18.139  0.00  0.00    +0.000 A 
ATOM      4  C   UNL     1      -3.588  12.245  19.218  0.00  0.00    +0.000 A 
ATOM      5  C   UNL     1      -2.879  12.231  20.451  0.00  0.00    +0.000 A 
ATOM      6  C   UNL     1      -3.204  13.058  21.554  0.00  0.00    +0.000 A 
ATOM      7  C   UNL     1      -2.539  12.951  22.772  0.00  0.00    +0.000 A 
ATOM      8 CL   UNL     1      -3.043  13.916  24.105  0.00  0.00    +0.000 Cl
ATOM      9  C   UNL     1      -1.490  12.060  22.913  0.00  0.00    +0.000 A 
ATOM     10  C   UNL     1      -1.094  11.283  21.821  0.00  0.00    +0.000 A 
ATOM     11  C   UNL     1      -1.772  11.346  20.582  0.00  0.00    +0.000 A 
ATOM     12  O   UNL     1      -3.917  11.534  16.962  0.00  0.00    +0.000 OA
ATOM     13  C   UNL     1      -3.147  11.038  15.861  0.00  0.00    +0.000 C 
ATOM     14  C   UNL     1      -2.604   9.654  16.166  0.00  0.00    +0.000 C 
ATOM     15  O   UNL     1      -1.746   9.667  17.304  0.00  0.00    +0.000 OA
ENDROOT
BRANCH   1  16
ATOM     16  O   UNL     1      -0.274   9.683  19.595  0.00  0.00    +0.000 OA
BRANCH  16  18
ATOM     17  O   UNL     1       1.227  11.149  18.555  0.00  0.00    +0.000 OA
ATOM     18  C   UNL     1       0.904  10.033  18.939  0.00  0.00    +0.000 C 
BRANCH  18  19
ATOM     19  C   UNL     1       1.778   8.835  18.754  0.00  0.00    +0.000 A 
ATOM     20  C   UNL     1       1.803   7.858  19.766  0.00  0.00    +0.000 A 
ATOM     21  C   UNL     1       2.584   6.706  19.625  0.00  0.00    +0.000 A 
ATOM     22  C   UNL     1       3.340   6.516  18.471  0.00  0.00    +0.000 A 
ATOM     23  C   UNL     1       3.337   7.487  17.470  0.00  0.00    +0.000 A 
ATOM     24  C   UNL     1       2.559   8.644  17.608  0.00  0.00    +0.000 A 
ENDBRANCH  18  19
ENDBRANCH  16  18
ENDBRANCH   1  16
BRANCH   4  25
ATOM     25  O   UNL     1      -4.578  13.236  18.956  0.00  0.00    +0.000 OA
BRANCH  25  26
ATOM     26  C   UNL     1      -5.884  12.915  18.613  0.00  0.00    +0.000 C 
ATOM     27  O   UNL     1      -6.400  13.023  17.509  0.00  0.00    +0.000 OA
BRANCH  26  28
ATOM     28  C   UNL     1      -6.527  12.226  19.777  0.00  0.00    +0.000 A 
ATOM     29  C   UNL     1      -6.851  12.971  20.922  0.00  0.00    +0.000 A 
ATOM     30  C   UNL     1      -7.544  12.374  21.981  0.00  0.00    +0.000 A 
ATOM     31  C   UNL     1      -7.917  11.032  21.908  0.00  0.00    +0.000 A 
ATOM     32  C   UNL     1      -7.589  10.281  20.781  0.00  0.00    +0.000 A 
ATOM     33  C   UNL     1      -6.895  10.872  19.722  0.00  0.00    +0.000 A 
ENDBRANCH  26  28
ENDBRANCH  25  26
ENDBRANCH   4  25
TORSDOF 6
ENDMDL
MODEL 9
REMARK VINA RESULT:      -7.0      9.443     13.149
REMARK  Name = 
REMARK  6 active torsions:
REMARK  status: ('A' for Active; 'I' for Inactive)
REMARK    1  A    between atoms: C_2  and  O_3
REMARK    2  A    between atoms: C_2  and  C_28
REMARK    3  A    between atoms: O_3  and  C_4
REMARK    4  A    between atoms: C_7  and  O_8
REMARK    5  A    between atoms: O_8  and  C_9
REMARK    6  A    between atoms: C_9  and  C_11
REMARK                            x       y       z     vdW  Elec       q    Type
REMARK                         _______ _______ _______ _____ _____    ______ ____
ROOT
ATOM      1  C   UNL     1       6.816  15.456  21.574  0.00  0.00    +0.000 A 
ATOM      2  C   UNL     1       6.692  15.260  20.192  0.00  0.00    +0.000 A 
ATOM      3  C   UNL     1       7.837  15.255  19.394  0.00  0.00    +0.000 A 
ATOM      4  C   UNL     1       9.089  15.530  19.971  0.00  0.00    +0.000 A 
ATOM      5  C   UNL     1       9.232  15.784  21.363  0.00  0.00    +0.000 A 
ATOM      6  C   UNL     1      10.476  16.036  21.992  0.00  0.00    +0.000 A 
ATOM      7  C   UNL     1      10.562  16.364  23.342  0.00  0.00    +0.000 A 
ATOM      8 CL   UNL     1      12.092  16.755  24.027  0.00  0.00    +0.000 Cl
ATOM      9  C   UNL     1       9.420  16.393  24.122  0.00  0.00    +0.000 A 
ATOM     10  C   UNL     1       8.185  16.074  23.549  0.00  0.00    +0.000 A 
ATOM     11  C   UNL     1       8.063  15.771  22.174  0.00  0.00    +0.000 A 
ATOM     12  O   UNL     1       7.787  14.972  18.048  0.00  0.00    +0.000 OA
ATOM     13  C   UNL     1       6.589  14.258  17.723  0.00  0.00    +0.000 C 
ATOM     14  C   UNL     1       5.371  14.973  18.279  0.00  0.00    +0.000 C 
ATOM     15  O   UNL     1       5.425  15.073  19.699  0.00  0.00    +0.000 OA
ENDROOT
BRANCH   1  16
ATOM     16  O   UNL     1       5.650  15.428  22.390  0.00  0.00    +0.000 OA
BRANCH  16  18
ATOM     17  O   UNL     1       4.007  13.769  22.215  0.00  0.00    +0.000 OA
ATOM     18  C   UNL     1       5.069  14.189  22.652  0.00  0.00    +0.000 C 
BRANCH  18  19
ATOM     19  C   UNL     1       5.936  13.388  23.569  0.00  0.00    +0.000 A 
ATOM     20  C   UNL     1       6.760  12.391  23.016  0.00  0.00    +0.000 A 
ATOM     21  C   UNL     1       7.608  11.634  23.831  0.00  0.00    +0.000 A 
ATOM     22  C   UNL     1       7.646  11.871  25.203  0.00  0.00    +0.000 A 
ATOM     23  C   UNL     1       6.819  12.844  25.765  0.00  0.00    +0.000 A 
ATOM     24  C   UNL     1       5.966  13.602  24.953  0.00  0.00    +0.000 A 
ENDBRANCH  18  19
ENDBRANCH  16  18
ENDBRANCH   1  16
BRANCH   4  25
ATOM     25  O   UNL     1      10.232  15.341  19.141  0.00  0.00    +0.000 OA
BRANCH  25  26
ATOM     26  C   UNL     1      11.154  14.325  19.359  0.00  0.00    +0.000 C 
ATOM     27  O   UNL     1      12.333  14.458  19.657  0.00  0.00    +0.000 OA
BRANCH  26  28
ATOM     28  C   UNL     1      10.429  13.015  19.360  0.00  0.00    +0.000 A 
ATOM     29  C   UNL     1      10.053  12.438  18.136  0.00  0.00    +0.000 A 
ATOM     30  C   UNL     1       9.467  11.168  18.103  0.00  0.00    +0.000 A 
ATOM     31  C   UNL     1       9.249  10.466  19.288  0.00  0.00    +0.000 A 
ATOM     32  C   UNL     1       9.607  11.034  20.508  0.00  0.00    +0.000 A 
ATOM     33  C   UNL     1      10.191  12.303  20.546  0.00  0.00    +0.000 A 
ENDBRANCH  26  28
ENDBRANCH  25  26
ENDBRANCH   4  25
TORSDOF 6
ENDMDL
