MODEL 1
REMARK VINA RESULT:      -7.1      0.000      0.000
REMARK  Name = 
REMARK  3 active torsions:
REMARK  status: ('A' for Active; 'I' for Inactive)
REMARK    1  A    between atoms: C_1  and  C_2
REMARK    2  A    between atoms: C_10  and  C_11
REMARK    3  A    between atoms: C_13  and  O_14
REMARK                            x       y       z     vdW  Elec       q    Type
REMARK                         _______ _______ _______ _____ _____    ______ ____
ROOT
ATOM      1  C   UNL     1      -1.188  11.725  21.436  0.00  0.00    +0.000 C 
ATOM      2  C   UNL     1      -0.860  11.482  19.988  0.00  0.00    +0.000 C 
ATOM      3  O   UNL     1      -1.056  12.368  19.155  0.00  0.00    +0.000 OA
ATOM      4  N   UNL     1      -0.306  10.263  19.657  0.00  0.00    +0.000 N 
ATOM      5  C   UNL     1       0.145  10.022  18.285  0.00  0.00    +0.000 C 
ATOM      6  C   UNL     1       1.634   9.640  18.252  0.00  0.00    +0.000 C 
ATOM      7  N   UNL     1       1.904   8.535  19.183  0.00  0.00    +0.000 N 
ATOM      8  C   UNL     1       2.524   7.372  18.785  0.00  0.00    +0.000 A 
ATOM      9  C   UNL     1       3.480   7.384  17.787  0.00  0.00    +0.000 A 
ATOM     10  C   UNL     1       4.062   6.191  17.396  0.00  0.00    +0.000 A 
ATOM     11  N   UNL     1       3.701   5.027  17.966  0.00  0.00    +0.000 NA
ATOM     12  C   UNL     1       2.781   5.103  18.938  0.00  0.00    +0.000 A 
ATOM     13  N   UNL     1       2.187   6.219  19.385  0.00  0.00    +0.000 NA
ATOM     14  C   UNL     1       1.399   8.677  20.553  0.00  0.00    +0.000 C 
ATOM     15  C   UNL     1      -0.074   9.129  20.565  0.00  0.00    +0.000 C 
ENDROOT
BRANCH  10  16
ATOM     16  C   UNL     1       5.161   6.088  16.283  0.00  0.00    +0.000 C 
ATOM     17  C   UNL     1       5.396   4.713  15.617  0.00  0.00    +0.000 C 
ATOM     18  C   UNL     1       6.913   4.949  15.711  0.00  0.00    +0.000 C 
ATOM     19  C   UNL     1       6.650   6.099  16.697  0.00  0.00    +0.000 C 
BRANCH  18  20
ATOM     20  O   UNL     1       7.585   5.295  14.484  0.00  0.00    +0.000 OA
ATOM     21  H   UNL     1       7.512   6.261  14.403  0.00  0.00    +0.000 HD
ENDBRANCH  18  20
ENDBRANCH  10  16
TORSDOF 2
ENDMDL
MODEL 2
REMARK VINA RESULT:      -7.0      1.863      7.716
REMARK  Name = 
REMARK  3 active torsions:
REMARK  status: ('A' for Active; 'I' for Inactive)
REMARK    1  A    between atoms: C_1  and  C_2
REMARK    2  A    between atoms: C_10  and  C_11
REMARK    3  A    between atoms: C_13  and  O_14
REMARK                            x       y       z     vdW  Elec       q    Type
REMARK                         _______ _______ _______ _____ _____    ______ ____
ROOT
ATOM      1  C   UNL     1       6.358   3.628  13.961  0.00  0.00    +0.000 C 
ATOM      2  C   UNL     1       6.619   4.762  14.914  0.00  0.00    +0.000 C 
ATOM      3  O   UNL     1       7.443   5.632  14.627  0.00  0.00    +0.000 OA
ATOM      4  N   UNL     1       5.877   4.799  16.076  0.00  0.00    +0.000 N 
ATOM      5  C   UNL     1       6.004   5.946  16.978  0.00  0.00    +0.000 C 
ATOM      6  C   UNL     1       4.641   6.620  17.208  0.00  0.00    +0.000 C 
ATOM      7  N   UNL     1       3.638   5.629  17.621  0.00  0.00    +0.000 N 
ATOM      8  C   UNL     1       2.889   5.775  18.768  0.00  0.00    +0.000 A 
ATOM      9  C   UNL     1       2.520   7.027  19.220  0.00  0.00    +0.000 A 
ATOM     10  C   UNL     1       1.789   7.135  20.390  0.00  0.00    +0.000 A 
ATOM     11  N   UNL     1       1.447   6.039  21.093  0.00  0.00    +0.000 NA
ATOM     12  C   UNL     1       1.828   4.861  20.578  0.00  0.00    +0.000 A 
ATOM     13  N   UNL     1       2.517   4.675  19.444  0.00  0.00    +0.000 NA
ATOM     14  C   UNL     1       3.524   4.414  16.808  0.00  0.00    +0.000 C 
ATOM     15  C   UNL     1       4.905   3.792  16.530  0.00  0.00    +0.000 C 
ENDROOT
BRANCH  10  16
ATOM     16  C   UNL     1       1.310   8.501  20.989  0.00  0.00    +0.000 C 
ATOM     17  C   UNL     1      -0.117   8.578  21.579  0.00  0.00    +0.000 C 
ATOM     18  C   UNL     1      -0.308   9.939  20.889  0.00  0.00    +0.000 C 
ATOM     19  C   UNL     1       0.933   9.650  20.027  0.00  0.00    +0.000 C 
BRANCH  18  20
ATOM     20  O   UNL     1      -0.245  11.102  21.737  0.00  0.00    +0.000 OA
ATOM     21  H   UNL     1       0.565  11.004  22.265  0.00  0.00    +0.000 HD
ENDBRANCH  18  20
ENDBRANCH  10  16
TORSDOF 2
ENDMDL
MODEL 3
REMARK VINA RESULT:      -6.7      2.593      3.337
REMARK  Name = 
REMARK  3 active torsions:
REMARK  status: ('A' for Active; 'I' for Inactive)
REMARK    1  A    between atoms: C_1  and  C_2
REMARK    2  A    between atoms: C_10  and  C_11
REMARK    3  A    between atoms: C_13  and  O_14
REMARK                            x       y       z     vdW  Elec       q    Type
REMARK                         _______ _______ _______ _____ _____    ______ ____
ROOT
ATOM      1  C   UNL     1      -1.024  11.582  21.776  0.00  0.00    +0.000 C 
ATOM      2  C   UNL     1      -0.201  10.437  22.301  0.00  0.00    +0.000 C 
ATOM      3  O   UNL     1      -0.407   9.998  23.433  0.00  0.00    +0.000 OA
ATOM      4  N   UNL     1       0.742   9.892  21.455  0.00  0.00    +0.000 N 
ATOM      5  C   UNL     1       1.483   8.699  21.871  0.00  0.00    +0.000 C 
ATOM      6  C   UNL     1       1.297   7.554  20.861  0.00  0.00    +0.000 C 
ATOM      7  N   UNL     1       1.601   8.014  19.499  0.00  0.00    +0.000 N 
ATOM      8  C   UNL     1       2.513   7.371  18.692  0.00  0.00    +0.000 A 
ATOM      9  C   UNL     1       2.691   6.003  18.772  0.00  0.00    +0.000 A 
ATOM     10  C   UNL     1       3.635   5.396  17.963  0.00  0.00    +0.000 A 
ATOM     11  N   UNL     1       4.384   6.122  17.113  0.00  0.00    +0.000 NA
ATOM     12  C   UNL     1       4.138   7.440  17.082  0.00  0.00    +0.000 A 
ATOM     13  N   UNL     1       3.229   8.096  17.817  0.00  0.00    +0.000 NA
ATOM     14  C   UNL     1       0.958   9.254  19.053  0.00  0.00    +0.000 C 
ATOM     15  C   UNL     1       1.093  10.368  20.108  0.00  0.00    +0.000 C 
ENDROOT
BRANCH  10  16
ATOM     16  C   UNL     1       3.915   3.854  17.965  0.00  0.00    +0.000 C 
ATOM     17  C   UNL     1       2.726   2.898  17.715  0.00  0.00    +0.000 C 
ATOM     18  C   UNL     1       3.239   1.995  18.849  0.00  0.00    +0.000 C 
ATOM     19  C   UNL     1       4.157   3.138  19.313  0.00  0.00    +0.000 C 
BRANCH  18  20
ATOM     20  O   UNL     1       3.887   0.771  18.451  0.00  0.00    +0.000 OA
ATOM     21  H   UNL     1       4.432   0.997  17.679  0.00  0.00    +0.000 HD
ENDBRANCH  18  20
ENDBRANCH  10  16
TORSDOF 2
ENDMDL
MODEL 4
REMARK VINA RESULT:      -6.7      1.177      1.376
REMARK  Name = 
REMARK  3 active torsions:
REMARK  status: ('A' for Active; 'I' for Inactive)
REMARK    1  A    between atoms: C_1  and  C_2
REMARK    2  A    between atoms: C_10  and  C_11
REMARK    3  A    between atoms: C_13  and  O_14
REMARK                            x       y       z     vdW  Elec       q    Type
REMARK                         _______ _______ _______ _____ _____    ______ ____
ROOT
ATOM      1  C   UNL     1      -0.980  11.966  22.770  0.00  0.00    +0.000 C 
ATOM      2  C   UNL     1      -0.908  11.600  21.313  0.00  0.00    +0.000 C 
ATOM      3  O   UNL     1      -1.195  12.434  20.453  0.00  0.00    +0.000 OA
ATOM      4  N   UNL     1      -0.476  10.329  20.997  0.00  0.00    +0.000 N 
ATOM      5  C   UNL     1      -0.271   9.962  19.594  0.00  0.00    +0.000 C 
ATOM      6  C   UNL     1       1.172   9.488  19.354  0.00  0.00    +0.000 C 
ATOM      7  N   UNL     1       1.538   8.439  20.315  0.00  0.00    +0.000 N 
ATOM      8  C   UNL     1       2.026   7.214  19.918  0.00  0.00    +0.000 A 
ATOM      9  C   UNL     1       2.804   7.095  18.782  0.00  0.00    +0.000 A 
ATOM     10  C   UNL     1       3.255   5.845  18.400  0.00  0.00    +0.000 A 
ATOM     11  N   UNL     1       2.936   4.749  19.113  0.00  0.00    +0.000 NA
ATOM     12  C   UNL     1       2.194   4.951  20.211  0.00  0.00    +0.000 A 
ATOM     13  N   UNL     1       1.737   6.130  20.656  0.00  0.00    +0.000 NA
ATOM     14  C   UNL     1       1.273   8.709  21.732  0.00  0.00    +0.000 C 
ATOM     15  C   UNL     1      -0.153   9.251  21.945  0.00  0.00    +0.000 C 
ENDROOT
BRANCH  10  16
ATOM     16  C   UNL     1       4.148   5.594  17.137  0.00  0.00    +0.000 C 
ATOM     17  C   UNL     1       5.498   4.865  17.332  0.00  0.00    +0.000 C 
ATOM     18  C   UNL     1       6.160   5.878  16.382  0.00  0.00    +0.000 C 
ATOM     19  C   UNL     1       4.923   6.781  16.520  0.00  0.00    +0.000 C 
BRANCH  18  20
ATOM     20  O   UNL     1       6.467   5.407  15.055  0.00  0.00    +0.000 OA
ATOM     21  H   UNL     1       5.974   4.576  14.946  0.00  0.00    +0.000 HD
ENDBRANCH  18  20
ENDBRANCH  10  16
TORSDOF 2
ENDMDL
MODEL 5
REMARK VINA RESULT:      -6.6      0.968      1.155
REMARK  Name = 
REMARK  3 active torsions:
REMARK  status: ('A' for Active; 'I' for Inactive)
REMARK    1  A    between atoms: C_1  and  C_2
REMARK    2  A    between atoms: C_10  and  C_11
REMARK    3  A    between atoms: C_13  and  O_14
REMARK                            x       y       z     vdW  Elec       q    Type
REMARK                         _______ _______ _______ _____ _____    ______ ____
ROOT
ATOM      1  C   UNL     1      -1.524  12.437  20.379  0.00  0.00    +0.000 C 
ATOM      2  C   UNL     1      -1.163  11.770  19.080  0.00  0.00    +0.000 C 
ATOM      3  O   UNL     1      -1.346  12.358  18.013  0.00  0.00    +0.000 OA
ATOM      4  N   UNL     1      -0.592  10.516  19.146  0.00  0.00    +0.000 N 
ATOM      5  C   UNL     1      -0.110   9.876  17.921  0.00  0.00    +0.000 C 
ATOM      6  C   UNL     1       1.383   9.522  18.034  0.00  0.00    +0.000 C 
ATOM      7  N   UNL     1       1.640   8.756  19.262  0.00  0.00    +0.000 N 
ATOM      8  C   UNL     1       2.277   7.535  19.248  0.00  0.00    +0.000 A 
ATOM      9  C   UNL     1       3.255   7.256  18.312  0.00  0.00    +0.000 A 
ATOM     10  C   UNL     1       3.854   6.009  18.313  0.00  0.00    +0.000 A 
ATOM     11  N   UNL     1       3.489   5.069  19.204  0.00  0.00    +0.000 NA
ATOM     12  C   UNL     1       2.547   5.424  20.089  0.00  0.00    +0.000 A 
ATOM     13  N   UNL     1       1.936   6.615  20.164  0.00  0.00    +0.000 NA
ATOM     14  C   UNL     1       1.104   9.300  20.514  0.00  0.00    +0.000 C 
ATOM     15  C   UNL     1      -0.372   9.715  20.361  0.00  0.00    +0.000 C 
ENDROOT
BRANCH  10  16
ATOM     16  C   UNL     1       4.978   5.588  17.305  0.00  0.00    +0.000 C 
ATOM     17  C   UNL     1       5.160   6.432  16.023  0.00  0.00    +0.000 C 
ATOM     18  C   UNL     1       5.316   5.134  15.214  0.00  0.00    +0.000 C 
ATOM     19  C   UNL     1       4.755   4.347  16.411  0.00  0.00    +0.000 C 
BRANCH  18  20
ATOM     20  O   UNL     1       6.653   4.797  14.793  0.00  0.00    +0.000 OA
ATOM     21  H   UNL     1       6.606   3.886  14.459  0.00  0.00    +0.000 HD
ENDBRANCH  18  20
ENDBRANCH  10  16
TORSDOF 2
ENDMDL
MODEL 6
REMARK VINA RESULT:      -6.6      1.523      1.789
REMARK  Name = 
REMARK  3 active torsions:
REMARK  status: ('A' for Active; 'I' for Inactive)
REMARK    1  A    between atoms: C_1  and  C_2
REMARK    2  A    between atoms: C_10  and  C_11
REMARK    3  A    between atoms: C_13  and  O_14
REMARK                            x       y       z     vdW  Elec       q    Type
REMARK                         _______ _______ _______ _____ _____    ______ ____
ROOT
ATOM      1  C   UNL     1      -0.987  11.848  20.783  0.00  0.00    +0.000 C 
ATOM      2  C   UNL     1      -0.361  11.263  19.546  0.00  0.00    +0.000 C 
ATOM      3  O   UNL     1      -0.165  11.973  18.559  0.00  0.00    +0.000 OA
ATOM      4  N   UNL     1       0.011   9.935  19.589  0.00  0.00    +0.000 N 
ATOM      5  C   UNL     1       0.735   9.350  18.459  0.00  0.00    +0.000 C 
ATOM      6  C   UNL     1       2.081   8.761  18.912  0.00  0.00    +0.000 C 
ATOM      7  N   UNL     1       1.889   7.849  20.047  0.00  0.00    +0.000 N 
ATOM      8  C   UNL     1       2.351   6.552  20.035  0.00  0.00    +0.000 A 
ATOM      9  C   UNL     1       3.510   6.217  19.361  0.00  0.00    +0.000 A 
ATOM     10  C   UNL     1       3.929   4.899  19.350  0.00  0.00    +0.000 A 
ATOM     11  N   UNL     1       3.217   3.944  19.976  0.00  0.00    +0.000 NA
ATOM     12  C   UNL     1       2.116   4.352  20.622  0.00  0.00    +0.000 A 
ATOM     13  N   UNL     1       1.658   5.610  20.695  0.00  0.00    +0.000 NA
ATOM     14  C   UNL     1       1.095   8.344  21.176  0.00  0.00    +0.000 C 
ATOM     15  C   UNL     1      -0.217   8.995  20.698  0.00  0.00    +0.000 C 
ENDROOT
BRANCH  10  16
ATOM     16  C   UNL     1       5.230   4.409  18.626  0.00  0.00    +0.000 C 
ATOM     17  C   UNL     1       6.524   5.233  18.818  0.00  0.00    +0.000 C 
ATOM     18  C   UNL     1       6.816   5.089  17.315  0.00  0.00    +0.000 C 
ATOM     19  C   UNL     1       5.365   4.625  17.102  0.00  0.00    +0.000 C 
BRANCH  18  20
ATOM     20  O   UNL     1       7.850   4.154  16.949  0.00  0.00    +0.000 OA
ATOM     21  H   UNL     1       8.674   4.667  16.918  0.00  0.00    +0.000 HD
ENDBRANCH  18  20
ENDBRANCH  10  16
TORSDOF 2
ENDMDL
MODEL 7
REMARK VINA RESULT:      -6.6      0.887      1.003
REMARK  Name = 
REMARK  3 active torsions:
REMARK  status: ('A' for Active; 'I' for Inactive)
REMARK    1  A    between atoms: C_1  and  C_2
REMARK    2  A    between atoms: C_10  and  C_11
REMARK    3  A    between atoms: C_13  and  O_14
REMARK                            x       y       z     vdW  Elec       q    Type
REMARK                         _______ _______ _______ _____ _____    ______ ____
ROOT
ATOM      1  C   UNL     1      -0.174  11.710  21.149  0.00  0.00    +0.000 C 
ATOM      2  C   UNL     1       0.050  11.317  19.714  0.00  0.00    +0.000 C 
ATOM      3  O   UNL     1      -0.016  12.166  18.825  0.00  0.00    +0.000 OA
ATOM      4  N   UNL     1       0.365   9.999  19.458  0.00  0.00    +0.000 N 
ATOM      5  C   UNL     1       0.713   9.591  18.095  0.00  0.00    +0.000 C 
ATOM      6  C   UNL     1       2.108   8.944  18.052  0.00  0.00    +0.000 C 
ATOM      7  N   UNL     1       2.212   7.873  19.053  0.00  0.00    +0.000 N 
ATOM      8  C   UNL     1       2.599   6.594  18.723  0.00  0.00    +0.000 A 
ATOM      9  C   UNL     1       3.503   6.367  17.703  0.00  0.00    +0.000 A 
ATOM     10  C   UNL     1       3.849   5.066  17.383  0.00  0.00    +0.000 A 
ATOM     11  N   UNL     1       3.307   4.026  18.045  0.00  0.00    +0.000 NA
ATOM     12  C   UNL     1       2.453   4.330  19.032  0.00  0.00    +0.000 A 
ATOM     13  N   UNL     1       2.085   5.562  19.413  0.00  0.00    +0.000 NA
ATOM     14  C   UNL     1       1.792   8.193  20.421  0.00  0.00    +0.000 C 
ATOM     15  C   UNL     1       0.426   8.904  20.439  0.00  0.00    +0.000 C 
ENDROOT
BRANCH  10  16
ATOM     16  C   UNL     1       4.868   4.693  16.253  0.00  0.00    +0.000 C 
ATOM     17  C   UNL     1       6.323   4.368  16.663  0.00  0.00    +0.000 C 
ATOM     18  C   UNL     1       6.825   5.209  15.477  0.00  0.00    +0.000 C 
ATOM     19  C   UNL     1       5.417   5.813  15.340  0.00  0.00    +0.000 C 
BRANCH  18  20
ATOM     20  O   UNL     1       7.325   4.480  14.339  0.00  0.00    +0.000 OA
ATOM     21  H   UNL     1       7.602   5.150  13.693  0.00  0.00    +0.000 HD
ENDBRANCH  18  20
ENDBRANCH  10  16
TORSDOF 2
ENDMDL
MODEL 8
REMARK VINA RESULT:      -6.6      1.352      1.720
REMARK  Name = 
REMARK  3 active torsions:
REMARK  status: ('A' for Active; 'I' for Inactive)
REMARK    1  A    between atoms: C_1  and  C_2
REMARK    2  A    between atoms: C_10  and  C_11
REMARK    3  A    between atoms: C_13  and  O_14
REMARK                            x       y       z     vdW  Elec       q    Type
REMARK                         _______ _______ _______ _____ _____    ______ ____
ROOT
ATOM      1  C   UNL     1      -0.648  12.582  20.663  0.00  0.00    +0.000 C 
ATOM      2  C   UNL     1      -0.339  11.825  19.400  0.00  0.00    +0.000 C 
ATOM      3  O   UNL     1      -0.307  12.415  18.320  0.00  0.00    +0.000 OA
ATOM      4  N   UNL     1      -0.060  10.479  19.518  0.00  0.00    +0.000 N 
ATOM      5  C   UNL     1       0.367   9.724  18.338  0.00  0.00    +0.000 C 
ATOM      6  C   UNL     1       1.734   9.059  18.574  0.00  0.00    +0.000 C 
ATOM      7  N   UNL     1       1.723   8.283  19.821  0.00  0.00    +0.000 N 
ATOM      8  C   UNL     1       2.080   6.954  19.864  0.00  0.00    +0.000 A 
ATOM      9  C   UNL     1       3.045   6.451  19.012  0.00  0.00    +0.000 A 
ATOM     10  C   UNL     1       3.359   5.105  19.067  0.00  0.00    +0.000 A 
ATOM     11  N   UNL     1       2.730   4.284  19.929  0.00  0.00    +0.000 NA
ATOM     12  C   UNL     1       1.821   4.853  20.733  0.00  0.00    +0.000 A 
ATOM     13  N   UNL     1       1.477   6.148  20.753  0.00  0.00    +0.000 NA
ATOM     14  C   UNL     1       1.221   8.957  21.024  0.00  0.00    +0.000 C 
ATOM     15  C   UNL     1      -0.114   9.676  20.749  0.00  0.00    +0.000 C 
ENDROOT
BRANCH  10  16
ATOM     16  C   UNL     1       4.440   4.430  18.155  0.00  0.00    +0.000 C 
ATOM     17  C   UNL     1       5.313   5.342  17.262  0.00  0.00    +0.000 C 
ATOM     18  C   UNL     1       5.137   4.345  16.105  0.00  0.00    +0.000 C 
ATOM     19  C   UNL     1       3.986   3.683  16.881  0.00  0.00    +0.000 C 
BRANCH  18  20
ATOM     20  O   UNL     1       6.271   3.509  15.801  0.00  0.00    +0.000 OA
ATOM     21  H   UNL     1       6.358   2.895  16.548  0.00  0.00    +0.000 HD
ENDBRANCH  18  20
ENDBRANCH  10  16
TORSDOF 2
ENDMDL
MODEL 9
REMARK VINA RESULT:      -6.4      1.452      7.533
REMARK  Name = 
REMARK  3 active torsions:
REMARK  status: ('A' for Active; 'I' for Inactive)
REMARK    1  A    between atoms: C_1  and  C_2
REMARK    2  A    between atoms: C_10  and  C_11
REMARK    3  A    between atoms: C_13  and  O_14
REMARK                            x       y       z     vdW  Elec       q    Type
REMARK                         _______ _______ _______ _____ _____    ______ ____
ROOT
ATOM      1  C   UNL     1       6.402   3.538  15.076  0.00  0.00    +0.000 C 
ATOM      2  C   UNL     1       6.544   4.946  15.586  0.00  0.00    +0.000 C 
ATOM      3  O   UNL     1       7.304   5.734  15.020  0.00  0.00    +0.000 OA
ATOM      4  N   UNL     1       5.770   5.312  16.668  0.00  0.00    +0.000 N 
ATOM      5  C   UNL     1       5.779   6.702  17.127  0.00  0.00    +0.000 C 
ATOM      6  C   UNL     1       4.361   7.296  17.115  0.00  0.00    +0.000 C 
ATOM      7  N   UNL     1       3.429   6.423  17.842  0.00  0.00    +0.000 N 
ATOM      8  C   UNL     1       2.641   6.884  18.872  0.00  0.00    +0.000 A 
ATOM      9  C   UNL     1       2.159   8.179  18.872  0.00  0.00    +0.000 A 
ATOM     10  C   UNL     1       1.391   8.615  19.937  0.00  0.00    +0.000 A 
ATOM     11  N   UNL     1       1.118   7.797  20.970  0.00  0.00    +0.000 NA
ATOM     12  C   UNL     1       1.606   6.551  20.886  0.00  0.00    +0.000 A 
ATOM     13  N   UNL     1       2.340   6.051  19.882  0.00  0.00    +0.000 NA
ATOM     14  C   UNL     1       3.436   4.999  17.491  0.00  0.00    +0.000 C 
ATOM     15  C   UNL     1       4.870   4.439  17.438  0.00  0.00    +0.000 C 
ENDROOT
BRANCH  10  16
ATOM     16  C   UNL     1       0.787  10.057  20.037  0.00  0.00    +0.000 C 
ATOM     17  C   UNL     1      -0.685  10.262  19.612  0.00  0.00    +0.000 C 
ATOM     18  C   UNL     1      -0.275  11.550  18.880  0.00  0.00    +0.000 C 
ATOM     19  C   UNL     1       1.197  11.115  18.987  0.00  0.00    +0.000 C 
BRANCH  18  20
ATOM     20  O   UNL     1      -0.625  12.793  19.521  0.00  0.00    +0.000 OA
ATOM     21  H   UNL     1      -0.742  13.439  18.805  0.00  0.00    +0.000 HD
ENDBRANCH  18  20
ENDBRANCH  10  16
TORSDOF 2
ENDMDL
