MODEL 1
REMARK VINA RESULT:      -7.4      0.000      0.000
REMARK  Name = 
REMARK  10 active torsions:
REMARK  status: ('A' for Active; 'I' for Inactive)
REMARK    1  A    between atoms: N_11  and  C_12
REMARK    2  A    between atoms: C_12  and  C_13
REMARK    3  A    between atoms: C_13  and  C_14
REMARK    4  A    between atoms: C_14  and  C_15
REMARK    5  A    between atoms: C_15  and  C_16
REMARK    6  A    between atoms: C_16  and  C_17
REMARK    7  A    between atoms: C_17  and  C_18
REMARK    8  A    between atoms: C_18  and  N_19
REMARK    9  A    between atoms: N_19  and  C_20
REMARK   10  A    between atoms: C_20  and  C_21
REMARK                            x       y       z     vdW  Elec       q    Type
REMARK                         _______ _______ _______ _____ _____    ______ ____
ROOT
ATOM      1  C   UNL     1       1.194   2.371  18.577  0.00  0.00    +0.000 C 
ENDROOT
BRANCH   1   2
ATOM      2  C   UNL     1       2.116   3.203  17.688  0.00  0.00    +0.000 C 
BRANCH   2   3
ATOM      3  C   UNL     1       3.491   2.555  17.543  0.00  0.00    +0.000 C 
BRANCH   3  14
ATOM      4  O   UNL     1       4.541   4.439  15.511  0.00  0.00    +0.000 OA
ATOM      5  C   UNL     1       4.945   4.372  16.656  0.00  0.00    +0.000 C 
ATOM      6  C   UNL     1       5.986   5.234  17.214  0.00  0.00    +0.000 A 
ATOM      7  C   UNL     1       6.724   6.243  16.628  0.00  0.00    +0.000 A 
ATOM      8  C   UNL     1       7.660   6.900  17.434  0.00  0.00    +0.000 A 
ATOM      9  C   UNL     1       7.829   6.539  18.788  0.00  0.00    +0.000 A 
ATOM     10  C   UNL     1       7.067   5.517  19.359  0.00  0.00    +0.000 A 
ATOM     11  C   UNL     1       6.151   4.883  18.542  0.00  0.00    +0.000 A 
ATOM     12  C   UNL     1       5.214   3.800  18.833  0.00  0.00    +0.000 C 
ATOM     13  O   UNL     1       5.085   3.285  19.928  0.00  0.00    +0.000 OA
ATOM     14  N   UNL     1       4.551   3.537  17.665  0.00  0.00    +0.000 N 
ENDBRANCH   3  14
ENDBRANCH   2   3
ENDBRANCH   1   2
BRANCH   1  15
ATOM     15  C   UNL     1       0.761   3.170  19.804  0.00  0.00    +0.000 C 
BRANCH  15  16
ATOM     16  C   UNL     1       1.756   3.011  20.951  0.00  0.00    +0.000 C 
BRANCH  16  17
ATOM     17  C   UNL     1       2.291   4.371  21.399  0.00  0.00    +0.000 C 
BRANCH  17  18
ATOM     18  C   UNL     1       1.784   5.483  20.482  0.00  0.00    +0.000 C 
BRANCH  18  19
ATOM     19  N   UNL     1       1.696   6.726  21.241  0.00  0.00    +0.000 NA
ATOM     20  H   UNL     1       2.482   6.800  21.886  0.00  0.00    +0.000 HD
BRANCH  19  21
ATOM     21  C   UNL     1       1.706   7.887  20.353  0.00  0.00    +0.000 C 
BRANCH  21  22
ATOM     22  C   UNL     1       0.837   8.989  20.909  0.00  0.00    +0.000 A 
ATOM     23  C   UNL     1       0.665   9.135  22.292  0.00  0.00    +0.000 A 
ATOM     24  C   UNL     1      -0.157  10.143  22.799  0.00  0.00    +0.000 A 
ATOM     25  C   UNL     1      -0.811  11.015  21.931  0.00  0.00    +0.000 A 
ATOM     26  C   UNL     1      -0.640  10.886  20.554  0.00  0.00    +0.000 A 
ATOM     27  C   UNL     1       0.183   9.880  20.046  0.00  0.00    +0.000 A 
ENDBRANCH  21  22
ENDBRANCH  19  21
ENDBRANCH  18  19
ENDBRANCH  17  18
ENDBRANCH  16  17
ENDBRANCH  15  16
ENDBRANCH   1  15
TORSDOF 10
ENDMDL
MODEL 2
REMARK VINA RESULT:      -7.2      2.885      7.973
REMARK  Name = 
REMARK  10 active torsions:
REMARK  status: ('A' for Active; 'I' for Inactive)
REMARK    1  A    between atoms: N_11  and  C_12
REMARK    2  A    between atoms: C_12  and  C_13
REMARK    3  A    between atoms: C_13  and  C_14
REMARK    4  A    between atoms: C_14  and  C_15
REMARK    5  A    between atoms: C_15  and  C_16
REMARK    6  A    between atoms: C_16  and  C_17
REMARK    7  A    between atoms: C_17  and  C_18
REMARK    8  A    between atoms: C_18  and  N_19
REMARK    9  A    between atoms: N_19  and  C_20
REMARK   10  A    between atoms: C_20  and  C_21
REMARK                            x       y       z     vdW  Elec       q    Type
REMARK                         _______ _______ _______ _____ _____    ______ ____
ROOT
ATOM      1  C   UNL     1       2.937   8.142  17.510  0.00  0.00    +0.000 C 
ENDROOT
BRANCH   1   2
ATOM      2  C   UNL     1       2.299   9.409  18.075  0.00  0.00    +0.000 C 
BRANCH   2   3
ATOM      3  C   UNL     1       0.774   9.332  18.042  0.00  0.00    +0.000 C 
BRANCH   3  14
ATOM      4  O   UNL     1      -0.940  11.745  18.196  0.00  0.00    +0.000 OA
ATOM      5  C   UNL     1      -0.605  11.081  19.157  0.00  0.00    +0.000 C 
ATOM      6  C   UNL     1      -1.026  11.351  20.531  0.00  0.00    +0.000 A 
ATOM      7  C   UNL     1      -1.824  12.354  21.044  0.00  0.00    +0.000 A 
ATOM      8  C   UNL     1      -2.052  12.346  22.424  0.00  0.00    +0.000 A 
ATOM      9  C   UNL     1      -1.486  11.348  23.245  0.00  0.00    +0.000 A 
ATOM     10  C   UNL     1      -0.684  10.341  22.702  0.00  0.00    +0.000 A 
ATOM     11  C   UNL     1      -0.474  10.372  21.337  0.00  0.00    +0.000 A 
ATOM     12  C   UNL     1       0.296   9.474  20.478  0.00  0.00    +0.000 C 
ATOM     13  O   UNL     1       0.883   8.485  20.875  0.00  0.00    +0.000 OA
ATOM     14  N   UNL     1       0.190   9.969  19.206  0.00  0.00    +0.000 N 
ENDBRANCH   3  14
ENDBRANCH   2   3
ENDBRANCH   1   2
BRANCH   1  15
ATOM     15  C   UNL     1       2.779   6.978  18.485  0.00  0.00    +0.000 C 
BRANCH  15  16
ATOM     16  C   UNL     1       3.238   5.662  17.862  0.00  0.00    +0.000 C 
BRANCH  16  17
ATOM     17  C   UNL     1       4.761   5.538  17.913  0.00  0.00    +0.000 C 
BRANCH  17  18
ATOM     18  C   UNL     1       5.185   4.070  17.931  0.00  0.00    +0.000 C 
BRANCH  18  19
ATOM     19  N   UNL     1       5.363   3.641  19.313  0.00  0.00    +0.000 NA
ATOM     20  H   UNL     1       5.029   4.362  19.952  0.00  0.00    +0.000 HD
BRANCH  19  21
ATOM     21  C   UNL     1       4.633   2.403  19.579  0.00  0.00    +0.000 C 
BRANCH  21  22
ATOM     22  C   UNL     1       3.153   2.674  19.696  0.00  0.00    +0.000 A 
ATOM     23  C   UNL     1       2.251   2.141  18.765  0.00  0.00    +0.000 A 
ATOM     24  C   UNL     1       0.886   2.413  18.868  0.00  0.00    +0.000 A 
ATOM     25  C   UNL     1       0.409   3.215  19.901  0.00  0.00    +0.000 A 
ATOM     26  C   UNL     1       1.293   3.743  20.839  0.00  0.00    +0.000 A 
ATOM     27  C   UNL     1       2.658   3.471  20.740  0.00  0.00    +0.000 A 
ENDBRANCH  21  22
ENDBRANCH  19  21
ENDBRANCH  18  19
ENDBRANCH  17  18
ENDBRANCH  16  17
ENDBRANCH  15  16
ENDBRANCH   1  15
TORSDOF 10
ENDMDL
MODEL 3
REMARK VINA RESULT:      -7.2      2.380      5.588
REMARK  Name = 
REMARK  10 active torsions:
REMARK  status: ('A' for Active; 'I' for Inactive)
REMARK    1  A    between atoms: N_11  and  C_12
REMARK    2  A    between atoms: C_12  and  C_13
REMARK    3  A    between atoms: C_13  and  C_14
REMARK    4  A    between atoms: C_14  and  C_15
REMARK    5  A    between atoms: C_15  and  C_16
REMARK    6  A    between atoms: C_16  and  C_17
REMARK    7  A    between atoms: C_17  and  C_18
REMARK    8  A    between atoms: C_18  and  N_19
REMARK    9  A    between atoms: N_19  and  C_20
REMARK   10  A    between atoms: C_20  and  C_21
REMARK                            x       y       z     vdW  Elec       q    Type
REMARK                         _______ _______ _______ _____ _____    ______ ____
ROOT
ATOM      1  C   UNL     1       4.176   7.281  17.143  0.00  0.00    +0.000 C 
ENDROOT
BRANCH   1   2
ATOM      2  C   UNL     1       4.261   6.011  17.988  0.00  0.00    +0.000 C 
BRANCH   2   3
ATOM      3  C   UNL     1       5.642   5.366  17.892  0.00  0.00    +0.000 C 
BRANCH   3  14
ATOM      4  O   UNL     1       4.253   3.512  16.043  0.00  0.00    +0.000 OA
ATOM      5  C   UNL     1       5.240   4.159  15.751  0.00  0.00    +0.000 C 
ATOM      6  C   UNL     1       5.871   4.147  14.432  0.00  0.00    +0.000 A 
ATOM      7  C   UNL     1       5.546   3.444  13.289  0.00  0.00    +0.000 A 
ATOM      8  C   UNL     1       6.350   3.649  12.162  0.00  0.00    +0.000 A 
ATOM      9  C   UNL     1       7.442   4.542  12.206  0.00  0.00    +0.000 A 
ATOM     10  C   UNL     1       7.748   5.245  13.375  0.00  0.00    +0.000 A 
ATOM     11  C   UNL     1       6.940   5.023  14.473  0.00  0.00    +0.000 A 
ATOM     12  C   UNL     1       6.990   5.598  15.815  0.00  0.00    +0.000 C 
ATOM     13  O   UNL     1       7.799   6.435  16.171  0.00  0.00    +0.000 OA
ATOM     14  N   UNL     1       5.968   5.024  16.521  0.00  0.00    +0.000 N 
ENDBRANCH   3  14
ENDBRANCH   2   3
ENDBRANCH   1   2
BRANCH   1  15
ATOM     15  C   UNL     1       3.045   8.181  17.635  0.00  0.00    +0.000 C 
BRANCH  15  16
ATOM     16  C   UNL     1       2.072   7.415  18.528  0.00  0.00    +0.000 C 
BRANCH  16  17
ATOM     17  C   UNL     1       1.814   8.175  19.829  0.00  0.00    +0.000 C 
BRANCH  17  18
ATOM     18  C   UNL     1       1.401   7.216  20.945  0.00  0.00    +0.000 C 
BRANCH  18  19
ATOM     19  N   UNL     1       2.176   5.986  20.831  0.00  0.00    +0.000 NA
ATOM     20  H   UNL     1       2.762   5.862  21.657  0.00  0.00    +0.000 HD
BRANCH  19  21
ATOM     21  C   UNL     1       1.303   4.822  20.696  0.00  0.00    +0.000 C 
BRANCH  21  22
ATOM     22  C   UNL     1       1.999   3.722  19.932  0.00  0.00    +0.000 A 
ATOM     23  C   UNL     1       1.368   3.091  18.851  0.00  0.00    +0.000 A 
ATOM     24  C   UNL     1       2.009   2.060  18.162  0.00  0.00    +0.000 A 
ATOM     25  C   UNL     1       3.285   1.652  18.544  0.00  0.00    +0.000 A 
ATOM     26  C   UNL     1       3.927   2.277  19.610  0.00  0.00    +0.000 A 
ATOM     27  C   UNL     1       3.289   3.310  20.299  0.00  0.00    +0.000 A 
ENDBRANCH  21  22
ENDBRANCH  19  21
ENDBRANCH  18  19
ENDBRANCH  17  18
ENDBRANCH  16  17
ENDBRANCH  15  16
ENDBRANCH   1  15
TORSDOF 10
ENDMDL
MODEL 4
REMARK VINA RESULT:      -7.1      5.452      8.382
REMARK  Name = 
REMARK  10 active torsions:
REMARK  status: ('A' for Active; 'I' for Inactive)
REMARK    1  A    between atoms: N_11  and  C_12
REMARK    2  A    between atoms: C_12  and  C_13
REMARK    3  A    between atoms: C_13  and  C_14
REMARK    4  A    between atoms: C_14  and  C_15
REMARK    5  A    between atoms: C_15  and  C_16
REMARK    6  A    between atoms: C_16  and  C_17
REMARK    7  A    between atoms: C_17  and  C_18
REMARK    8  A    between atoms: C_18  and  N_19
REMARK    9  A    between atoms: N_19  and  C_20
REMARK   10  A    between atoms: C_20  and  C_21
REMARK                            x       y       z     vdW  Elec       q    Type
REMARK                         _______ _______ _______ _____ _____    ______ ____
ROOT
ATOM      1  C   UNL     1       7.808   8.222  17.636  0.00  0.00    +0.000 C 
ENDROOT
BRANCH   1   2
ATOM      2  C   UNL     1       8.188   9.642  18.049  0.00  0.00    +0.000 C 
BRANCH   2   3
ATOM      3  C   UNL     1       9.233   9.641  19.163  0.00  0.00    +0.000 C 
BRANCH   3  14
ATOM      4  O   UNL     1       8.708  11.242  21.602  0.00  0.00    +0.000 OA
ATOM      5  C   UNL     1       9.369  11.629  20.658  0.00  0.00    +0.000 C 
ATOM      6  C   UNL     1      10.035  12.929  20.598  0.00  0.00    +0.000 A 
ATOM      7  C   UNL     1      10.063  13.966  21.509  0.00  0.00    +0.000 A 
ATOM      8  C   UNL     1      10.803  15.101  21.163  0.00  0.00    +0.000 A 
ATOM      9  C   UNL     1      11.488  15.170  19.931  0.00  0.00    +0.000 A 
ATOM     10  C   UNL     1      11.447  14.106  19.026  0.00  0.00    +0.000 A 
ATOM     11  C   UNL     1      10.709  12.997  19.392  0.00  0.00    +0.000 A 
ATOM     12  C   UNL     1      10.478  11.739  18.684  0.00  0.00    +0.000 C 
ATOM     13  O   UNL     1      10.962  11.465  17.602  0.00  0.00    +0.000 OA
ATOM     14  N   UNL     1       9.659  10.989  19.484  0.00  0.00    +0.000 N 
ENDBRANCH   3  14
ENDBRANCH   2   3
ENDBRANCH   1   2
BRANCH   1  15
ATOM     15  C   UNL     1       8.212   7.219  18.714  0.00  0.00    +0.000 C 
BRANCH  15  16
ATOM     16  C   UNL     1       7.553   5.862  18.489  0.00  0.00    +0.000 C 
BRANCH  16  17
ATOM     17  C   UNL     1       6.221   6.019  17.756  0.00  0.00    +0.000 C 
BRANCH  17  18
ATOM     18  C   UNL     1       5.114   5.242  18.467  0.00  0.00    +0.000 C 
BRANCH  18  19
ATOM     19  N   UNL     1       5.229   3.828  18.130  0.00  0.00    +0.000 NA
ATOM     20  H   UNL     1       5.620   3.309  18.917  0.00  0.00    +0.000 HD
BRANCH  19  21
ATOM     21  C   UNL     1       3.926   3.258  17.794  0.00  0.00    +0.000 C 
BRANCH  21  22
ATOM     22  C   UNL     1       3.026   3.239  19.006  0.00  0.00    +0.000 A 
ATOM     23  C   UNL     1       1.744   3.803  18.953  0.00  0.00    +0.000 A 
ATOM     24  C   UNL     1       0.924   3.800  20.084  0.00  0.00    +0.000 A 
ATOM     25  C   UNL     1       1.375   3.233  21.273  0.00  0.00    +0.000 A 
ATOM     26  C   UNL     1       2.644   2.661  21.336  0.00  0.00    +0.000 A 
ATOM     27  C   UNL     1       3.464   2.660  20.206  0.00  0.00    +0.000 A 
ENDBRANCH  21  22
ENDBRANCH  19  21
ENDBRANCH  18  19
ENDBRANCH  17  18
ENDBRANCH  16  17
ENDBRANCH  15  16
ENDBRANCH   1  15
TORSDOF 10
ENDMDL
MODEL 5
REMARK VINA RESULT:      -7.1      4.788      7.879
REMARK  Name = 
REMARK  10 active torsions:
REMARK  status: ('A' for Active; 'I' for Inactive)
REMARK    1  A    between atoms: N_11  and  C_12
REMARK    2  A    between atoms: C_12  and  C_13
REMARK    3  A    between atoms: C_13  and  C_14
REMARK    4  A    between atoms: C_14  and  C_15
REMARK    5  A    between atoms: C_15  and  C_16
REMARK    6  A    between atoms: C_16  and  C_17
REMARK    7  A    between atoms: C_17  and  C_18
REMARK    8  A    between atoms: C_18  and  N_19
REMARK    9  A    between atoms: N_19  and  C_20
REMARK   10  A    between atoms: C_20  and  C_21
REMARK                            x       y       z     vdW  Elec       q    Type
REMARK                         _______ _______ _______ _____ _____    ______ ____
ROOT
ATOM      1  C   UNL     1       6.959   6.578  18.189  0.00  0.00    +0.000 C 
ENDROOT
BRANCH   1   2
ATOM      2  C   UNL     1       6.810   6.134  16.735  0.00  0.00    +0.000 C 
BRANCH   2   3
ATOM      3  C   UNL     1       5.381   6.326  16.234  0.00  0.00    +0.000 C 
BRANCH   3  14
ATOM      4  O   UNL     1       3.106   6.990  18.014  0.00  0.00    +0.000 OA
ATOM      5  C   UNL     1       3.428   5.858  17.707  0.00  0.00    +0.000 C 
ATOM      6  C   UNL     1       2.720   4.655  18.141  0.00  0.00    +0.000 A 
ATOM      7  C   UNL     1       1.615   4.509  18.956  0.00  0.00    +0.000 A 
ATOM      8  C   UNL     1       1.160   3.206  19.188  0.00  0.00    +0.000 A 
ATOM      9  C   UNL     1       1.812   2.098  18.607  0.00  0.00    +0.000 A 
ATOM     10  C   UNL     1       2.928   2.272  17.783  0.00  0.00    +0.000 A 
ATOM     11  C   UNL     1       3.357   3.568  17.570  0.00  0.00    +0.000 A 
ATOM     12  C   UNL     1       4.468   4.076  16.768  0.00  0.00    +0.000 C 
ATOM     13  O   UNL     1       5.210   3.375  16.107  0.00  0.00    +0.000 OA
ATOM     14  N   UNL     1       4.461   5.437  16.915  0.00  0.00    +0.000 N 
ENDBRANCH   3  14
ENDBRANCH   2   3
ENDBRANCH   1   2
BRANCH   1  15
ATOM     15  C   UNL     1       8.264   7.345  18.388  0.00  0.00    +0.000 C 
BRANCH  15  16
ATOM     16  C   UNL     1       8.145   8.784  17.894  0.00  0.00    +0.000 C 
BRANCH  16  17
ATOM     17  C   UNL     1       8.929   9.736  18.797  0.00  0.00    +0.000 C 
BRANCH  17  18
ATOM     18  C   UNL     1       9.053  11.116  18.152  0.00  0.00    +0.000 C 
BRANCH  18  19
ATOM     19  N   UNL     1      10.452  11.528  18.170  0.00  0.00    +0.000 NA
ATOM     20  H   UNL     1      10.539  12.494  17.854  0.00  0.00    +0.000 HD
BRANCH  19  21
ATOM     21  C   UNL     1      11.017  11.422  19.514  0.00  0.00    +0.000 C 
BRANCH  21  22
ATOM     22  C   UNL     1      10.605  12.603  20.358  0.00  0.00    +0.000 A 
ATOM     23  C   UNL     1      11.095  13.886  20.082  0.00  0.00    +0.000 A 
ATOM     24  C   UNL     1      10.726  14.971  20.880  0.00  0.00    +0.000 A 
ATOM     25  C   UNL     1       9.863  14.784  21.957  0.00  0.00    +0.000 A 
ATOM     26  C   UNL     1       9.361  13.515  22.237  0.00  0.00    +0.000 A 
ATOM     27  C   UNL     1       9.727  12.430  21.439  0.00  0.00    +0.000 A 
ENDBRANCH  21  22
ENDBRANCH  19  21
ENDBRANCH  18  19
ENDBRANCH  17  18
ENDBRANCH  16  17
ENDBRANCH  15  16
ENDBRANCH   1  15
TORSDOF 10
ENDMDL
MODEL 6
REMARK VINA RESULT:      -7.1      2.051      6.749
REMARK  Name = 
REMARK  10 active torsions:
REMARK  status: ('A' for Active; 'I' for Inactive)
REMARK    1  A    between atoms: N_11  and  C_12
REMARK    2  A    between atoms: C_12  and  C_13
REMARK    3  A    between atoms: C_13  and  C_14
REMARK    4  A    between atoms: C_14  and  C_15
REMARK    5  A    between atoms: C_15  and  C_16
REMARK    6  A    between atoms: C_16  and  C_17
REMARK    7  A    between atoms: C_17  and  C_18
REMARK    8  A    between atoms: C_18  and  N_19
REMARK    9  A    between atoms: N_19  and  C_20
REMARK   10  A    between atoms: C_20  and  C_21
REMARK                            x       y       z     vdW  Elec       q    Type
REMARK                         _______ _______ _______ _____ _____    ______ ____
ROOT
ATOM      1  C   UNL     1       4.735   6.949  16.161  0.00  0.00    +0.000 C 
ENDROOT
BRANCH   1   2
ATOM      2  C   UNL     1       4.330   7.217  17.609  0.00  0.00    +0.000 C 
BRANCH   2   3
ATOM      3  C   UNL     1       2.886   6.796  17.874  0.00  0.00    +0.000 C 
BRANCH   3  14
ATOM      4  O   UNL     1       1.912   9.548  17.359  0.00  0.00    +0.000 OA
ATOM      5  C   UNL     1       1.803   8.971  18.423  0.00  0.00    +0.000 C 
ATOM      6  C   UNL     1       1.143   9.534  19.600  0.00  0.00    +0.000 A 
ATOM      7  C   UNL     1       0.546  10.764  19.792  0.00  0.00    +0.000 A 
ATOM      8  C   UNL     1      -0.012  11.014  21.050  0.00  0.00    +0.000 A 
ATOM      9  C   UNL     1       0.037  10.040  22.070  0.00  0.00    +0.000 A 
ATOM     10  C   UNL     1       0.644   8.800  21.851  0.00  0.00    +0.000 A 
ATOM     11  C   UNL     1       1.188   8.579  20.600  0.00  0.00    +0.000 A 
ATOM     12  C   UNL     1       1.873   7.406  20.062  0.00  0.00    +0.000 C 
ATOM     13  O   UNL     1       2.049   6.373  20.681  0.00  0.00    +0.000 OA
ATOM     14  N   UNL     1       2.226   7.719  18.777  0.00  0.00    +0.000 N 
ENDBRANCH   3  14
ENDBRANCH   2   3
ENDBRANCH   1   2
BRANCH   1  15
ATOM     15  C   UNL     1       5.688   5.759  16.079  0.00  0.00    +0.000 C 
BRANCH  15  16
ATOM     16  C   UNL     1       6.919   5.970  16.956  0.00  0.00    +0.000 C 
BRANCH  16  17
ATOM     17  C   UNL     1       7.101   4.804  17.928  0.00  0.00    +0.000 C 
BRANCH  17  18
ATOM     18  C   UNL     1       6.817   5.244  19.364  0.00  0.00    +0.000 C 
BRANCH  18  19
ATOM     19  N   UNL     1       5.473   4.818  19.738  0.00  0.00    +0.000 NA
ATOM     20  H   UNL     1       4.809   5.577  19.588  0.00  0.00    +0.000 HD
BRANCH  19  21
ATOM     21  C   UNL     1       5.049   3.661  18.952  0.00  0.00    +0.000 C 
BRANCH  21  22
ATOM     22  C   UNL     1       3.582   3.380  19.170  0.00  0.00    +0.000 A 
ATOM     23  C   UNL     1       2.678   3.426  18.100  0.00  0.00    +0.000 A 
ATOM     24  C   UNL     1       1.319   3.186  18.311  0.00  0.00    +0.000 A 
ATOM     25  C   UNL     1       0.852   2.895  19.591  0.00  0.00    +0.000 A 
ATOM     26  C   UNL     1       1.741   2.836  20.662  0.00  0.00    +0.000 A 
ATOM     27  C   UNL     1       3.101   3.074  20.451  0.00  0.00    +0.000 A 
ENDBRANCH  21  22
ENDBRANCH  19  21
ENDBRANCH  18  19
ENDBRANCH  17  18
ENDBRANCH  16  17
ENDBRANCH  15  16
ENDBRANCH   1  15
TORSDOF 10
ENDMDL
MODEL 7
REMARK VINA RESULT:      -7.1      1.798      4.161
REMARK  Name = 
REMARK  10 active torsions:
REMARK  status: ('A' for Active; 'I' for Inactive)
REMARK    1  A    between atoms: N_11  and  C_12
REMARK    2  A    between atoms: C_12  and  C_13
REMARK    3  A    between atoms: C_13  and  C_14
REMARK    4  A    between atoms: C_14  and  C_15
REMARK    5  A    between atoms: C_15  and  C_16
REMARK    6  A    between atoms: C_16  and  C_17
REMARK    7  A    between atoms: C_17  and  C_18
REMARK    8  A    between atoms: C_18  and  N_19
REMARK    9  A    between atoms: N_19  and  C_20
REMARK   10  A    between atoms: C_20  and  C_21
REMARK                            x       y       z     vdW  Elec       q    Type
REMARK                         _______ _______ _______ _____ _____    ______ ____
ROOT
ATOM      1  C   UNL     1       4.714   6.349  16.406  0.00  0.00    +0.000 C 
ENDROOT
BRANCH   1   2
ATOM      2  C   UNL     1       5.708   5.214  16.640  0.00  0.00    +0.000 C 
BRANCH   2   3
ATOM      3  C   UNL     1       5.027   3.849  16.574  0.00  0.00    +0.000 C 
BRANCH   3  14
ATOM      4  O   UNL     1       2.094   3.422  16.551  0.00  0.00    +0.000 OA
ATOM      5  C   UNL     1       2.773   3.454  17.559  0.00  0.00    +0.000 C 
ATOM      6  C   UNL     1       2.252   3.251  18.910  0.00  0.00    +0.000 A 
ATOM      7  C   UNL     1       0.965   3.014  19.348  0.00  0.00    +0.000 A 
ATOM      8  C   UNL     1       0.778   2.857  20.726  0.00  0.00    +0.000 A 
ATOM      9  C   UNL     1       1.869   2.938  21.618  0.00  0.00    +0.000 A 
ATOM     10  C   UNL     1       3.164   3.176  21.149  0.00  0.00    +0.000 A 
ATOM     11  C   UNL     1       3.321   3.329  19.785  0.00  0.00    +0.000 A 
ATOM     12  C   UNL     1       4.524   3.576  18.994  0.00  0.00    +0.000 C 
ATOM     13  O   UNL     1       5.644   3.664  19.462  0.00  0.00    +0.000 OA
ATOM     14  N   UNL     1       4.120   3.660  17.689  0.00  0.00    +0.000 N 
ENDBRANCH   3  14
ENDBRANCH   2   3
ENDBRANCH   1   2
BRANCH   1  15
ATOM     15  C   UNL     1       4.246   6.940  17.734  0.00  0.00    +0.000 C 
BRANCH  15  16
ATOM     16  C   UNL     1       2.728   7.088  17.773  0.00  0.00    +0.000 C 
BRANCH  16  17
ATOM     17  C   UNL     1       2.319   8.264  18.660  0.00  0.00    +0.000 C 
BRANCH  17  18
ATOM     18  C   UNL     1       1.572   9.322  17.848  0.00  0.00    +0.000 C 
BRANCH  18  19
ATOM     19  N   UNL     1       0.633  10.020  18.720  0.00  0.00    +0.000 NA
ATOM     20  H   UNL     1      -0.302  10.006  18.312  0.00  0.00    +0.000 HD
BRANCH  19  21
ATOM     21  C   UNL     1       0.579   9.398  20.041  0.00  0.00    +0.000 C 
BRANCH  21  22
ATOM     22  C   UNL     1      -0.239  10.239  20.991  0.00  0.00    +0.000 A 
ATOM     23  C   UNL     1      -0.344   9.892  22.345  0.00  0.00    +0.000 A 
ATOM     24  C   UNL     1      -1.119  10.664  23.213  0.00  0.00    +0.000 A 
ATOM     25  C   UNL     1      -1.792  11.787  22.739  0.00  0.00    +0.000 A 
ATOM     26  C   UNL     1      -1.687  12.149  21.398  0.00  0.00    +0.000 A 
ATOM     27  C   UNL     1      -0.911  11.380  20.529  0.00  0.00    +0.000 A 
ENDBRANCH  21  22
ENDBRANCH  19  21
ENDBRANCH  18  19
ENDBRANCH  17  18
ENDBRANCH  16  17
ENDBRANCH  15  16
ENDBRANCH   1  15
TORSDOF 10
ENDMDL
MODEL 8
REMARK VINA RESULT:      -7.1      5.177      8.080
REMARK  Name = 
REMARK  10 active torsions:
REMARK  status: ('A' for Active; 'I' for Inactive)
REMARK    1  A    between atoms: N_11  and  C_12
REMARK    2  A    between atoms: C_12  and  C_13
REMARK    3  A    between atoms: C_13  and  C_14
REMARK    4  A    between atoms: C_14  and  C_15
REMARK    5  A    between atoms: C_15  and  C_16
REMARK    6  A    between atoms: C_16  and  C_17
REMARK    7  A    between atoms: C_17  and  C_18
REMARK    8  A    between atoms: C_18  and  N_19
REMARK    9  A    between atoms: N_19  and  C_20
REMARK   10  A    between atoms: C_20  and  C_21
REMARK                            x       y       z     vdW  Elec       q    Type
REMARK                         _______ _______ _______ _____ _____    ______ ____
ROOT
ATOM      1  C   UNL     1       8.170   7.945  17.935  0.00  0.00    +0.000 C 
ENDROOT
BRANCH   1   2
ATOM      2  C   UNL     1       6.919   7.264  17.382  0.00  0.00    +0.000 C 
BRANCH   2   3
ATOM      3  C   UNL     1       7.151   5.773  17.144  0.00  0.00    +0.000 C 
BRANCH   3  14
ATOM      4  O   UNL     1       6.286   4.963  19.861  0.00  0.00    +0.000 OA
ATOM      5  C   UNL     1       5.685   4.689  18.841  0.00  0.00    +0.000 C 
ATOM      6  C   UNL     1       4.425   3.948  18.802  0.00  0.00    +0.000 A 
ATOM      7  C   UNL     1       3.674   3.401  19.823  0.00  0.00    +0.000 A 
ATOM      8  C   UNL     1       2.493   2.743  19.465  0.00  0.00    +0.000 A 
ATOM      9  C   UNL     1       2.096   2.651  18.114  0.00  0.00    +0.000 A 
ATOM     10  C   UNL     1       2.872   3.215  17.098  0.00  0.00    +0.000 A 
ATOM     11  C   UNL     1       4.034   3.859  17.478  0.00  0.00    +0.000 A 
ATOM     12  C   UNL     1       5.041   4.546  16.672  0.00  0.00    +0.000 C 
ATOM     13  O   UNL     1       4.977   4.677  15.464  0.00  0.00    +0.000 OA
ATOM     14  N   UNL     1       5.997   4.992  17.543  0.00  0.00    +0.000 N 
ENDBRANCH   3  14
ENDBRANCH   2   3
ENDBRANCH   1   2
BRANCH   1  15
ATOM     15  C   UNL     1       8.026   9.464  17.880  0.00  0.00    +0.000 C 
BRANCH  15  16
ATOM     16  C   UNL     1       9.011  10.151  18.822  0.00  0.00    +0.000 C 
BRANCH  16  17
ATOM     17  C   UNL     1       9.971  11.050  18.043  0.00  0.00    +0.000 C 
BRANCH  17  18
ATOM     18  C   UNL     1       9.520  12.508  18.102  0.00  0.00    +0.000 C 
BRANCH  18  19
ATOM     19  N   UNL     1      10.640  13.340  18.528  0.00  0.00    +0.000 NA
ATOM     20  H   UNL     1      10.336  14.306  18.645  0.00  0.00    +0.000 HD
BRANCH  19  21
ATOM     21  C   UNL     1      11.197  12.867  19.794  0.00  0.00    +0.000 C 
BRANCH  21  22
ATOM     22  C   UNL     1      10.370  13.359  20.956  0.00  0.00    +0.000 A 
ATOM     23  C   UNL     1       9.567  12.475  21.689  0.00  0.00    +0.000 A 
ATOM     24  C   UNL     1       8.788  12.941  22.750  0.00  0.00    +0.000 A 
ATOM     25  C   UNL     1       8.807  14.292  23.089  0.00  0.00    +0.000 A 
ATOM     26  C   UNL     1       9.609  15.180  22.375  0.00  0.00    +0.000 A 
ATOM     27  C   UNL     1      10.389  14.715  21.316  0.00  0.00    +0.000 A 
ENDBRANCH  21  22
ENDBRANCH  19  21
ENDBRANCH  18  19
ENDBRANCH  17  18
ENDBRANCH  16  17
ENDBRANCH  15  16
ENDBRANCH   1  15
TORSDOF 10
ENDMDL
MODEL 9
REMARK VINA RESULT:      -7.0      2.048      7.101
REMARK  Name = 
REMARK  10 active torsions:
REMARK  status: ('A' for Active; 'I' for Inactive)
REMARK    1  A    between atoms: N_11  and  C_12
REMARK    2  A    between atoms: C_12  and  C_13
REMARK    3  A    between atoms: C_13  and  C_14
REMARK    4  A    between atoms: C_14  and  C_15
REMARK    5  A    between atoms: C_15  and  C_16
REMARK    6  A    between atoms: C_16  and  C_17
REMARK    7  A    between atoms: C_17  and  C_18
REMARK    8  A    between atoms: C_18  and  N_19
REMARK    9  A    between atoms: N_19  and  C_20
REMARK   10  A    between atoms: C_20  and  C_21
REMARK                            x       y       z     vdW  Elec       q    Type
REMARK                         _______ _______ _______ _____ _____    ______ ____
ROOT
ATOM      1  C   UNL     1       2.405   4.718  20.916  0.00  0.00    +0.000 C 
ENDROOT
BRANCH   1   2
ATOM      2  C   UNL     1       1.625   5.758  20.114  0.00  0.00    +0.000 C 
BRANCH   2   3
ATOM      3  C   UNL     1       2.517   6.922  19.689  0.00  0.00    +0.000 C 
BRANCH   3  14
ATOM      4  O   UNL     1       1.836   8.759  17.464  0.00  0.00    +0.000 OA
ATOM      5  C   UNL     1       1.522   8.942  18.624  0.00  0.00    +0.000 C 
ATOM      6  C   UNL     1       0.730  10.079  19.092  0.00  0.00    +0.000 A 
ATOM      7  C   UNL     1       0.202  11.150  18.400  0.00  0.00    +0.000 A 
ATOM      8  C   UNL     1      -0.525  12.091  19.137  0.00  0.00    +0.000 A 
ATOM      9  C   UNL     1      -0.704  11.939  20.528  0.00  0.00    +0.000 A 
ATOM     10  C   UNL     1      -0.162  10.844  21.206  0.00  0.00    +0.000 A 
ATOM     11  C   UNL     1       0.552   9.929  20.456  0.00  0.00    +0.000 A 
ATOM     12  C   UNL     1       1.225   8.696  20.858  0.00  0.00    +0.000 C 
ATOM     13  O   UNL     1       1.228   8.258  21.993  0.00  0.00    +0.000 OA
ATOM     14  N   UNL     1       1.794   8.179  19.726  0.00  0.00    +0.000 N 
ENDBRANCH   3  14
ENDBRANCH   2   3
ENDBRANCH   1   2
BRANCH   1  15
ATOM     15  C   UNL     1       1.722   3.354  20.838  0.00  0.00    +0.000 C 
BRANCH  15  16
ATOM     16  C   UNL     1       0.794   3.264  19.630  0.00  0.00    +0.000 C 
BRANCH  16  17
ATOM     17  C   UNL     1       1.565   2.830  18.383  0.00  0.00    +0.000 C 
BRANCH  17  18
ATOM     18  C   UNL     1       2.644   1.809  18.740  0.00  0.00    +0.000 C 
BRANCH  18  19
ATOM     19  N   UNL     1       3.900   2.199  18.109  0.00  0.00    +0.000 NA
ATOM     20  H   UNL     1       4.112   1.574  17.331  0.00  0.00    +0.000 HD
BRANCH  19  21
ATOM     21  C   UNL     1       3.835   3.570  17.606  0.00  0.00    +0.000 C 
BRANCH  21  22
ATOM     22  C   UNL     1       5.153   4.274  17.809  0.00  0.00    +0.000 A 
ATOM     23  C   UNL     1       6.080   4.375  16.763  0.00  0.00    +0.000 A 
ATOM     24  C   UNL     1       7.307   5.011  16.964  0.00  0.00    +0.000 A 
ATOM     25  C   UNL     1       7.618   5.552  18.209  0.00  0.00    +0.000 A 
ATOM     26  C   UNL     1       6.702   5.467  19.255  0.00  0.00    +0.000 A 
ATOM     27  C   UNL     1       5.474   4.834  19.055  0.00  0.00    +0.000 A 
ENDBRANCH  21  22
ENDBRANCH  19  21
ENDBRANCH  18  19
ENDBRANCH  17  18
ENDBRANCH  16  17
ENDBRANCH  15  16
ENDBRANCH   1  15
TORSDOF 10
ENDMDL
