MODEL 1
REMARK VINA RESULT:      -9.0      0.000      0.000
REMARK  Name = 
REMARK  7 active torsions:
REMARK  status: ('A' for Active; 'I' for Inactive)
REMARK    1  A    between atoms: C_1  and  C_2
REMARK    2  A    between atoms: C_5  and  S_6
REMARK    3  A    between atoms: S_6  and  N_9
REMARK    4  A    between atoms: N_9  and  C_10
REMARK    5  A    between atoms: N_22  and  C_23
REMARK    6  A    between atoms: C_23  and  C_24
REMARK    7  A    between atoms: C_24  and  C_25
REMARK                            x       y       z     vdW  Elec       q    Type
REMARK                         _______ _______ _______ _____ _____    ______ ____
ROOT
ATOM      1  C   UNL     1       2.688   7.033  18.607  0.00  0.00    +0.000 A 
ATOM      2  C   UNL     1       2.367   8.301  18.166  0.00  0.00    +0.000 A 
ATOM      3  C   UNL     1       1.629   8.919  19.192  0.00  0.00    +0.000 A 
ATOM      4  N   UNL     1       1.077  10.151  19.240  0.00  0.00    +0.000 NA
ATOM      5  C   UNL     1       0.433  10.423  20.388  0.00  0.00    +0.000 A 
ATOM      6  C   UNL     1      -0.162  11.670  20.517  0.00  0.00    +0.000 A 
ATOM      7  C   UNL     1      -0.855  12.033  21.671  0.00  0.00    +0.000 A 
ATOM      8  C   UNL     1      -0.955  11.130  22.718  0.00  0.00    +0.000 A 
ATOM      9  C   UNL     1      -0.358   9.871  22.603  0.00  0.00    +0.000 A 
ATOM     10  C   UNL     1       0.341   9.493  21.459  0.00  0.00    +0.000 A 
ATOM     11  N   UNL     1       0.902   8.266  21.414  0.00  0.00    +0.000 NA
ATOM     12  C   UNL     1       1.542   8.030  20.250  0.00  0.00    +0.000 A 
ATOM     13  N   UNL     1       2.234   6.886  19.900  0.00  0.00    +0.000 N 
ENDROOT
BRANCH   1  14
ATOM     14  N   UNL     1       3.454   6.171  17.851  0.00  0.00    +0.000 N 
ATOM     15  H   UNL     1       3.025   5.684  17.078  0.00  0.00    +0.000 HD
BRANCH  14  16
ATOM     16  S   UNL     1       5.081   6.094  17.914  0.00  0.00    +0.000 S 
ATOM     17  O   UNL     1       5.495   5.219  18.996  0.00  0.00    +0.000 OA
ATOM     18  O   UNL     1       5.602   7.444  17.851  0.00  0.00    +0.000 OA
BRANCH  16  23
ATOM     19  C   UNL     1       6.506   3.489  12.604  0.00  0.00    +0.000 C 
ATOM     20  C   UNL     1       6.190   4.095  13.942  0.00  0.00    +0.000 A 
ATOM     21  C   UNL     1       7.101   4.945  14.583  0.00  0.00    +0.000 A 
ATOM     22  C   UNL     1       6.776   5.544  15.804  0.00  0.00    +0.000 A 
ATOM     23  C   UNL     1       5.530   5.291  16.384  0.00  0.00    +0.000 A 
ATOM     24  C   UNL     1       4.635   4.398  15.785  0.00  0.00    +0.000 A 
ATOM     25  C   UNL     1       4.966   3.808  14.563  0.00  0.00    +0.000 A 
ENDBRANCH  16  23
ENDBRANCH  14  16
ENDBRANCH   1  14
BRANCH  13  26
ATOM     26  C   UNL     1       2.365   5.754  20.803  0.00  0.00    +0.000 C 
BRANCH  26  27
ATOM     27  C   UNL     1       1.522   4.510  20.508  0.00  0.00    +0.000 C 
BRANCH  27  28
ATOM     28  C   UNL     1       2.150   3.424  19.662  0.00  0.00    +0.000 A 
ATOM     29  C   UNL     1       1.685   3.095  18.380  0.00  0.00    +0.000 A 
ATOM     30  C   UNL     1       2.373   2.173  17.588  0.00  0.00    +0.000 A 
ATOM     31  C   UNL     1       3.537   1.574  18.060  0.00  0.00    +0.000 A 
ATOM     32  C   UNL     1       4.005   1.880  19.334  0.00  0.00    +0.000 A 
ATOM     33  C   UNL     1       3.317   2.799  20.131  0.00  0.00    +0.000 A 
ENDBRANCH  27  28
ENDBRANCH  26  27
ENDBRANCH  13  26
TORSDOF 6
ENDMDL
MODEL 2
REMARK VINA RESULT:      -8.9      0.576      1.036
REMARK  Name = 
REMARK  7 active torsions:
REMARK  status: ('A' for Active; 'I' for Inactive)
REMARK    1  A    between atoms: C_1  and  C_2
REMARK    2  A    between atoms: C_5  and  S_6
REMARK    3  A    between atoms: S_6  and  N_9
REMARK    4  A    between atoms: N_9  and  C_10
REMARK    5  A    between atoms: N_22  and  C_23
REMARK    6  A    between atoms: C_23  and  C_24
REMARK    7  A    between atoms: C_24  and  C_25
REMARK                            x       y       z     vdW  Elec       q    Type
REMARK                         _______ _______ _______ _____ _____    ______ ____
ROOT
ATOM      1  C   UNL     1       2.451   7.281  18.704  0.00  0.00    +0.000 A 
ATOM      2  C   UNL     1       2.121   8.566  18.325  0.00  0.00    +0.000 A 
ATOM      3  C   UNL     1       1.398   9.136  19.388  0.00  0.00    +0.000 A 
ATOM      4  N   UNL     1       0.846  10.364  19.499  0.00  0.00    +0.000 NA
ATOM      5  C   UNL     1       0.218  10.584  20.667  0.00  0.00    +0.000 A 
ATOM      6  C   UNL     1      -0.376  11.823  20.860  0.00  0.00    +0.000 A 
ATOM      7  C   UNL     1      -1.052  12.133  22.040  0.00  0.00    +0.000 A 
ATOM      8  C   UNL     1      -1.136  11.184  23.047  0.00  0.00    +0.000 A 
ATOM      9  C   UNL     1      -0.539   9.933  22.867  0.00  0.00    +0.000 A 
ATOM     10  C   UNL     1       0.143   9.607  21.698  0.00  0.00    +0.000 A 
ATOM     11  N   UNL     1       0.705   8.384  21.589  0.00  0.00    +0.000 NA
ATOM     12  C   UNL     1       1.328   8.202  20.407  0.00  0.00    +0.000 A 
ATOM     13  N   UNL     1       2.016   7.076  19.996  0.00  0.00    +0.000 N 
ENDROOT
BRANCH   1  14
ATOM     14  N   UNL     1       3.206   6.455  17.900  0.00  0.00    +0.000 N 
ATOM     15  H   UNL     1       2.780   6.045  17.081  0.00  0.00    +0.000 HD
BRANCH  14  16
ATOM     16  S   UNL     1       4.828   6.318  17.990  0.00  0.00    +0.000 S 
ATOM     17  O   UNL     1       5.191   5.453  19.100  0.00  0.00    +0.000 OA
ATOM     18  O   UNL     1       5.401   7.644  17.904  0.00  0.00    +0.000 OA
BRANCH  16  23
ATOM     19  C   UNL     1       6.150   3.340  12.853  0.00  0.00    +0.000 C 
ATOM     20  C   UNL     1       5.878   4.097  14.122  0.00  0.00    +0.000 A 
ATOM     21  C   UNL     1       5.664   5.482  14.105  0.00  0.00    +0.000 A 
ATOM     22  C   UNL     1       5.361   6.168  15.284  0.00  0.00    +0.000 A 
ATOM     23  C   UNL     1       5.269   5.462  16.488  0.00  0.00    +0.000 A 
ATOM     24  C   UNL     1       5.540   4.090  16.528  0.00  0.00    +0.000 A 
ATOM     25  C   UNL     1       5.836   3.411  15.344  0.00  0.00    +0.000 A 
ENDBRANCH  16  23
ENDBRANCH  14  16
ENDBRANCH   1  14
BRANCH  13  26
ATOM     26  C   UNL     1       2.162   5.905  20.845  0.00  0.00    +0.000 C 
BRANCH  26  27
ATOM     27  C   UNL     1       1.443   4.623  20.416  0.00  0.00    +0.000 C 
BRANCH  27  28
ATOM     28  C   UNL     1       2.240   3.603  19.632  0.00  0.00    +0.000 A 
ATOM     29  C   UNL     1       3.318   2.896  20.182  0.00  0.00    +0.000 A 
ATOM     30  C   UNL     1       3.944   1.876  19.461  0.00  0.00    +0.000 A 
ATOM     31  C   UNL     1       3.496   1.544  18.186  0.00  0.00    +0.000 A 
ATOM     32  C   UNL     1       2.435   2.244  17.620  0.00  0.00    +0.000 A 
ATOM     33  C   UNL     1       1.810   3.268  18.337  0.00  0.00    +0.000 A 
ENDBRANCH  27  28
ENDBRANCH  26  27
ENDBRANCH  13  26
TORSDOF 6
ENDMDL
MODEL 3
REMARK VINA RESULT:      -8.1      2.773      7.304
REMARK  Name = 
REMARK  7 active torsions:
REMARK  status: ('A' for Active; 'I' for Inactive)
REMARK    1  A    between atoms: C_1  and  C_2
REMARK    2  A    between atoms: C_5  and  S_6
REMARK    3  A    between atoms: S_6  and  N_9
REMARK    4  A    between atoms: N_9  and  C_10
REMARK    5  A    between atoms: N_22  and  C_23
REMARK    6  A    between atoms: C_23  and  C_24
REMARK    7  A    between atoms: C_24  and  C_25
REMARK                            x       y       z     vdW  Elec       q    Type
REMARK                         _______ _______ _______ _____ _____    ______ ____
ROOT
ATOM      1  C   UNL     1       1.849   8.244  19.146  0.00  0.00    +0.000 A 
ATOM      2  C   UNL     1       2.358   8.595  17.913  0.00  0.00    +0.000 A 
ATOM      3  C   UNL     1       3.281   7.597  17.549  0.00  0.00    +0.000 A 
ATOM      4  N   UNL     1       4.050   7.491  16.444  0.00  0.00    +0.000 NA
ATOM      5  C   UNL     1       4.828   6.396  16.416  0.00  0.00    +0.000 A 
ATOM      6  C   UNL     1       5.650   6.213  15.312  0.00  0.00    +0.000 A 
ATOM      7  C   UNL     1       6.493   5.108  15.205  0.00  0.00    +0.000 A 
ATOM      8  C   UNL     1       6.515   4.166  16.221  0.00  0.00    +0.000 A 
ATOM      9  C   UNL     1       5.691   4.336  17.337  0.00  0.00    +0.000 A 
ATOM     10  C   UNL     1       4.840   5.432  17.460  0.00  0.00    +0.000 A 
ATOM     11  N   UNL     1       4.063   5.534  18.559  0.00  0.00    +0.000 NA
ATOM     12  C   UNL     1       3.293   6.642  18.551  0.00  0.00    +0.000 A 
ATOM     13  N   UNL     1       2.377   7.024  19.512  0.00  0.00    +0.000 N 
ENDROOT
BRANCH   1  14
ATOM     14  N   UNL     1       0.878   8.994  19.774  0.00  0.00    +0.000 N 
ATOM     15  H   UNL     1       0.355   8.582  20.534  0.00  0.00    +0.000 HD
BRANCH  14  16
ATOM     16  S   UNL     1       0.700  10.603  19.593  0.00  0.00    +0.000 S 
ATOM     17  O   UNL     1       1.693  11.111  18.662  0.00  0.00    +0.000 OA
ATOM     18  O   UNL     1       0.588  11.199  20.908  0.00  0.00    +0.000 OA
BRANCH  16  23
ATOM     19  C   UNL     1      -4.671  11.341  16.831  0.00  0.00    +0.000 C 
ATOM     20  C   UNL     1      -3.362  11.107  17.534  0.00  0.00    +0.000 A 
ATOM     21  C   UNL     1      -2.424  10.199  17.029  0.00  0.00    +0.000 A 
ATOM     22  C   UNL     1      -1.189  10.027  17.662  0.00  0.00    +0.000 A 
ATOM     23  C   UNL     1      -0.894  10.772  18.808  0.00  0.00    +0.000 A 
ATOM     24  C   UNL     1      -1.846  11.638  19.357  0.00  0.00    +0.000 A 
ATOM     25  C   UNL     1      -3.075  11.807  18.714  0.00  0.00    +0.000 A 
ENDBRANCH  16  23
ENDBRANCH  14  16
ENDBRANCH   1  14
BRANCH  13  26
ATOM     26  C   UNL     1       2.119   6.223  20.697  0.00  0.00    +0.000 C 
BRANCH  26  27
ATOM     27  C   UNL     1       1.239   4.980  20.536  0.00  0.00    +0.000 C 
BRANCH  27  28
ATOM     28  C   UNL     1       1.846   3.776  19.850  0.00  0.00    +0.000 A 
ATOM     29  C   UNL     1       1.440   3.342  18.580  0.00  0.00    +0.000 A 
ATOM     30  C   UNL     1       2.114   2.303  17.933  0.00  0.00    +0.000 A 
ATOM     31  C   UNL     1       3.206   1.691  18.541  0.00  0.00    +0.000 A 
ATOM     32  C   UNL     1       3.614   2.102  19.806  0.00  0.00    +0.000 A 
ATOM     33  C   UNL     1       2.939   3.137  20.458  0.00  0.00    +0.000 A 
ENDBRANCH  27  28
ENDBRANCH  26  27
ENDBRANCH  13  26
TORSDOF 6
ENDMDL
MODEL 4
REMARK VINA RESULT:      -8.0      2.321      7.897
REMARK  Name = 
REMARK  7 active torsions:
REMARK  status: ('A' for Active; 'I' for Inactive)
REMARK    1  A    between atoms: C_1  and  C_2
REMARK    2  A    between atoms: C_5  and  S_6
REMARK    3  A    between atoms: S_6  and  N_9
REMARK    4  A    between atoms: N_9  and  C_10
REMARK    5  A    between atoms: N_22  and  C_23
REMARK    6  A    between atoms: C_23  and  C_24
REMARK    7  A    between atoms: C_24  and  C_25
REMARK                            x       y       z     vdW  Elec       q    Type
REMARK                         _______ _______ _______ _____ _____    ______ ____
ROOT
ATOM      1  C   UNL     1       1.884   8.292  19.206  0.00  0.00    +0.000 A 
ATOM      2  C   UNL     1       2.388   8.649  17.972  0.00  0.00    +0.000 A 
ATOM      3  C   UNL     1       3.266   7.625  17.574  0.00  0.00    +0.000 A 
ATOM      4  N   UNL     1       4.015   7.512  16.455  0.00  0.00    +0.000 NA
ATOM      5  C   UNL     1       4.749   6.388  16.393  0.00  0.00    +0.000 A 
ATOM      6  C   UNL     1       5.546   6.197  15.273  0.00  0.00    +0.000 A 
ATOM      7  C   UNL     1       6.343   5.062  15.129  0.00  0.00    +0.000 A 
ATOM      8  C   UNL     1       6.344   4.099  16.126  0.00  0.00    +0.000 A 
ATOM      9  C   UNL     1       5.542   4.277  17.257  0.00  0.00    +0.000 A 
ATOM     10  C   UNL     1       4.737   5.402  17.416  0.00  0.00    +0.000 A 
ATOM     11  N   UNL     1       3.981   5.511  18.529  0.00  0.00    +0.000 NA
ATOM     12  C   UNL     1       3.255   6.648  18.555  0.00  0.00    +0.000 A 
ATOM     13  N   UNL     1       2.369   7.045  19.538  0.00  0.00    +0.000 N 
ENDROOT
BRANCH   1  14
ATOM     14  N   UNL     1       0.952   9.066  19.864  0.00  0.00    +0.000 N 
ATOM     15  H   UNL     1       0.753   8.874  20.835  0.00  0.00    +0.000 HD
BRANCH  14  16
ATOM     16  S   UNL     1       0.352  10.468  19.290  0.00  0.00    +0.000 S 
ATOM     17  O   UNL     1      -0.538  10.206  18.172  0.00  0.00    +0.000 OA
ATOM     18  O   UNL     1       1.451  11.397  19.122  0.00  0.00    +0.000 OA
BRANCH  16  23
ATOM     19  C   UNL     1      -3.209  12.455  23.804  0.00  0.00    +0.000 C 
ATOM     20  C   UNL     1      -2.285  11.997  22.710  0.00  0.00    +0.000 A 
ATOM     21  C   UNL     1      -1.282  11.052  22.962  0.00  0.00    +0.000 A 
ATOM     22  C   UNL     1      -0.462  10.595  21.926  0.00  0.00    +0.000 A 
ATOM     23  C   UNL     1      -0.651  11.086  20.630  0.00  0.00    +0.000 A 
ATOM     24  C   UNL     1      -1.609  12.074  20.378  0.00  0.00    +0.000 A 
ATOM     25  C   UNL     1      -2.427  12.521  21.418  0.00  0.00    +0.000 A 
ENDBRANCH  16  23
ENDBRANCH  14  16
ENDBRANCH   1  14
BRANCH  13  26
ATOM     26  C   UNL     1       2.097   6.229  20.710  0.00  0.00    +0.000 C 
BRANCH  26  27
ATOM     27  C   UNL     1       1.207   4.997  20.526  0.00  0.00    +0.000 C 
BRANCH  27  28
ATOM     28  C   UNL     1       1.816   3.789  19.848  0.00  0.00    +0.000 A 
ATOM     29  C   UNL     1       1.421   3.352  18.576  0.00  0.00    +0.000 A 
ATOM     30  C   UNL     1       2.097   2.309  17.939  0.00  0.00    +0.000 A 
ATOM     31  C   UNL     1       3.181   1.695  18.558  0.00  0.00    +0.000 A 
ATOM     32  C   UNL     1       3.579   2.108  19.826  0.00  0.00    +0.000 A 
ATOM     33  C   UNL     1       2.902   3.148  20.468  0.00  0.00    +0.000 A 
ENDBRANCH  27  28
ENDBRANCH  26  27
ENDBRANCH  13  26
TORSDOF 6
ENDMDL
MODEL 5
REMARK VINA RESULT:      -7.7      2.342      7.827
REMARK  Name = 
REMARK  7 active torsions:
REMARK  status: ('A' for Active; 'I' for Inactive)
REMARK    1  A    between atoms: C_1  and  C_2
REMARK    2  A    between atoms: C_5  and  S_6
REMARK    3  A    between atoms: S_6  and  N_9
REMARK    4  A    between atoms: N_9  and  C_10
REMARK    5  A    between atoms: N_22  and  C_23
REMARK    6  A    between atoms: C_23  and  C_24
REMARK    7  A    between atoms: C_24  and  C_25
REMARK                            x       y       z     vdW  Elec       q    Type
REMARK                         _______ _______ _______ _____ _____    ______ ____
ROOT
ATOM      1  C   UNL     1       1.641   8.192  19.357  0.00  0.00    +0.000 A 
ATOM      2  C   UNL     1       2.255   8.613  18.196  0.00  0.00    +0.000 A 
ATOM      3  C   UNL     1       3.232   7.654  17.875  0.00  0.00    +0.000 A 
ATOM      4  N   UNL     1       4.105   7.618  16.845  0.00  0.00    +0.000 NA
ATOM      5  C   UNL     1       4.909   6.541  16.839  0.00  0.00    +0.000 A 
ATOM      6  C   UNL     1       5.835   6.429  15.812  0.00  0.00    +0.000 A 
ATOM      7  C   UNL     1       6.711   5.347  15.733  0.00  0.00    +0.000 A 
ATOM      8  C   UNL     1       6.661   4.358  16.702  0.00  0.00    +0.000 A 
ATOM      9  C   UNL     1       5.731   4.455  17.741  0.00  0.00    +0.000 A 
ATOM     10  C   UNL     1       4.846   5.527  17.833  0.00  0.00    +0.000 A 
ATOM     11  N   UNL     1       3.966   5.559  18.857  0.00  0.00    +0.000 NA
ATOM     12  C   UNL     1       3.174   6.650  18.827  0.00  0.00    +0.000 A 
ATOM     13  N   UNL     1       2.162   6.967  19.713  0.00  0.00    +0.000 N 
ENDROOT
BRANCH   1  14
ATOM     14  N   UNL     1       0.597   8.890  19.924  0.00  0.00    +0.000 N 
ATOM     15  H   UNL     1      -0.192   9.146  19.348  0.00  0.00    +0.000 HD
BRANCH  14  16
ATOM     16  S   UNL     1       0.385   9.083  21.529  0.00  0.00    +0.000 S 
ATOM     17  O   UNL     1       1.670   9.269  22.180  0.00  0.00    +0.000 OA
ATOM     18  O   UNL     1      -0.507   8.043  21.997  0.00  0.00    +0.000 OA
BRANCH  16  23
ATOM     19  C   UNL     1      -2.794  14.256  21.907  0.00  0.00    +0.000 C 
ATOM     20  C   UNL     1      -1.964  13.005  21.840  0.00  0.00    +0.000 A 
ATOM     21  C   UNL     1      -1.758  12.214  22.978  0.00  0.00    +0.000 A 
ATOM     22  C   UNL     1      -1.027  11.026  22.894  0.00  0.00    +0.000 A 
ATOM     23  C   UNL     1      -0.502  10.626  21.661  0.00  0.00    +0.000 A 
ATOM     24  C   UNL     1      -0.649  11.437  20.530  0.00  0.00    +0.000 A 
ATOM     25  C   UNL     1      -1.386  12.620  20.623  0.00  0.00    +0.000 A 
ENDBRANCH  16  23
ENDBRANCH  14  16
ENDBRANCH   1  14
BRANCH  13  26
ATOM     26  C   UNL     1       1.813   6.103  20.830  0.00  0.00    +0.000 C 
BRANCH  26  27
ATOM     27  C   UNL     1       0.994   4.846  20.526  0.00  0.00    +0.000 C 
BRANCH  27  28
ATOM     28  C   UNL     1       1.702   3.698  19.839  0.00  0.00    +0.000 A 
ATOM     29  C   UNL     1       1.419   3.311  18.521  0.00  0.00    +0.000 A 
ATOM     30  C   UNL     1       2.184   2.329  17.887  0.00  0.00    +0.000 A 
ATOM     31  C   UNL     1       3.244   1.726  18.557  0.00  0.00    +0.000 A 
ATOM     32  C   UNL     1       3.530   2.090  19.869  0.00  0.00    +0.000 A 
ATOM     33  C   UNL     1       2.765   3.069  20.508  0.00  0.00    +0.000 A 
ENDBRANCH  27  28
ENDBRANCH  26  27
ENDBRANCH  13  26
TORSDOF 6
ENDMDL
MODEL 6
REMARK VINA RESULT:      -7.7      3.158      9.290
REMARK  Name = 
REMARK  7 active torsions:
REMARK  status: ('A' for Active; 'I' for Inactive)
REMARK    1  A    between atoms: C_1  and  C_2
REMARK    2  A    between atoms: C_5  and  S_6
REMARK    3  A    between atoms: S_6  and  N_9
REMARK    4  A    between atoms: N_9  and  C_10
REMARK    5  A    between atoms: N_22  and  C_23
REMARK    6  A    between atoms: C_23  and  C_24
REMARK    7  A    between atoms: C_24  and  C_25
REMARK                            x       y       z     vdW  Elec       q    Type
REMARK                         _______ _______ _______ _____ _____    ______ ____
ROOT
ATOM      1  C   UNL     1       0.904   8.431  20.230  0.00  0.00    +0.000 A 
ATOM      2  C   UNL     1       1.499   7.277  20.695  0.00  0.00    +0.000 A 
ATOM      3  C   UNL     1       2.434   6.876  19.724  0.00  0.00    +0.000 A 
ATOM      4  N   UNL     1       3.256   5.804  19.704  0.00  0.00    +0.000 NA
ATOM      5  C   UNL     1       4.031   5.722  18.609  0.00  0.00    +0.000 A 
ATOM      6  C   UNL     1       4.905   4.649  18.513  0.00  0.00    +0.000 A 
ATOM      7  C   UNL     1       5.741   4.484  17.409  0.00  0.00    +0.000 A 
ATOM      8  C   UNL     1       5.700   5.411  16.379  0.00  0.00    +0.000 A 
ATOM      9  C   UNL     1       4.826   6.499  16.464  0.00  0.00    +0.000 A 
ATOM     10  C   UNL     1       3.988   6.682  17.561  0.00  0.00    +0.000 A 
ATOM     11  N   UNL     1       3.172   7.757  17.587  0.00  0.00    +0.000 NA
ATOM     12  C   UNL     1       2.414   7.808  18.701  0.00  0.00    +0.000 A 
ATOM     13  N   UNL     1       1.500   8.788  19.040  0.00  0.00    +0.000 N 
ENDROOT
BRANCH   1  14
ATOM     14  N   UNL     1      -0.037   9.115  20.970  0.00  0.00    +0.000 N 
ATOM     15  H   UNL     1      -1.008   9.065  20.696  0.00  0.00    +0.000 HD
BRANCH  14  16
ATOM     16  S   UNL     1       0.244   9.764  22.439  0.00  0.00    +0.000 S 
ATOM     17  O   UNL     1       1.663  10.028  22.602  0.00  0.00    +0.000 OA
ATOM     18  O   UNL     1      -0.450   8.965  23.428  0.00  0.00    +0.000 OA
BRANCH  16  23
ATOM     19  C   UNL     1      -2.630  15.111  22.037  0.00  0.00    +0.000 C 
ATOM     20  C   UNL     1      -1.908  13.802  22.192  0.00  0.00    +0.000 A 
ATOM     21  C   UNL     1      -2.504  12.724  22.861  0.00  0.00    +0.000 A 
ATOM     22  C   UNL     1      -1.845  11.495  22.955  0.00  0.00    +0.000 A 
ATOM     23  C   UNL     1      -0.583  11.344  22.374  0.00  0.00    +0.000 A 
ATOM     24  C   UNL     1       0.048  12.429  21.756  0.00  0.00    +0.000 A 
ATOM     25  C   UNL     1      -0.619  13.652  21.662  0.00  0.00    +0.000 A 
ENDBRANCH  16  23
ENDBRANCH  14  16
ENDBRANCH   1  14
BRANCH  13  26
ATOM     26  C   UNL     1       1.251   9.941  18.190  0.00  0.00    +0.000 C 
BRANCH  26  27
ATOM     27  C   UNL     1       0.273  11.002  18.701  0.00  0.00    +0.000 C 
BRANCH  27  28
ATOM     28  C   UNL     1      -1.167  10.904  18.247  0.00  0.00    +0.000 A 
ATOM     29  C   UNL     1      -1.611   9.936  17.335  0.00  0.00    +0.000 A 
ATOM     30  C   UNL     1      -2.970   9.804  17.041  0.00  0.00    +0.000 A 
ATOM     31  C   UNL     1      -3.903  10.630  17.659  0.00  0.00    +0.000 A 
ATOM     32  C   UNL     1      -3.479  11.604  18.557  0.00  0.00    +0.000 A 
ATOM     33  C   UNL     1      -2.120  11.742  18.850  0.00  0.00    +0.000 A 
ENDBRANCH  27  28
ENDBRANCH  26  27
ENDBRANCH  13  26
TORSDOF 6
ENDMDL
MODEL 7
REMARK VINA RESULT:      -7.7      3.310      9.876
REMARK  Name = 
REMARK  7 active torsions:
REMARK  status: ('A' for Active; 'I' for Inactive)
REMARK    1  A    between atoms: C_1  and  C_2
REMARK    2  A    between atoms: C_5  and  S_6
REMARK    3  A    between atoms: S_6  and  N_9
REMARK    4  A    between atoms: N_9  and  C_10
REMARK    5  A    between atoms: N_22  and  C_23
REMARK    6  A    between atoms: C_23  and  C_24
REMARK    7  A    between atoms: C_24  and  C_25
REMARK                            x       y       z     vdW  Elec       q    Type
REMARK                         _______ _______ _______ _____ _____    ______ ____
ROOT
ATOM      1  C   UNL     1       0.696   8.830  20.201  0.00  0.00    +0.000 A 
ATOM      2  C   UNL     1       1.237   7.677  20.730  0.00  0.00    +0.000 A 
ATOM      3  C   UNL     1       2.193   7.211  19.811  0.00  0.00    +0.000 A 
ATOM      4  N   UNL     1       2.982   6.115  19.862  0.00  0.00    +0.000 NA
ATOM      5  C   UNL     1       3.793   5.969  18.801  0.00  0.00    +0.000 A 
ATOM      6  C   UNL     1       4.636   4.867  18.778  0.00  0.00    +0.000 A 
ATOM      7  C   UNL     1       5.506   4.635  17.713  0.00  0.00    +0.000 A 
ATOM      8  C   UNL     1       5.534   5.523  16.650  0.00  0.00    +0.000 A 
ATOM      9  C   UNL     1       4.692   6.639  16.661  0.00  0.00    +0.000 A 
ATOM     10  C   UNL     1       3.820   6.889  17.718  0.00  0.00    +0.000 A 
ATOM     11  N   UNL     1       3.038   7.989  17.673  0.00  0.00    +0.000 NA
ATOM     12  C   UNL     1       2.241   8.105  18.755  0.00  0.00    +0.000 A 
ATOM     13  N   UNL     1       1.347   9.124  19.022  0.00  0.00    +0.000 N 
ENDROOT
BRANCH   1  14
ATOM     14  N   UNL     1      -0.250   9.570  20.879  0.00  0.00    +0.000 N 
ATOM     15  H   UNL     1      -1.218   9.286  20.835  0.00  0.00    +0.000 HD
BRANCH  14  16
ATOM     16  S   UNL     1       0.099  10.701  21.999  0.00  0.00    +0.000 S 
ATOM     17  O   UNL     1       1.104  11.615  21.485  0.00  0.00    +0.000 OA
ATOM     18  O   UNL     1       0.326  10.033  23.263  0.00  0.00    +0.000 OA
BRANCH  16  23
ATOM     19  C   UNL     1      -4.978  13.992  22.637  0.00  0.00    +0.000 C 
ATOM     20  C   UNL     1      -3.755  13.138  22.451  0.00  0.00    +0.000 A 
ATOM     21  C   UNL     1      -3.114  13.056  21.208  0.00  0.00    +0.000 A 
ATOM     22  C   UNL     1      -1.948  12.300  21.059  0.00  0.00    +0.000 A 
ATOM     23  C   UNL     1      -1.420  11.624  22.163  0.00  0.00    +0.000 A 
ATOM     24  C   UNL     1      -2.083  11.649  23.395  0.00  0.00    +0.000 A 
ATOM     25  C   UNL     1      -3.245  12.411  23.536  0.00  0.00    +0.000 A 
ENDBRANCH  16  23
ENDBRANCH  14  16
ENDBRANCH   1  14
BRANCH  13  26
ATOM     26  C   UNL     1       1.167  10.251  18.122  0.00  0.00    +0.000 C 
BRANCH  26  27
ATOM     27  C   UNL     1       2.216  11.365  18.160  0.00  0.00    +0.000 C 
BRANCH  27  28
ATOM     28  C   UNL     1       1.721  12.788  18.305  0.00  0.00    +0.000 A 
ATOM     29  C   UNL     1       0.364  13.107  18.459  0.00  0.00    +0.000 A 
ATOM     30  C   UNL     1      -0.034  14.422  18.714  0.00  0.00    +0.000 A 
ATOM     31  C   UNL     1       0.917  15.431  18.830  0.00  0.00    +0.000 A 
ATOM     32  C   UNL     1       2.266  15.133  18.669  0.00  0.00    +0.000 A 
ATOM     33  C   UNL     1       2.667  13.821  18.408  0.00  0.00    +0.000 A 
ENDBRANCH  27  28
ENDBRANCH  26  27
ENDBRANCH  13  26
TORSDOF 6
ENDMDL
MODEL 8
REMARK VINA RESULT:      -7.6      3.116      9.537
REMARK  Name = 
REMARK  7 active torsions:
REMARK  status: ('A' for Active; 'I' for Inactive)
REMARK    1  A    between atoms: C_1  and  C_2
REMARK    2  A    between atoms: C_5  and  S_6
REMARK    3  A    between atoms: S_6  and  N_9
REMARK    4  A    between atoms: N_9  and  C_10
REMARK    5  A    between atoms: N_22  and  C_23
REMARK    6  A    between atoms: C_23  and  C_24
REMARK    7  A    between atoms: C_24  and  C_25
REMARK                            x       y       z     vdW  Elec       q    Type
REMARK                         _______ _______ _______ _____ _____    ______ ____
ROOT
ATOM      1  C   UNL     1       0.815   8.414  20.387  0.00  0.00    +0.000 A 
ATOM      2  C   UNL     1       1.450   7.243  20.749  0.00  0.00    +0.000 A 
ATOM      3  C   UNL     1       2.365   6.938  19.726  0.00  0.00    +0.000 A 
ATOM      4  N   UNL     1       3.211   5.892  19.605  0.00  0.00    +0.000 NA
ATOM      5  C   UNL     1       3.956   5.910  18.487  0.00  0.00    +0.000 A 
ATOM      6  C   UNL     1       4.852   4.869  18.288  0.00  0.00    +0.000 A 
ATOM      7  C   UNL     1       5.659   4.806  17.153  0.00  0.00    +0.000 A 
ATOM      8  C   UNL     1       5.568   5.805  16.196  0.00  0.00    +0.000 A 
ATOM      9  C   UNL     1       4.673   6.861  16.385  0.00  0.00    +0.000 A 
ATOM     10  C   UNL     1       3.861   6.942  17.514  0.00  0.00    +0.000 A 
ATOM     11  N   UNL     1       3.022   7.992  17.641  0.00  0.00    +0.000 NA
ATOM     12  C   UNL     1       2.295   7.942  18.776  0.00  0.00    +0.000 A 
ATOM     13  N   UNL     1       1.369   8.871  19.210  0.00  0.00    +0.000 N 
ENDROOT
BRANCH   1  14
ATOM     14  N   UNL     1      -0.120   9.018  21.200  0.00  0.00    +0.000 N 
ATOM     15  H   UNL     1      -1.041   8.611  21.273  0.00  0.00    +0.000 HD
BRANCH  14  16
ATOM     16  S   UNL     1       0.226  10.173  22.295  0.00  0.00    +0.000 S 
ATOM     17  O   UNL     1       1.576  10.667  22.087  0.00  0.00    +0.000 OA
ATOM     18  O   UNL     1      -0.160   9.689  23.604  0.00  0.00    +0.000 OA
BRANCH  16  23
ATOM     19  C   UNL     1      -3.730  14.595  20.949  0.00  0.00    +0.000 C 
ATOM     20  C   UNL     1      -2.709  13.539  21.267  0.00  0.00    +0.000 A 
ATOM     21  C   UNL     1      -1.959  13.594  22.449  0.00  0.00    +0.000 A 
ATOM     22  C   UNL     1      -1.048  12.580  22.760  0.00  0.00    +0.000 A 
ATOM     23  C   UNL     1      -0.891  11.503  21.883  0.00  0.00    +0.000 A 
ATOM     24  C   UNL     1      -1.590  11.467  20.671  0.00  0.00    +0.000 A 
ATOM     25  C   UNL     1      -2.501  12.482  20.371  0.00  0.00    +0.000 A 
ENDBRANCH  16  23
ENDBRANCH  14  16
ENDBRANCH   1  14
BRANCH  13  26
ATOM     26  C   UNL     1       1.070  10.077  18.455  0.00  0.00    +0.000 C 
BRANCH  26  27
ATOM     27  C   UNL     1       2.068  11.235  18.540  0.00  0.00    +0.000 C 
BRANCH  27  28
ATOM     28  C   UNL     1       1.536  12.589  18.954  0.00  0.00    +0.000 A 
ATOM     29  C   UNL     1       0.496  13.237  18.271  0.00  0.00    +0.000 A 
ATOM     30  C   UNL     1      -0.046  14.427  18.762  0.00  0.00    +0.000 A 
ATOM     31  C   UNL     1       0.435  14.980  19.945  0.00  0.00    +0.000 A 
ATOM     32  C   UNL     1       1.474  14.356  20.628  0.00  0.00    +0.000 A 
ATOM     33  C   UNL     1       2.022  13.169  20.137  0.00  0.00    +0.000 A 
ENDBRANCH  27  28
ENDBRANCH  26  27
ENDBRANCH  13  26
TORSDOF 6
ENDMDL
MODEL 9
REMARK VINA RESULT:      -7.6      2.759      7.375
REMARK  Name = 
REMARK  7 active torsions:
REMARK  status: ('A' for Active; 'I' for Inactive)
REMARK    1  A    between atoms: C_1  and  C_2
REMARK    2  A    between atoms: C_5  and  S_6
REMARK    3  A    between atoms: S_6  and  N_9
REMARK    4  A    between atoms: N_9  and  C_10
REMARK    5  A    between atoms: N_22  and  C_23
REMARK    6  A    between atoms: C_23  and  C_24
REMARK    7  A    between atoms: C_24  and  C_25
REMARK                            x       y       z     vdW  Elec       q    Type
REMARK                         _______ _______ _______ _____ _____    ______ ____
ROOT
ATOM      1  C   UNL     1       1.805   8.259  19.160  0.00  0.00    +0.000 A 
ATOM      2  C   UNL     1       2.305   8.610  17.923  0.00  0.00    +0.000 A 
ATOM      3  C   UNL     1       3.248   7.629  17.567  0.00  0.00    +0.000 A 
ATOM      4  N   UNL     1       4.018   7.530  16.461  0.00  0.00    +0.000 NA
ATOM      5  C   UNL     1       4.819   6.451  16.441  0.00  0.00    +0.000 A 
ATOM      6  C   UNL     1       5.643   6.277  15.338  0.00  0.00    +0.000 A 
ATOM      7  C   UNL     1       6.509   5.188  15.239  0.00  0.00    +0.000 A 
ATOM      8  C   UNL     1       6.553   4.256  16.263  0.00  0.00    +0.000 A 
ATOM      9  C   UNL     1       5.726   4.417  17.379  0.00  0.00    +0.000 A 
ATOM     10  C   UNL     1       4.853   5.496  17.494  0.00  0.00    +0.000 A 
ATOM     11  N   UNL     1       4.075   5.591  18.593  0.00  0.00    +0.000 NA
ATOM     12  C   UNL     1       3.282   6.683  18.576  0.00  0.00    +0.000 A 
ATOM     13  N   UNL     1       2.359   7.053  19.535  0.00  0.00    +0.000 N 
ENDROOT
BRANCH   1  14
ATOM     14  N   UNL     1       0.819   8.993  19.783  0.00  0.00    +0.000 N 
ATOM     15  H   UNL     1       0.258   8.553  20.499  0.00  0.00    +0.000 HD
BRANCH  14  16
ATOM     16  S   UNL     1       0.673  10.613  19.675  0.00  0.00    +0.000 S 
ATOM     17  O   UNL     1       1.679  11.142  18.770  0.00  0.00    +0.000 OA
ATOM     18  O   UNL     1       0.569  11.150  21.016  0.00  0.00    +0.000 OA
BRANCH  16  23
ATOM     19  C   UNL     1      -4.804  11.256  17.107  0.00  0.00    +0.000 C 
ATOM     20  C   UNL     1      -3.435  11.148  17.718  0.00  0.00    +0.000 A 
ATOM     21  C   UNL     1      -3.083  11.912  18.838  0.00  0.00    +0.000 A 
ATOM     22  C   UNL     1      -1.824  11.767  19.429  0.00  0.00    +0.000 A 
ATOM     23  C   UNL     1      -0.915  10.848  18.896  0.00  0.00    +0.000 A 
ATOM     24  C   UNL     1      -1.233  10.124  17.742  0.00  0.00    +0.000 A 
ATOM     25  C   UNL     1      -2.494  10.271  17.161  0.00  0.00    +0.000 A 
ENDBRANCH  16  23
ENDBRANCH  14  16
ENDBRANCH   1  14
BRANCH  13  26
ATOM     26  C   UNL     1       2.120   6.257  20.728  0.00  0.00    +0.000 C 
BRANCH  26  27
ATOM     27  C   UNL     1       1.367   4.934  20.559  0.00  0.00    +0.000 C 
BRANCH  27  28
ATOM     28  C   UNL     1       2.073   3.816  19.823  0.00  0.00    +0.000 A 
ATOM     29  C   UNL     1       3.153   3.109  20.372  0.00  0.00    +0.000 A 
ATOM     30  C   UNL     1       3.692   2.004  19.708  0.00  0.00    +0.000 A 
ATOM     31  C   UNL     1       3.156   1.586  18.495  0.00  0.00    +0.000 A 
ATOM     32  C   UNL     1       2.093   2.284  17.930  0.00  0.00    +0.000 A 
ATOM     33  C   UNL     1       1.554   3.392  18.588  0.00  0.00    +0.000 A 
ENDBRANCH  27  28
ENDBRANCH  26  27
ENDBRANCH  13  26
TORSDOF 6
ENDMDL
