MODEL 1
REMARK VINA RESULT:      -8.8      0.000      0.000
REMARK  Name = 
REMARK  9 active torsions:
REMARK  status: ('A' for Active; 'I' for Inactive)
REMARK    1  A    between atoms: C_1  and  N_2
REMARK    2  A    between atoms: C_9  and  C_10
REMARK    3  A    between atoms: C_10  and  N_11
REMARK    4  A    between atoms: N_11  and  C_12
REMARK    5  A    between atoms: N_11  and  C_16
REMARK    6  A    between atoms: C_12  and  C_13
REMARK    7  A    between atoms: C_19  and  C_20
REMARK    8  A    between atoms: N_22  and  C_23
REMARK    9  A    between atoms: C_23  and  C_24
REMARK                            x       y       z     vdW  Elec       q    Type
REMARK                         _______ _______ _______ _____ _____    ______ ____
ROOT
ATOM      1  N   UNL     1       0.110  10.840  19.384  0.00  0.00    +0.000 N 
ENDROOT
BRANCH   1   2
ATOM      2  C   UNL     1       0.891   9.674  19.251  0.00  0.00    +0.000 A 
ATOM      3  C   UNL     1       1.110   8.811  20.342  0.00  0.00    +0.000 A 
ATOM      4  C   UNL     1       1.842   7.621  20.223  0.00  0.00    +0.000 A 
ATOM      5  C   UNL     1       2.407   7.263  18.999  0.00  0.00    +0.000 A 
ATOM      6  C   UNL     1       2.213   8.096  17.900  0.00  0.00    +0.000 A 
ATOM      7  C   UNL     1       1.466   9.276  18.030  0.00  0.00    +0.000 A 
BRANCH   5   8
ATOM      8  C   UNL     1       3.175   5.985  18.896  0.00  0.00    +0.000 C 
ATOM      9  O   UNL     1       3.898   5.627  19.817  0.00  0.00    +0.000 OA
ATOM     10  N   UNL     1       3.033   5.284  17.721  0.00  0.00    +0.000 N 
ATOM     11  H   UNL     1       2.624   5.745  16.922  0.00  0.00    +0.000 HD
BRANCH  10  12
ATOM     12  C   UNL     1       3.797   4.083  17.473  0.00  0.00    +0.000 C 
BRANCH  12  13
ATOM     13  C   UNL     1       5.021   4.379  16.658  0.00  0.00    +0.000 A 
ATOM     14  C   UNL     1       4.980   4.495  15.268  0.00  0.00    +0.000 A 
ATOM     15  C   UNL     1       6.152   4.765  14.559  0.00  0.00    +0.000 A 
ATOM     16  C   UNL     1       7.331   4.895  15.272  0.00  0.00    +0.000 A 
ATOM     17  N   UNL     1       7.413   4.776  16.615  0.00  0.00    +0.000 NA
ATOM     18  C   UNL     1       6.263   4.518  17.275  0.00  0.00    +0.000 A 
ENDBRANCH  12  13
ENDBRANCH  10  12
ENDBRANCH   5   8
ENDBRANCH   1   2
BRANCH   1  19
ATOM     19  C   UNL     1       0.291  11.624  20.620  0.00  0.00    +0.000 C 
BRANCH  19  28
ATOM     20  C   UNL     1      -6.856  13.563  21.578  0.00  0.00    +0.000 C 
ATOM     21  N   UNL     1      -5.532  13.363  22.130  0.00  0.00    +0.000 N 
ATOM     22  C   UNL     1      -5.395  13.002  23.446  0.00  0.00    +0.000 A 
ATOM     23  N   UNL     1      -4.327  12.490  23.955  0.00  0.00    +0.000 NA
ATOM     24  C   UNL     1      -3.251  12.263  23.087  0.00  0.00    +0.000 A 
ATOM     25  C   UNL     1      -2.227  11.420  23.502  0.00  0.00    +0.000 A 
ATOM     26  C   UNL     1      -1.135  11.166  22.667  0.00  0.00    +0.000 A 
ATOM     27 CL   UNL     1      -0.040   9.923  23.171  0.00  0.00    +0.000 Cl
ATOM     28  C   UNL     1      -0.974  11.842  21.440  0.00  0.00    +0.000 A 
ATOM     29  C   UNL     1      -2.045  12.646  21.002  0.00  0.00    +0.000 A 
ATOM     30  C   UNL     1      -3.191  12.801  21.802  0.00  0.00    +0.000 A 
ATOM     31  C   UNL     1      -4.443  13.381  21.266  0.00  0.00    +0.000 A 
ATOM     32  O   UNL     1      -4.498  13.776  20.105  0.00  0.00    +0.000 OA
ENDBRANCH  19  28
ENDBRANCH   1  19
BRANCH   1  33
ATOM     33  C   UNL     1      -0.389  11.476  18.148  0.00  0.00    +0.000 C 
BRANCH  33  34
ATOM     34  C   UNL     1      -1.820  11.197  17.791  0.00  0.00    +0.000 C 
ATOM     35  C   UNL     1      -2.151  10.226  16.675  0.00  0.00    +0.000 C 
ATOM     36  C   UNL     1      -2.474   9.876  18.103  0.00  0.00    +0.000 C 
ENDBRANCH  33  34
ENDBRANCH   1  33
TORSDOF 8
ENDMDL
MODEL 2
REMARK VINA RESULT:      -8.5      3.264      4.829
REMARK  Name = 
REMARK  9 active torsions:
REMARK  status: ('A' for Active; 'I' for Inactive)
REMARK    1  A    between atoms: C_1  and  N_2
REMARK    2  A    between atoms: C_9  and  C_10
REMARK    3  A    between atoms: C_10  and  N_11
REMARK    4  A    between atoms: N_11  and  C_12
REMARK    5  A    between atoms: N_11  and  C_16
REMARK    6  A    between atoms: C_12  and  C_13
REMARK    7  A    between atoms: C_19  and  C_20
REMARK    8  A    between atoms: N_22  and  C_23
REMARK    9  A    between atoms: C_23  and  C_24
REMARK                            x       y       z     vdW  Elec       q    Type
REMARK                         _______ _______ _______ _____ _____    ______ ____
ROOT
ATOM      1  N   UNL     1       1.253   9.343  19.884  0.00  0.00    +0.000 N 
ENDROOT
BRANCH   1   2
ATOM      2  C   UNL     1       1.955   8.227  19.385  0.00  0.00    +0.000 A 
ATOM      3  C   UNL     1       2.022   7.022  20.109  0.00  0.00    +0.000 A 
ATOM      4  C   UNL     1       2.672   5.883  19.612  0.00  0.00    +0.000 A 
ATOM      5  C   UNL     1       3.306   5.922  18.370  0.00  0.00    +0.000 A 
ATOM      6  C   UNL     1       3.263   7.100  17.630  0.00  0.00    +0.000 A 
ATOM      7  C   UNL     1       2.596   8.227  18.133  0.00  0.00    +0.000 A 
BRANCH   5   8
ATOM      8  C   UNL     1       3.985   4.692  17.859  0.00  0.00    +0.000 C 
ATOM      9  O   UNL     1       4.074   3.699  18.570  0.00  0.00    +0.000 OA
ATOM     10  N   UNL     1       4.505   4.769  16.587  0.00  0.00    +0.000 N 
ATOM     11  H   UNL     1       4.611   5.675  16.157  0.00  0.00    +0.000 HD
BRANCH  10  12
ATOM     12  C   UNL     1       5.261   3.674  16.025  0.00  0.00    +0.000 C 
BRANCH  12  13
ATOM     13  C   UNL     1       6.079   4.127  14.851  0.00  0.00    +0.000 A 
ATOM     14  C   UNL     1       5.884   3.619  13.567  0.00  0.00    +0.000 A 
ATOM     15  C   UNL     1       6.679   4.072  12.513  0.00  0.00    +0.000 A 
ATOM     16  C   UNL     1       7.656   5.013  12.790  0.00  0.00    +0.000 A 
ATOM     17  N   UNL     1       7.884   5.518  14.022  0.00  0.00    +0.000 NA
ATOM     18  C   UNL     1       7.097   5.064  15.022  0.00  0.00    +0.000 A 
ENDBRANCH  12  13
ENDBRANCH  10  12
ENDBRANCH   5   8
ENDBRANCH   1   2
BRANCH   1  19
ATOM     19  C   UNL     1       0.258   9.960  18.987  0.00  0.00    +0.000 C 
BRANCH  19  28
ATOM     20  C   UNL     1       3.321  16.636  17.645  0.00  0.00    +0.000 C 
ATOM     21  N   UNL     1       2.349  15.828  18.352  0.00  0.00    +0.000 N 
ATOM     22  C   UNL     1       1.161  16.389  18.746  0.00  0.00    +0.000 A 
ATOM     23  N   UNL     1       0.112  15.719  19.077  0.00  0.00    +0.000 NA
ATOM     24  C   UNL     1       0.193  14.323  18.995  0.00  0.00    +0.000 A 
ATOM     25  C   UNL     1      -0.985  13.586  19.012  0.00  0.00    +0.000 A 
ATOM     26  C   UNL     1      -0.949  12.190  18.931  0.00  0.00    +0.000 A 
ATOM     27 CL   UNL     1      -2.466  11.382  18.717  0.00  0.00    +0.000 Cl
ATOM     28  C   UNL     1       0.270  11.483  18.954  0.00  0.00    +0.000 A 
ATOM     29  C   UNL     1       1.456  12.240  18.876  0.00  0.00    +0.000 A 
ATOM     30  C   UNL     1       1.401  13.645  18.840  0.00  0.00    +0.000 A 
ATOM     31  C   UNL     1       2.577  14.461  18.464  0.00  0.00    +0.000 A 
ATOM     32  O   UNL     1       3.649  13.923  18.203  0.00  0.00    +0.000 OA
ENDBRANCH  19  28
ENDBRANCH   1  19
BRANCH   1  33
ATOM     33  C   UNL     1       1.142   9.484  21.351  0.00  0.00    +0.000 C 
BRANCH  33  34
ATOM     34  C   UNL     1      -0.251   9.525  21.907  0.00  0.00    +0.000 C 
ATOM     35  C   UNL     1      -0.471   9.610  23.404  0.00  0.00    +0.000 C 
ATOM     36  C   UNL     1      -0.827  10.775  22.520  0.00  0.00    +0.000 C 
ENDBRANCH  33  34
ENDBRANCH   1  33
TORSDOF 8
ENDMDL
MODEL 3
REMARK VINA RESULT:      -8.5      1.363      1.800
REMARK  Name = 
REMARK  9 active torsions:
REMARK  status: ('A' for Active; 'I' for Inactive)
REMARK    1  A    between atoms: C_1  and  N_2
REMARK    2  A    between atoms: C_9  and  C_10
REMARK    3  A    between atoms: C_10  and  N_11
REMARK    4  A    between atoms: N_11  and  C_12
REMARK    5  A    between atoms: N_11  and  C_16
REMARK    6  A    between atoms: C_12  and  C_13
REMARK    7  A    between atoms: C_19  and  C_20
REMARK    8  A    between atoms: N_22  and  C_23
REMARK    9  A    between atoms: C_23  and  C_24
REMARK                            x       y       z     vdW  Elec       q    Type
REMARK                         _______ _______ _______ _____ _____    ______ ____
ROOT
ATOM      1  N   UNL     1      -0.627  11.267  19.347  0.00  0.00    +0.000 N 
ENDROOT
BRANCH   1   2
ATOM      2  C   UNL     1       0.195  10.125  19.262  0.00  0.00    +0.000 A 
ATOM      3  C   UNL     1       0.745   9.709  18.035  0.00  0.00    +0.000 A 
ATOM      4  C   UNL     1       1.604   8.606  17.932  0.00  0.00    +0.000 A 
ATOM      5  C   UNL     1       1.924   7.858  19.065  0.00  0.00    +0.000 A 
ATOM      6  C   UNL     1       1.394   8.238  20.295  0.00  0.00    +0.000 A 
ATOM      7  C   UNL     1       0.548   9.354  20.385  0.00  0.00    +0.000 A 
BRANCH   5   8
ATOM      8  C   UNL     1       2.849   6.691  18.931  0.00  0.00    +0.000 C 
ATOM      9  O   UNL     1       3.061   5.961  19.891  0.00  0.00    +0.000 OA
ATOM     10  N   UNL     1       3.441   6.524  17.700  0.00  0.00    +0.000 N 
ATOM     11  H   UNL     1       3.416   7.284  17.037  0.00  0.00    +0.000 HD
BRANCH  10  12
ATOM     12  C   UNL     1       4.422   5.485  17.481  0.00  0.00    +0.000 C 
BRANCH  12  13
ATOM     13  C   UNL     1       5.777   5.910  17.965  0.00  0.00    +0.000 A 
ATOM     14  C   UNL     1       6.501   6.932  17.350  0.00  0.00    +0.000 A 
ATOM     15  C   UNL     1       7.761   7.280  17.839  0.00  0.00    +0.000 A 
ATOM     16  C   UNL     1       8.258   6.578  18.923  0.00  0.00    +0.000 A 
ATOM     17  N   UNL     1       7.593   5.575  19.536  0.00  0.00    +0.000 NA
ATOM     18  C   UNL     1       6.375   5.261  19.044  0.00  0.00    +0.000 A 
ENDBRANCH  12  13
ENDBRANCH  10  12
ENDBRANCH   5   8
ENDBRANCH   1   2
BRANCH   1  19
ATOM     19  C   UNL     1      -0.469  12.114  20.545  0.00  0.00    +0.000 C 
BRANCH  19  28
ATOM     20  C   UNL     1      -7.722  13.522  21.618  0.00  0.00    +0.000 C 
ATOM     21  N   UNL     1      -6.372  13.466  22.137  0.00  0.00    +0.000 N 
ATOM     22  C   UNL     1      -6.169  13.200  23.467  0.00  0.00    +0.000 A 
ATOM     23  N   UNL     1      -5.049  12.809  23.971  0.00  0.00    +0.000 NA
ATOM     24  C   UNL     1      -3.982  12.617  23.083  0.00  0.00    +0.000 A 
ATOM     25  C   UNL     1      -2.881  11.887  23.515  0.00  0.00    +0.000 A 
ATOM     26  C   UNL     1      -1.795  11.670  22.662  0.00  0.00    +0.000 A 
ATOM     27 CL   UNL     1      -0.587  10.555  23.204  0.00  0.00    +0.000 Cl
ATOM     28  C   UNL     1      -1.724  12.279  21.392  0.00  0.00    +0.000 A 
ATOM     29  C   UNL     1      -2.870  12.965  20.941  0.00  0.00    +0.000 A 
ATOM     30  C   UNL     1      -4.002  13.075  21.768  0.00  0.00    +0.000 A 
ATOM     31  C   UNL     1      -5.312  13.518  21.239  0.00  0.00    +0.000 A 
ATOM     32  O   UNL     1      -5.432  13.833  20.058  0.00  0.00    +0.000 OA
ENDBRANCH  19  28
ENDBRANCH   1  19
BRANCH   1  33
ATOM     33  C   UNL     1      -1.154  11.829  18.086  0.00  0.00    +0.000 C 
BRANCH  33  34
ATOM     34  C   UNL     1      -2.529  11.380  17.687  0.00  0.00    +0.000 C 
ATOM     35  C   UNL     1      -2.840  11.078  16.234  0.00  0.00    +0.000 C 
ATOM     36  C   UNL     1      -2.809   9.966  17.248  0.00  0.00    +0.000 C 
ENDBRANCH  33  34
ENDBRANCH   1  33
TORSDOF 8
ENDMDL
MODEL 4
REMARK VINA RESULT:      -8.3      1.857      2.522
REMARK  Name = 
REMARK  9 active torsions:
REMARK  status: ('A' for Active; 'I' for Inactive)
REMARK    1  A    between atoms: C_1  and  N_2
REMARK    2  A    between atoms: C_9  and  C_10
REMARK    3  A    between atoms: C_10  and  N_11
REMARK    4  A    between atoms: N_11  and  C_12
REMARK    5  A    between atoms: N_11  and  C_16
REMARK    6  A    between atoms: C_12  and  C_13
REMARK    7  A    between atoms: C_19  and  C_20
REMARK    8  A    between atoms: N_22  and  C_23
REMARK    9  A    between atoms: C_23  and  C_24
REMARK                            x       y       z     vdW  Elec       q    Type
REMARK                         _______ _______ _______ _____ _____    ______ ____
ROOT
ATOM      1  N   UNL     1      -0.411  11.328  19.363  0.00  0.00    +0.000 N 
ENDROOT
BRANCH   1   2
ATOM      2  C   UNL     1       0.433  10.213  19.184  0.00  0.00    +0.000 A 
ATOM      3  C   UNL     1       1.134  10.012  17.980  0.00  0.00    +0.000 A 
ATOM      4  C   UNL     1       2.016   8.938  17.795  0.00  0.00    +0.000 A 
ATOM      5  C   UNL     1       2.208   8.003  18.813  0.00  0.00    +0.000 A 
ATOM      6  C   UNL     1       1.526   8.169  20.015  0.00  0.00    +0.000 A 
ATOM      7  C   UNL     1       0.658   9.258  20.192  0.00  0.00    +0.000 A 
BRANCH   5   8
ATOM      8  C   UNL     1       3.160   6.872  18.594  0.00  0.00    +0.000 C 
ATOM      9  O   UNL     1       3.516   6.579  17.460  0.00  0.00    +0.000 OA
ATOM     10  N   UNL     1       3.568   6.195  19.720  0.00  0.00    +0.000 N 
ATOM     11  H   UNL     1       3.058   6.326  20.582  0.00  0.00    +0.000 HD
BRANCH  10  12
ATOM     12  C   UNL     1       4.414   5.028  19.622  0.00  0.00    +0.000 C 
BRANCH  12  13
ATOM     13  C   UNL     1       3.612   3.805  19.284  0.00  0.00    +0.000 A 
ATOM     14  C   UNL     1       3.790   3.104  18.091  0.00  0.00    +0.000 A 
ATOM     15  C   UNL     1       3.012   1.977  17.825  0.00  0.00    +0.000 A 
ATOM     16  C   UNL     1       2.067   1.600  18.764  0.00  0.00    +0.000 A 
ATOM     17  N   UNL     1       1.855   2.261  19.923  0.00  0.00    +0.000 NA
ATOM     18  C   UNL     1       2.626   3.346  20.155  0.00  0.00    +0.000 A 
ENDBRANCH  12  13
ENDBRANCH  10  12
ENDBRANCH   5   8
ENDBRANCH   1   2
BRANCH   1  19
ATOM     19  C   UNL     1      -0.248  12.092  20.614  0.00  0.00    +0.000 C 
BRANCH  19  28
ATOM     20  C   UNL     1      -7.487  13.570  21.694  0.00  0.00    +0.000 C 
ATOM     21  N   UNL     1      -6.143  13.459  22.222  0.00  0.00    +0.000 N 
ATOM     22  C   UNL     1      -5.959  13.115  23.537  0.00  0.00    +0.000 A 
ATOM     23  N   UNL     1      -4.852  12.676  24.028  0.00  0.00    +0.000 NA
ATOM     24  C   UNL     1      -3.779  12.514  23.142  0.00  0.00    +0.000 A 
ATOM     25  C   UNL     1      -2.696  11.741  23.543  0.00  0.00    +0.000 A 
ATOM     26  C   UNL     1      -1.605  11.553  22.689  0.00  0.00    +0.000 A 
ATOM     27 CL   UNL     1      -0.423  10.387  23.179  0.00  0.00    +0.000 Cl
ATOM     28  C   UNL     1      -1.509  12.232  21.457  0.00  0.00    +0.000 A 
ATOM     29  C   UNL     1      -2.638  12.963  21.035  0.00  0.00    +0.000 A 
ATOM     30  C   UNL     1      -3.777  13.047  21.855  0.00  0.00    +0.000 A 
ATOM     31  C   UNL     1      -5.073  13.543  21.339  0.00  0.00    +0.000 A 
ATOM     32  O   UNL     1      -5.174  13.927  20.177  0.00  0.00    +0.000 OA
ENDBRANCH  19  28
ENDBRANCH   1  19
BRANCH   1  33
ATOM     33  C   UNL     1      -0.972  11.965  18.153  0.00  0.00    +0.000 C 
BRANCH  33  34
ATOM     34  C   UNL     1      -2.304  11.448  17.692  0.00  0.00    +0.000 C 
ATOM     35  C   UNL     1      -2.393  10.562  16.465  0.00  0.00    +0.000 C 
ATOM     36  C   UNL     1      -2.685   9.997  17.829  0.00  0.00    +0.000 C 
ENDBRANCH  33  34
ENDBRANCH   1  33
TORSDOF 8
ENDMDL
MODEL 5
REMARK VINA RESULT:      -8.1      2.042      3.273
REMARK  Name = 
REMARK  9 active torsions:
REMARK  status: ('A' for Active; 'I' for Inactive)
REMARK    1  A    between atoms: C_1  and  N_2
REMARK    2  A    between atoms: C_9  and  C_10
REMARK    3  A    between atoms: C_10  and  N_11
REMARK    4  A    between atoms: N_11  and  C_12
REMARK    5  A    between atoms: N_11  and  C_16
REMARK    6  A    between atoms: C_12  and  C_13
REMARK    7  A    between atoms: C_19  and  C_20
REMARK    8  A    between atoms: N_22  and  C_23
REMARK    9  A    between atoms: C_23  and  C_24
REMARK                            x       y       z     vdW  Elec       q    Type
REMARK                         _______ _______ _______ _____ _____    ______ ____
ROOT
ATOM      1  N   UNL     1       0.554   9.466  19.743  0.00  0.00    +0.000 N 
ENDROOT
BRANCH   1   2
ATOM      2  C   UNL     1       1.443   8.416  19.436  0.00  0.00    +0.000 A 
ATOM      3  C   UNL     1       2.164   8.399  18.227  0.00  0.00    +0.000 A 
ATOM      4  C   UNL     1       3.090   7.392  17.920  0.00  0.00    +0.000 A 
ATOM      5  C   UNL     1       3.308   6.342  18.812  0.00  0.00    +0.000 A 
ATOM      6  C   UNL     1       2.608   6.326  20.016  0.00  0.00    +0.000 A 
ATOM      7  C   UNL     1       1.696   7.348  20.316  0.00  0.00    +0.000 A 
BRANCH   5   8
ATOM      8  C   UNL     1       4.307   5.285  18.465  0.00  0.00    +0.000 C 
ATOM      9  O   UNL     1       5.293   5.117  19.170  0.00  0.00    +0.000 OA
ATOM     10  N   UNL     1       4.053   4.562  17.322  0.00  0.00    +0.000 N 
ATOM     11  H   UNL     1       3.367   4.907  16.667  0.00  0.00    +0.000 HD
BRANCH  10  12
ATOM     12  C   UNL     1       4.995   3.579  16.839  0.00  0.00    +0.000 C 
BRANCH  12  13
ATOM     13  C   UNL     1       5.820   4.126  15.712  0.00  0.00    +0.000 A 
ATOM     14  C   UNL     1       5.615   3.746  14.385  0.00  0.00    +0.000 A 
ATOM     15  C   UNL     1       6.418   4.282  13.378  0.00  0.00    +0.000 A 
ATOM     16  C   UNL     1       7.412   5.175  13.740  0.00  0.00    +0.000 A 
ATOM     17  N   UNL     1       7.650   5.556  15.014  0.00  0.00    +0.000 NA
ATOM     18  C   UNL     1       6.855   5.024  15.968  0.00  0.00    +0.000 A 
ENDBRANCH  12  13
ENDBRANCH  10  12
ENDBRANCH   5   8
ENDBRANCH   1   2
BRANCH   1  19
ATOM     19  C   UNL     1       0.133  10.331  18.625  0.00  0.00    +0.000 C 
BRANCH  19  28
ATOM     20  C   UNL     1      -4.653  15.552  20.989  0.00  0.00    +0.000 C 
ATOM     21  N   UNL     1      -4.404  14.197  20.543  0.00  0.00    +0.000 N 
ATOM     22  C   UNL     1      -5.392  13.509  19.886  0.00  0.00    +0.000 A 
ATOM     23  N   UNL     1      -5.195  12.454  19.172  0.00  0.00    +0.000 NA
ATOM     24  C   UNL     1      -3.874  12.009  19.041  0.00  0.00    +0.000 A 
ATOM     25  C   UNL     1      -3.574  11.103  18.030  0.00  0.00    +0.000 A 
ATOM     26  C   UNL     1      -2.268  10.634  17.863  0.00  0.00    +0.000 A 
ATOM     27 CL   UNL     1      -1.950   9.702  16.439  0.00  0.00    +0.000 Cl
ATOM     28  C   UNL     1      -1.245  10.962  18.777  0.00  0.00    +0.000 A 
ATOM     29  C   UNL     1      -1.545  11.927  19.759  0.00  0.00    +0.000 A 
ATOM     30  C   UNL     1      -2.835  12.479  19.842  0.00  0.00    +0.000 A 
ATOM     31  C   UNL     1      -3.114  13.690  20.647  0.00  0.00    +0.000 A 
ATOM     32  O   UNL     1      -2.218  14.227  21.294  0.00  0.00    +0.000 OA
ENDBRANCH  19  28
ENDBRANCH   1  19
BRANCH   1  33
ATOM     33  C   UNL     1      -0.288   9.321  20.949  0.00  0.00    +0.000 C 
BRANCH  33  34
ATOM     34  C   UNL     1       0.173  10.063  22.170  0.00  0.00    +0.000 C 
ATOM     35  C   UNL     1      -0.841  10.640  23.138  0.00  0.00    +0.000 C 
ATOM     36  C   UNL     1       0.030   9.485  23.554  0.00  0.00    +0.000 C 
ENDBRANCH  33  34
ENDBRANCH   1  33
TORSDOF 8
ENDMDL
MODEL 6
REMARK VINA RESULT:      -8.1      1.975      2.806
REMARK  Name = 
REMARK  9 active torsions:
REMARK  status: ('A' for Active; 'I' for Inactive)
REMARK    1  A    between atoms: C_1  and  N_2
REMARK    2  A    between atoms: C_9  and  C_10
REMARK    3  A    between atoms: C_10  and  N_11
REMARK    4  A    between atoms: N_11  and  C_12
REMARK    5  A    between atoms: N_11  and  C_16
REMARK    6  A    between atoms: C_12  and  C_13
REMARK    7  A    between atoms: C_19  and  C_20
REMARK    8  A    between atoms: N_22  and  C_23
REMARK    9  A    between atoms: C_23  and  C_24
REMARK                            x       y       z     vdW  Elec       q    Type
REMARK                         _______ _______ _______ _____ _____    ______ ____
ROOT
ATOM      1  N   UNL     1       0.663  11.162  19.498  0.00  0.00    +0.000 N 
ENDROOT
BRANCH   1   2
ATOM      2  C   UNL     1       1.197   9.869  19.321  0.00  0.00    +0.000 A 
ATOM      3  C   UNL     1       1.722   9.458  18.081  0.00  0.00    +0.000 A 
ATOM      4  C   UNL     1       2.302   8.195  17.893  0.00  0.00    +0.000 A 
ATOM      5  C   UNL     1       2.353   7.282  18.946  0.00  0.00    +0.000 A 
ATOM      6  C   UNL     1       1.839   7.655  20.185  0.00  0.00    +0.000 A 
ATOM      7  C   UNL     1       1.275   8.927  20.363  0.00  0.00    +0.000 A 
BRANCH   5   8
ATOM      8  C   UNL     1       2.984   5.945  18.722  0.00  0.00    +0.000 C 
ATOM      9  O   UNL     1       2.450   4.933  19.156  0.00  0.00    +0.000 OA
ATOM     10  N   UNL     1       4.179   5.945  18.040  0.00  0.00    +0.000 N 
ATOM     11  H   UNL     1       4.678   6.815  17.926  0.00  0.00    +0.000 HD
BRANCH  10  12
ATOM     12  C   UNL     1       4.925   4.722  17.846  0.00  0.00    +0.000 C 
BRANCH  12  13
ATOM     13  C   UNL     1       5.672   4.744  16.545  0.00  0.00    +0.000 A 
ATOM     14  C   UNL     1       5.277   3.980  15.446  0.00  0.00    +0.000 A 
ATOM     15  C   UNL     1       6.013   4.034  14.262  0.00  0.00    +0.000 A 
ATOM     16  C   UNL     1       7.134   4.846  14.227  0.00  0.00    +0.000 A 
ATOM     17  N   UNL     1       7.556   5.589  15.273  0.00  0.00    +0.000 NA
ATOM     18  C   UNL     1       6.821   5.520  16.405  0.00  0.00    +0.000 A 
ENDBRANCH  12  13
ENDBRANCH  10  12
ENDBRANCH   5   8
ENDBRANCH   1   2
BRANCH   1  19
ATOM     19  C   UNL     1      -0.026  11.429  20.774  0.00  0.00    +0.000 C 
BRANCH  19  28
ATOM     20  C   UNL     1      -6.944  11.702  17.979  0.00  0.00    +0.000 C 
ATOM     21  N   UNL     1      -5.837  12.364  18.636  0.00  0.00    +0.000 N 
ATOM     22  C   UNL     1      -6.083  13.401  19.498  0.00  0.00    +0.000 A 
ATOM     23  N   UNL     1      -5.242  13.842  20.369  0.00  0.00    +0.000 NA
ATOM     24  C   UNL     1      -4.006  13.189  20.450  0.00  0.00    +0.000 A 
ATOM     25  C   UNL     1      -3.215  13.399  21.574  0.00  0.00    +0.000 A 
ATOM     26  C   UNL     1      -1.975  12.766  21.697  0.00  0.00    +0.000 A 
ATOM     27 CL   UNL     1      -1.179  12.899  23.229  0.00  0.00    +0.000 Cl
ATOM     28  C   UNL     1      -1.432  11.999  20.644  0.00  0.00    +0.000 A 
ATOM     29  C   UNL     1      -2.266  11.744  19.538  0.00  0.00    +0.000 A 
ATOM     30  C   UNL     1      -3.560  12.293  19.481  0.00  0.00    +0.000 A 
ATOM     31  C   UNL     1      -4.564  11.820  18.501  0.00  0.00    +0.000 A 
ATOM     32  O   UNL     1      -4.275  10.950  17.685  0.00  0.00    +0.000 OA
ENDBRANCH  19  28
ENDBRANCH   1  19
BRANCH   1  33
ATOM     33  C   UNL     1       1.259  12.263  18.713  0.00  0.00    +0.000 C 
BRANCH  33  34
ATOM     34  C   UNL     1       1.585  13.515  19.473  0.00  0.00    +0.000 C 
ATOM     35  C   UNL     1       2.793  14.347  19.089  0.00  0.00    +0.000 C 
ATOM     36  C   UNL     1       1.404  14.884  18.869  0.00  0.00    +0.000 C 
ENDBRANCH  33  34
ENDBRANCH   1  33
TORSDOF 8
ENDMDL
MODEL 7
REMARK VINA RESULT:      -8.1      2.491      3.718
REMARK  Name = 
REMARK  9 active torsions:
REMARK  status: ('A' for Active; 'I' for Inactive)
REMARK    1  A    between atoms: C_1  and  N_2
REMARK    2  A    between atoms: C_9  and  C_10
REMARK    3  A    between atoms: C_10  and  N_11
REMARK    4  A    between atoms: N_11  and  C_12
REMARK    5  A    between atoms: N_11  and  C_16
REMARK    6  A    between atoms: C_12  and  C_13
REMARK    7  A    between atoms: C_19  and  C_20
REMARK    8  A    between atoms: N_22  and  C_23
REMARK    9  A    between atoms: C_23  and  C_24
REMARK                            x       y       z     vdW  Elec       q    Type
REMARK                         _______ _______ _______ _____ _____    ______ ____
ROOT
ATOM      1  N   UNL     1       1.040  10.039  19.816  0.00  0.00    +0.000 N 
ENDROOT
BRANCH   1   2
ATOM      2  C   UNL     1       1.567   8.791  19.428  0.00  0.00    +0.000 A 
ATOM      3  C   UNL     1       2.020   8.563  18.115  0.00  0.00    +0.000 A 
ATOM      4  C   UNL     1       2.593   7.347  17.718  0.00  0.00    +0.000 A 
ATOM      5  C   UNL     1       2.709   6.296  18.628  0.00  0.00    +0.000 A 
ATOM      6  C   UNL     1       2.266   6.484  19.934  0.00  0.00    +0.000 A 
ATOM      7  C   UNL     1       1.709   7.712  20.321  0.00  0.00    +0.000 A 
BRANCH   5   8
ATOM      8  C   UNL     1       3.331   5.011  18.182  0.00  0.00    +0.000 C 
ATOM      9  O   UNL     1       3.042   3.962  18.743  0.00  0.00    +0.000 OA
ATOM     10  N   UNL     1       4.238   5.101  17.151  0.00  0.00    +0.000 N 
ATOM     11  H   UNL     1       4.607   6.007  16.902  0.00  0.00    +0.000 HD
BRANCH  10  12
ATOM     12  C   UNL     1       4.969   3.939  16.700  0.00  0.00    +0.000 C 
BRANCH  12  13
ATOM     13  C   UNL     1       5.818   4.264  15.506  0.00  0.00    +0.000 A 
ATOM     14  C   UNL     1       5.581   3.707  14.249  0.00  0.00    +0.000 A 
ATOM     15  C   UNL     1       6.408   4.039  13.175  0.00  0.00    +0.000 A 
ATOM     16  C   UNL     1       7.457   4.913  13.405  0.00  0.00    +0.000 A 
ATOM     17  N   UNL     1       7.727   5.461  14.610  0.00  0.00    +0.000 NA
ATOM     18  C   UNL     1       6.908   5.124  15.630  0.00  0.00    +0.000 A 
ENDBRANCH  12  13
ENDBRANCH  10  12
ENDBRANCH   5   8
ENDBRANCH   1   2
BRANCH   1  19
ATOM     19  C   UNL     1       0.148  10.713  18.854  0.00  0.00    +0.000 C 
BRANCH  19  28
ATOM     20  C   UNL     1      -2.722  16.788  22.112  0.00  0.00    +0.000 C 
ATOM     21  N   UNL     1      -2.074  16.170  20.973  0.00  0.00    +0.000 N 
ATOM     22  C   UNL     1      -1.245  16.919  20.178  0.00  0.00    +0.000 A 
ATOM     23  N   UNL     1      -0.380  16.428  19.359  0.00  0.00    +0.000 NA
ATOM     24  C   UNL     1      -0.267  15.033  19.310  0.00  0.00    +0.000 A 
ATOM     25  C   UNL     1       0.858  14.477  18.712  0.00  0.00    +0.000 A 
ATOM     26  C   UNL     1       1.011  13.089  18.642  0.00  0.00    +0.000 A 
ATOM     27 CL   UNL     1       2.546  12.500  18.099  0.00  0.00    +0.000 Cl
ATOM     28  C   UNL     1      -0.013  12.214  19.060  0.00  0.00    +0.000 A 
ATOM     29  C   UNL     1      -1.119  12.785  19.719  0.00  0.00    +0.000 A 
ATOM     30  C   UNL     1      -1.205  14.178  19.886  0.00  0.00    +0.000 A 
ATOM     31  C   UNL     1      -2.180  14.793  20.816  0.00  0.00    +0.000 A 
ATOM     32  O   UNL     1      -2.967  14.091  21.444  0.00  0.00    +0.000 OA
ENDBRANCH  19  28
ENDBRANCH   1  19
BRANCH   1  33
ATOM     33  C   UNL     1       0.951  10.327  21.262  0.00  0.00    +0.000 C 
BRANCH  33  34
ATOM     34  C   UNL     1      -0.330   9.931  21.937  0.00  0.00    +0.000 C 
ATOM     35  C   UNL     1      -0.326   9.518  23.396  0.00  0.00    +0.000 C 
ATOM     36  C   UNL     1      -0.986  10.803  22.975  0.00  0.00    +0.000 C 
ENDBRANCH  33  34
ENDBRANCH   1  33
TORSDOF 8
ENDMDL
MODEL 8
REMARK VINA RESULT:      -8.1      1.707      2.064
REMARK  Name = 
REMARK  9 active torsions:
REMARK  status: ('A' for Active; 'I' for Inactive)
REMARK    1  A    between atoms: C_1  and  N_2
REMARK    2  A    between atoms: C_9  and  C_10
REMARK    3  A    between atoms: C_10  and  N_11
REMARK    4  A    between atoms: N_11  and  C_12
REMARK    5  A    between atoms: N_11  and  C_16
REMARK    6  A    between atoms: C_12  and  C_13
REMARK    7  A    between atoms: C_19  and  C_20
REMARK    8  A    between atoms: N_22  and  C_23
REMARK    9  A    between atoms: C_23  and  C_24
REMARK                            x       y       z     vdW  Elec       q    Type
REMARK                         _______ _______ _______ _____ _____    ______ ____
ROOT
ATOM      1  N   UNL     1       0.190  10.484  19.636  0.00  0.00    +0.000 N 
ENDROOT
BRANCH   1   2
ATOM      2  C   UNL     1       1.000   9.377  19.311  0.00  0.00    +0.000 A 
ATOM      3  C   UNL     1       1.317   8.395  20.269  0.00  0.00    +0.000 A 
ATOM      4  C   UNL     1       2.080   7.261  19.958  0.00  0.00    +0.000 A 
ATOM      5  C   UNL     1       2.579   7.083  18.667  0.00  0.00    +0.000 A 
ATOM      6  C   UNL     1       2.290   8.038  17.696  0.00  0.00    +0.000 A 
ATOM      7  C   UNL     1       1.512   9.160  18.019  0.00  0.00    +0.000 A 
BRANCH   5   8
ATOM      8  C   UNL     1       3.383   5.861  18.359  0.00  0.00    +0.000 C 
ATOM      9  O   UNL     1       2.823   4.791  18.162  0.00  0.00    +0.000 OA
ATOM     10  N   UNL     1       4.750   6.022  18.340  0.00  0.00    +0.000 N 
ATOM     11  H   UNL     1       5.150   6.856  18.743  0.00  0.00    +0.000 HD
BRANCH  10  12
ATOM     12  C   UNL     1       5.630   4.893  18.143  0.00  0.00    +0.000 C 
BRANCH  12  13
ATOM     13  C   UNL     1       6.080   4.799  16.715  0.00  0.00    +0.000 A 
ATOM     14  C   UNL     1       5.452   3.966  15.789  0.00  0.00    +0.000 A 
ATOM     15  C   UNL     1       5.918   3.914  14.475  0.00  0.00    +0.000 A 
ATOM     16  C   UNL     1       7.013   4.692  14.139  0.00  0.00    +0.000 A 
ATOM     17  N   UNL     1       7.656   5.499  15.010  0.00  0.00    +0.000 NA
ATOM     18  C   UNL     1       7.180   5.533  16.274  0.00  0.00    +0.000 A 
ENDBRANCH  12  13
ENDBRANCH  10  12
ENDBRANCH   5   8
ENDBRANCH   1   2
BRANCH   1  19
ATOM     19  C   UNL     1       0.469  11.160  20.917  0.00  0.00    +0.000 C 
BRANCH  19  28
ATOM     20  C   UNL     1      -5.519  14.608  23.746  0.00  0.00    +0.000 C 
ATOM     21  N   UNL     1      -4.422  14.586  22.801  0.00  0.00    +0.000 N 
ATOM     22  C   UNL     1      -3.875  15.767  22.372  0.00  0.00    +0.000 A 
ATOM     23  N   UNL     1      -2.721  15.874  21.807  0.00  0.00    +0.000 NA
ATOM     24  C   UNL     1      -1.972  14.700  21.656  0.00  0.00    +0.000 A 
ATOM     25  C   UNL     1      -0.616  14.808  21.373  0.00  0.00    +0.000 A 
ATOM     26  C   UNL     1       0.168  13.661  21.215  0.00  0.00    +0.000 A 
ATOM     27 CL   UNL     1       1.880  13.896  21.104  0.00  0.00    +0.000 Cl
ATOM     28  C   UNL     1      -0.404  12.372  21.214  0.00  0.00    +0.000 A 
ATOM     29  C   UNL     1      -1.765  12.272  21.562  0.00  0.00    +0.000 A 
ATOM     30  C   UNL     1      -2.517  13.429  21.834  0.00  0.00    +0.000 A 
ATOM     31  C   UNL     1      -3.846  13.361  22.482  0.00  0.00    +0.000 A 
ATOM     32  O   UNL     1      -4.342  12.276  22.770  0.00  0.00    +0.000 OA
ENDBRANCH  19  28
ENDBRANCH   1  19
BRANCH   1  33
ATOM     33  C   UNL     1      -0.465  11.204  18.525  0.00  0.00    +0.000 C 
BRANCH  33  34
ATOM     34  C   UNL     1      -1.758  10.623  18.031  0.00  0.00    +0.000 C 
ATOM     35  C   UNL     1      -3.044  11.416  18.151  0.00  0.00    +0.000 C 
ATOM     36  C   UNL     1      -2.445  11.144  16.797  0.00  0.00    +0.000 C 
ENDBRANCH  33  34
ENDBRANCH   1  33
TORSDOF 8
ENDMDL
MODEL 9
REMARK VINA RESULT:      -8.1      1.857      2.872
REMARK  Name = 
REMARK  9 active torsions:
REMARK  status: ('A' for Active; 'I' for Inactive)
REMARK    1  A    between atoms: C_1  and  N_2
REMARK    2  A    between atoms: C_9  and  C_10
REMARK    3  A    between atoms: C_10  and  N_11
REMARK    4  A    between atoms: N_11  and  C_12
REMARK    5  A    between atoms: N_11  and  C_16
REMARK    6  A    between atoms: C_12  and  C_13
REMARK    7  A    between atoms: C_19  and  C_20
REMARK    8  A    between atoms: N_22  and  C_23
REMARK    9  A    between atoms: C_23  and  C_24
REMARK                            x       y       z     vdW  Elec       q    Type
REMARK                         _______ _______ _______ _____ _____    ______ ____
ROOT
ATOM      1  N   UNL     1       0.664  10.709  19.892  0.00  0.00    +0.000 N 
ENDROOT
BRANCH   1   2
ATOM      2  C   UNL     1       1.303   9.544  19.421  0.00  0.00    +0.000 A 
ATOM      3  C   UNL     1       1.574   8.461  20.278  0.00  0.00    +0.000 A 
ATOM      4  C   UNL     1       2.163   7.273  19.824  0.00  0.00    +0.000 A 
ATOM      5  C   UNL     1       2.530   7.138  18.484  0.00  0.00    +0.000 A 
ATOM      6  C   UNL     1       2.282   8.193  17.610  0.00  0.00    +0.000 A 
ATOM      7  C   UNL     1       1.677   9.370  18.075  0.00  0.00    +0.000 A 
BRANCH   5   8
ATOM      8  C   UNL     1       3.150   5.858  18.023  0.00  0.00    +0.000 C 
ATOM      9  O   UNL     1       2.448   4.967  17.564  0.00  0.00    +0.000 OA
ATOM     10  N   UNL     1       4.514   5.756  18.172  0.00  0.00    +0.000 N 
ATOM     11  H   UNL     1       4.992   6.414  18.769  0.00  0.00    +0.000 HD
BRANCH  10  12
ATOM     12  C   UNL     1       5.208   4.531  17.846  0.00  0.00    +0.000 C 
BRANCH  12  13
ATOM     13  C   UNL     1       5.811   4.600  16.474  0.00  0.00    +0.000 A 
ATOM     14  C   UNL     1       5.201   4.016  15.363  0.00  0.00    +0.000 A 
ATOM     15  C   UNL     1       5.810   4.104  14.110  0.00  0.00    +0.000 A 
ATOM     16  C   UNL     1       7.022   4.766  14.019  0.00  0.00    +0.000 A 
ATOM     17  N   UNL     1       7.650   5.331  15.073  0.00  0.00    +0.000 NA
ATOM     18  C   UNL     1       7.036   5.233  16.272  0.00  0.00    +0.000 A 
ENDBRANCH  12  13
ENDBRANCH  10  12
ENDBRANCH   5   8
ENDBRANCH   1   2
BRANCH   1  19
ATOM     19  C   UNL     1      -0.323  11.336  18.993  0.00  0.00    +0.000 C 
BRANCH  19  28
ATOM     20  C   UNL     1      -5.373  14.593  23.426  0.00  0.00    +0.000 C 
ATOM     21  N   UNL     1      -4.535  14.637  22.246  0.00  0.00    +0.000 N 
ATOM     22  C   UNL     1      -4.075  15.845  21.788  0.00  0.00    +0.000 A 
ATOM     23  N   UNL     1      -3.087  15.988  20.973  0.00  0.00    +0.000 NA
ATOM     24  C   UNL     1      -2.426  14.824  20.559  0.00  0.00    +0.000 A 
ATOM     25  C   UNL     1      -1.174  14.944  19.967  0.00  0.00    +0.000 A 
ATOM     26  C   UNL     1      -0.480  13.808  19.541  0.00  0.00    +0.000 A 
ATOM     27 CL   UNL     1       1.162  14.039  19.041  0.00  0.00    +0.000 Cl
ATOM     28  C   UNL     1      -1.069  12.528  19.581  0.00  0.00    +0.000 A 
ATOM     29  C   UNL     1      -2.310  12.410  20.236  0.00  0.00    +0.000 A 
ATOM     30  C   UNL     1      -2.945  13.548  20.766  0.00  0.00    +0.000 A 
ATOM     31  C   UNL     1      -4.082  13.438  21.707  0.00  0.00    +0.000 A 
ATOM     32  O   UNL     1      -4.523  12.337  22.024  0.00  0.00    +0.000 OA
ENDBRANCH  19  28
ENDBRANCH   1  19
BRANCH   1  33
ATOM     33  C   UNL     1       0.594  10.909  21.354  0.00  0.00    +0.000 C 
BRANCH  33  34
ATOM     34  C   UNL     1      -0.445  10.107  22.082  0.00  0.00    +0.000 C 
ATOM     35  C   UNL     1      -0.154   9.563  23.466  0.00  0.00    +0.000 C 
ATOM     36  C   UNL     1      -1.176  10.652  23.281  0.00  0.00    +0.000 C 
ENDBRANCH  33  34
ENDBRANCH   1  33
TORSDOF 8
ENDMDL
