MODEL 1
REMARK VINA RESULT:      -7.4      0.000      0.000
REMARK  Name = 
REMARK  12 active torsions:
REMARK  status: ('A' for Active; 'I' for Inactive)
REMARK    1  A    between atoms: C_1  and  C_2
REMARK    2  A    between atoms: C_2  and  C_3
REMARK    3  A    between atoms: C_3  and  C_4
REMARK    4  A    between atoms: C_4  and  C_5
REMARK    5  A    between atoms: C_4  and  C_10
REMARK    6  A    between atoms: C_5  and  O_7
REMARK    7  A    between atoms: O_7  and  C_8
REMARK    8  A    between atoms: C_8  and  C_9
REMARK    9  A    between atoms: C_10  and  C_11
REMARK   10  A    between atoms: N_12  and  N_13
REMARK   11  A    between atoms: N_13  and  C_14
REMARK   12  A    between atoms: C_19  and  N_20
REMARK                            x       y       z     vdW  Elec       q    Type
REMARK                         _______ _______ _______ _____ _____    ______ ____
ROOT
ATOM      1  C   UNL     1       5.489   6.189  17.709  0.00  0.00    +0.000 C 
ATOM      2  C   UNL     1       4.338   7.038  17.209  0.00  0.00    +0.000 C 
ATOM      3  N   UNL     1       5.368   5.315  18.669  0.00  0.00    +0.000 NA
ENDROOT
BRANCH   3   4
ATOM      4  N   UNL     1       4.146   5.200  19.267  0.00  0.00    +0.000 N 
ATOM      5  H   UNL     1       4.027   5.563  20.222  0.00  0.00    +0.000 HD
BRANCH   4   6
ATOM      6  C   UNL     1       3.387   4.025  19.023  0.00  0.00    +0.000 A 
ATOM      7  C   UNL     1       3.515   3.369  17.782  0.00  0.00    +0.000 A 
ATOM      8  C   UNL     1       2.761   2.235  17.463  0.00  0.00    +0.000 A 
ATOM      9  C   UNL     1       1.847   1.724  18.375  0.00  0.00    +0.000 A 
ATOM     10  C   UNL     1       1.669   2.360  19.602  0.00  0.00    +0.000 A 
ATOM     11  C   UNL     1       2.419   3.513  19.920  0.00  0.00    +0.000 A 
BRANCH  11  12
ATOM     12  N   UNL     1       2.168   4.148  21.225  0.00  0.00    +0.000 N 
ATOM     13  O   UNL     1       2.212   3.441  22.241  0.00  0.00    +0.000 OA
ATOM     14  O   UNL     1       1.916   5.365  21.236  0.00  0.00    +0.000 OA
ENDBRANCH  11  12
ENDBRANCH   4   6
ENDBRANCH   3   4
BRANCH   1  15
ATOM     15  C   UNL     1       6.872   6.364  17.079  0.00  0.00    +0.000 C 
BRANCH  15  16
ATOM     16  C   UNL     1       7.488   5.024  16.740  0.00  0.00    +0.000 C 
ATOM     17  O   UNL     1       8.107   4.327  17.532  0.00  0.00    +0.000 OA
BRANCH  16  18
ATOM     18  O   UNL     1       7.321   4.743  15.417  0.00  0.00    +0.000 OA
BRANCH  18  19
ATOM     19  C   UNL     1       6.274   3.813  15.101  0.00  0.00    +0.000 C 
ATOM     20  C   UNL     1       5.951   3.892  13.620  0.00  0.00    +0.000 C 
ENDBRANCH  18  19
ENDBRANCH  16  18
ENDBRANCH  15  16
BRANCH  15  21
ATOM     21  C   UNL     1       7.812   7.168  17.996  0.00  0.00    +0.000 C 
BRANCH  21  23
ATOM     22  C   UNL     1       8.759   9.420  18.635  0.00  0.00    +0.000 C 
ATOM     23  C   UNL     1       7.865   8.665  17.663  0.00  0.00    +0.000 C 
ENDBRANCH  21  23
ENDBRANCH  15  21
ENDBRANCH   1  15
TORSDOF 9
ENDMDL
MODEL 2
REMARK VINA RESULT:      -7.3      1.709      3.708
REMARK  Name = 
REMARK  12 active torsions:
REMARK  status: ('A' for Active; 'I' for Inactive)
REMARK    1  A    between atoms: C_1  and  C_2
REMARK    2  A    between atoms: C_2  and  C_3
REMARK    3  A    between atoms: C_3  and  C_4
REMARK    4  A    between atoms: C_4  and  C_5
REMARK    5  A    between atoms: C_4  and  C_10
REMARK    6  A    between atoms: C_5  and  O_7
REMARK    7  A    between atoms: O_7  and  C_8
REMARK    8  A    between atoms: C_8  and  C_9
REMARK    9  A    between atoms: C_10  and  C_11
REMARK   10  A    between atoms: N_12  and  N_13
REMARK   11  A    between atoms: N_13  and  C_14
REMARK   12  A    between atoms: C_19  and  N_20
REMARK                            x       y       z     vdW  Elec       q    Type
REMARK                         _______ _______ _______ _____ _____    ______ ____
ROOT
ATOM      1  C   UNL     1       5.040   4.729  16.233  0.00  0.00    +0.000 C 
ATOM      2  C   UNL     1       4.688   6.200  16.139  0.00  0.00    +0.000 C 
ATOM      3  N   UNL     1       4.213   3.824  16.679  0.00  0.00    +0.000 NA
ENDROOT
BRANCH   3   4
ATOM      4  N   UNL     1       2.989   4.245  17.111  0.00  0.00    +0.000 N 
ATOM      5  H   UNL     1       2.710   5.219  16.931  0.00  0.00    +0.000 HD
BRANCH   4   6
ATOM      6  C   UNL     1       2.508   3.752  18.352  0.00  0.00    +0.000 A 
ATOM      7  C   UNL     1       1.200   3.234  18.427  0.00  0.00    +0.000 A 
ATOM      8  C   UNL     1       0.652   2.775  19.630  0.00  0.00    +0.000 A 
ATOM      9  C   UNL     1       1.397   2.828  20.801  0.00  0.00    +0.000 A 
ATOM     10  C   UNL     1       2.684   3.359  20.776  0.00  0.00    +0.000 A 
ATOM     11  C   UNL     1       3.233   3.836  19.566  0.00  0.00    +0.000 A 
BRANCH  11  12
ATOM     12  N   UNL     1       4.591   4.404  19.613  0.00  0.00    +0.000 N 
ATOM     13  O   UNL     1       5.553   3.625  19.668  0.00  0.00    +0.000 OA
ATOM     14  O   UNL     1       4.700   5.642  19.601  0.00  0.00    +0.000 OA
ENDBRANCH  11  12
ENDBRANCH   4   6
ENDBRANCH   3   4
BRANCH   1  15
ATOM     15  C   UNL     1       6.434   4.267  15.805  0.00  0.00    +0.000 C 
BRANCH  15  16
ATOM     16  C   UNL     1       7.497   4.822  16.727  0.00  0.00    +0.000 C 
ATOM     17  O   UNL     1       8.180   4.145  17.484  0.00  0.00    +0.000 OA
BRANCH  16  18
ATOM     18  O   UNL     1       7.532   6.182  16.651  0.00  0.00    +0.000 OA
BRANCH  18  19
ATOM     19  C   UNL     1       7.692   6.875  17.898  0.00  0.00    +0.000 C 
ATOM     20  C   UNL     1       7.848   8.363  17.638  0.00  0.00    +0.000 C 
ENDBRANCH  18  19
ENDBRANCH  16  18
ENDBRANCH  15  16
BRANCH  15  21
ATOM     21  C   UNL     1       6.735   4.658  14.346  0.00  0.00    +0.000 C 
BRANCH  21  23
ATOM     22  C   UNL     1       6.773   3.634  12.038  0.00  0.00    +0.000 C 
ATOM     23  C   UNL     1       5.966   3.822  13.314  0.00  0.00    +0.000 C 
ENDBRANCH  21  23
ENDBRANCH  15  21
ENDBRANCH   1  15
TORSDOF 9
ENDMDL
MODEL 3
REMARK VINA RESULT:      -7.3      1.961      3.785
REMARK  Name = 
REMARK  12 active torsions:
REMARK  status: ('A' for Active; 'I' for Inactive)
REMARK    1  A    between atoms: C_1  and  C_2
REMARK    2  A    between atoms: C_2  and  C_3
REMARK    3  A    between atoms: C_3  and  C_4
REMARK    4  A    between atoms: C_4  and  C_5
REMARK    5  A    between atoms: C_4  and  C_10
REMARK    6  A    between atoms: C_5  and  O_7
REMARK    7  A    between atoms: O_7  and  C_8
REMARK    8  A    between atoms: C_8  and  C_9
REMARK    9  A    between atoms: C_10  and  C_11
REMARK   10  A    between atoms: N_12  and  N_13
REMARK   11  A    between atoms: N_13  and  C_14
REMARK   12  A    between atoms: C_19  and  N_20
REMARK                            x       y       z     vdW  Elec       q    Type
REMARK                         _______ _______ _______ _____ _____    ______ ____
ROOT
ATOM      1  C   UNL     1       4.910   5.306  17.210  0.00  0.00    +0.000 C 
ATOM      2  C   UNL     1       4.248   6.609  16.812  0.00  0.00    +0.000 C 
ATOM      3  N   UNL     1       4.614   4.659  18.303  0.00  0.00    +0.000 NA
ENDROOT
BRANCH   3   4
ATOM      4  N   UNL     1       3.686   5.216  19.134  0.00  0.00    +0.000 N 
ATOM      5  H   UNL     1       3.952   6.038  19.690  0.00  0.00    +0.000 HD
BRANCH   4   6
ATOM      6  C   UNL     1       2.791   4.350  19.818  0.00  0.00    +0.000 A 
ATOM      7  C   UNL     1       2.886   4.229  21.218  0.00  0.00    +0.000 A 
ATOM      8  C   UNL     1       2.065   3.359  21.944  0.00  0.00    +0.000 A 
ATOM      9  C   UNL     1       1.125   2.575  21.287  0.00  0.00    +0.000 A 
ATOM     10  C   UNL     1       1.019   2.644  19.900  0.00  0.00    +0.000 A 
ATOM     11  C   UNL     1       1.857   3.511  19.165  0.00  0.00    +0.000 A 
BRANCH  11  12
ATOM     12  N   UNL     1       1.707   3.519  17.699  0.00  0.00    +0.000 N 
ATOM     13  O   UNL     1       1.051   4.433  17.181  0.00  0.00    +0.000 OA
ATOM     14  O   UNL     1       2.244   2.600  17.059  0.00  0.00    +0.000 OA
ENDBRANCH  11  12
ENDBRANCH   4   6
ENDBRANCH   3   4
BRANCH   1  15
ATOM     15  C   UNL     1       5.995   4.714  16.306  0.00  0.00    +0.000 C 
BRANCH  15  16
ATOM     16  C   UNL     1       7.375   5.045  16.828  0.00  0.00    +0.000 C 
ATOM     17  O   UNL     1       8.139   4.232  17.331  0.00  0.00    +0.000 OA
BRANCH  16  18
ATOM     18  O   UNL     1       7.616   6.382  16.727  0.00  0.00    +0.000 OA
BRANCH  18  19
ATOM     19  C   UNL     1       7.776   7.086  17.968  0.00  0.00    +0.000 C 
ATOM     20  C   UNL     1       7.880   8.576  17.700  0.00  0.00    +0.000 C 
ENDBRANCH  18  19
ENDBRANCH  16  18
ENDBRANCH  15  16
BRANCH  15  21
ATOM     21  C   UNL     1       5.842   5.197  14.851  0.00  0.00    +0.000 C 
BRANCH  21  23
ATOM     22  C   UNL     1       5.854   3.599  12.897  0.00  0.00    +0.000 C 
ATOM     23  C   UNL     1       6.708   4.420  13.852  0.00  0.00    +0.000 C 
ENDBRANCH  21  23
ENDBRANCH  15  21
ENDBRANCH   1  15
TORSDOF 9
ENDMDL
MODEL 4
REMARK VINA RESULT:      -7.3      1.878      2.304
REMARK  Name = 
REMARK  12 active torsions:
REMARK  status: ('A' for Active; 'I' for Inactive)
REMARK    1  A    between atoms: C_1  and  C_2
REMARK    2  A    between atoms: C_2  and  C_3
REMARK    3  A    between atoms: C_3  and  C_4
REMARK    4  A    between atoms: C_4  and  C_5
REMARK    5  A    between atoms: C_4  and  C_10
REMARK    6  A    between atoms: C_5  and  O_7
REMARK    7  A    between atoms: O_7  and  C_8
REMARK    8  A    between atoms: C_8  and  C_9
REMARK    9  A    between atoms: C_10  and  C_11
REMARK   10  A    between atoms: N_12  and  N_13
REMARK   11  A    between atoms: N_13  and  C_14
REMARK   12  A    between atoms: C_19  and  N_20
REMARK                            x       y       z     vdW  Elec       q    Type
REMARK                         _______ _______ _______ _____ _____    ______ ____
ROOT
ATOM      1  C   UNL     1       5.034   6.353  17.783  0.00  0.00    +0.000 C 
ATOM      2  C   UNL     1       4.095   7.282  17.041  0.00  0.00    +0.000 C 
ATOM      3  N   UNL     1       4.682   5.678  18.843  0.00  0.00    +0.000 NA
ENDROOT
BRANCH   3   4
ATOM      4  N   UNL     1       3.412   5.858  19.312  0.00  0.00    +0.000 N 
ATOM      5  H   UNL     1       3.188   6.730  19.808  0.00  0.00    +0.000 HD
BRANCH   4   6
ATOM      6  C   UNL     1       2.724   4.731  19.835  0.00  0.00    +0.000 A 
ATOM      7  C   UNL     1       2.758   4.486  21.221  0.00  0.00    +0.000 A 
ATOM      8  C   UNL     1       2.139   3.369  21.792  0.00  0.00    +0.000 A 
ATOM      9  C   UNL     1       1.471   2.454  20.988  0.00  0.00    +0.000 A 
ATOM     10  C   UNL     1       1.439   2.644  19.609  0.00  0.00    +0.000 A 
ATOM     11  C   UNL     1       2.075   3.764  19.030  0.00  0.00    +0.000 A 
BRANCH  11  12
ATOM     12  N   UNL     1       2.021   3.894  17.564  0.00  0.00    +0.000 N 
ATOM     13  O   UNL     1       0.964   4.281  17.047  0.00  0.00    +0.000 OA
ATOM     14  O   UNL     1       3.042   3.599  16.920  0.00  0.00    +0.000 OA
ENDBRANCH  11  12
ENDBRANCH   4   6
ENDBRANCH   3   4
BRANCH   1  15
ATOM     15  C   UNL     1       6.474   6.200  17.291  0.00  0.00    +0.000 C 
BRANCH  15  16
ATOM     16  C   UNL     1       6.898   4.748  17.296  0.00  0.00    +0.000 C 
ATOM     17  O   UNL     1       7.713   4.266  18.071  0.00  0.00    +0.000 OA
BRANCH  16  18
ATOM     18  O   UNL     1       6.305   4.075  16.271  0.00  0.00    +0.000 OA
BRANCH  18  19
ATOM     19  C   UNL     1       6.780   4.393  14.953  0.00  0.00    +0.000 C 
ATOM     20  C   UNL     1       5.708   4.062  13.931  0.00  0.00    +0.000 C 
ENDBRANCH  18  19
ENDBRANCH  16  18
ENDBRANCH  15  16
BRANCH  15  21
ATOM     21  C   UNL     1       7.451   7.045  18.132  0.00  0.00    +0.000 C 
BRANCH  21  23
ATOM     22  C   UNL     1       8.568   9.288  18.438  0.00  0.00    +0.000 C 
ATOM     23  C   UNL     1       7.860   8.362  17.460  0.00  0.00    +0.000 C 
ENDBRANCH  21  23
ENDBRANCH  15  21
ENDBRANCH   1  15
TORSDOF 9
ENDMDL
MODEL 5
REMARK VINA RESULT:      -7.2      1.638      3.564
REMARK  Name = 
REMARK  12 active torsions:
REMARK  status: ('A' for Active; 'I' for Inactive)
REMARK    1  A    between atoms: C_1  and  C_2
REMARK    2  A    between atoms: C_2  and  C_3
REMARK    3  A    between atoms: C_3  and  C_4
REMARK    4  A    between atoms: C_4  and  C_5
REMARK    5  A    between atoms: C_4  and  C_10
REMARK    6  A    between atoms: C_5  and  O_7
REMARK    7  A    between atoms: O_7  and  C_8
REMARK    8  A    between atoms: C_8  and  C_9
REMARK    9  A    between atoms: C_10  and  C_11
REMARK   10  A    between atoms: N_12  and  N_13
REMARK   11  A    between atoms: N_13  and  C_14
REMARK   12  A    between atoms: C_19  and  N_20
REMARK                            x       y       z     vdW  Elec       q    Type
REMARK                         _______ _______ _______ _____ _____    ______ ____
ROOT
ATOM      1  C   UNL     1       5.134   5.059  16.291  0.00  0.00    +0.000 C 
ATOM      2  C   UNL     1       4.824   6.461  15.808  0.00  0.00    +0.000 C 
ATOM      3  N   UNL     1       4.317   4.359  17.028  0.00  0.00    +0.000 NA
ENDROOT
BRANCH   3   4
ATOM      4  N   UNL     1       3.144   4.949  17.404  0.00  0.00    +0.000 N 
ATOM      5  H   UNL     1       3.114   5.973  17.497  0.00  0.00    +0.000 HD
BRANCH   4   6
ATOM      6  C   UNL     1       2.333   4.282  18.360  0.00  0.00    +0.000 A 
ATOM      7  C   UNL     1       1.848   2.992  18.070  0.00  0.00    +0.000 A 
ATOM      8  C   UNL     1       1.007   2.301  18.949  0.00  0.00    +0.000 A 
ATOM      9  C   UNL     1       0.619   2.886  20.148  0.00  0.00    +0.000 A 
ATOM     10  C   UNL     1       1.053   4.172  20.460  0.00  0.00    +0.000 A 
ATOM     11  C   UNL     1       1.890   4.875  19.566  0.00  0.00    +0.000 A 
BRANCH  11  12
ATOM     12  N   UNL     1       2.297   6.239  19.948  0.00  0.00    +0.000 N 
ATOM     13  O   UNL     1       1.556   6.884  20.703  0.00  0.00    +0.000 OA
ATOM     14  O   UNL     1       3.363   6.675  19.482  0.00  0.00    +0.000 OA
ENDBRANCH  11  12
ENDBRANCH   4   6
ENDBRANCH   3   4
BRANCH   1  15
ATOM     15  C   UNL     1       6.475   4.422  15.919  0.00  0.00    +0.000 C 
BRANCH  15  16
ATOM     16  C   UNL     1       7.576   4.898  16.841  0.00  0.00    +0.000 C 
ATOM     17  O   UNL     1       8.205   4.174  17.600  0.00  0.00    +0.000 OA
BRANCH  16  18
ATOM     18  O   UNL     1       7.714   6.252  16.761  0.00  0.00    +0.000 OA
BRANCH  18  19
ATOM     19  C   UNL     1       7.790   6.949  18.014  0.00  0.00    +0.000 C 
ATOM     20  C   UNL     1       7.941   8.438  17.761  0.00  0.00    +0.000 C 
ENDBRANCH  18  19
ENDBRANCH  16  18
ENDBRANCH  15  16
BRANCH  15  21
ATOM     21  C   UNL     1       6.847   4.706  14.451  0.00  0.00    +0.000 C 
BRANCH  21  23
ATOM     22  C   UNL     1       6.828   3.778  12.103  0.00  0.00    +0.000 C 
ATOM     23  C   UNL     1       6.115   3.806  13.447  0.00  0.00    +0.000 C 
ENDBRANCH  21  23
ENDBRANCH  15  21
ENDBRANCH   1  15
TORSDOF 9
ENDMDL
MODEL 6
REMARK VINA RESULT:      -7.1      1.899      2.305
REMARK  Name = 
REMARK  12 active torsions:
REMARK  status: ('A' for Active; 'I' for Inactive)
REMARK    1  A    between atoms: C_1  and  C_2
REMARK    2  A    between atoms: C_2  and  C_3
REMARK    3  A    between atoms: C_3  and  C_4
REMARK    4  A    between atoms: C_4  and  C_5
REMARK    5  A    between atoms: C_4  and  C_10
REMARK    6  A    between atoms: C_5  and  O_7
REMARK    7  A    between atoms: O_7  and  C_8
REMARK    8  A    between atoms: C_8  and  C_9
REMARK    9  A    between atoms: C_10  and  C_11
REMARK   10  A    between atoms: N_12  and  N_13
REMARK   11  A    between atoms: N_13  and  C_14
REMARK   12  A    between atoms: C_19  and  N_20
REMARK                            x       y       z     vdW  Elec       q    Type
REMARK                         _______ _______ _______ _____ _____    ______ ____
ROOT
ATOM      1  C   UNL     1       5.404   6.262  17.424  0.00  0.00    +0.000 C 
ATOM      2  C   UNL     1       4.520   6.935  16.395  0.00  0.00    +0.000 C 
ATOM      3  N   UNL     1       4.941   5.700  18.506  0.00  0.00    +0.000 NA
ENDROOT
BRANCH   3   4
ATOM      4  N   UNL     1       3.594   5.761  18.722  0.00  0.00    +0.000 N 
ATOM      5  H   UNL     1       3.165   6.677  18.903  0.00  0.00    +0.000 HD
BRANCH   4   6
ATOM      6  C   UNL     1       2.983   4.708  19.452  0.00  0.00    +0.000 A 
ATOM      7  C   UNL     1       2.670   4.905  20.812  0.00  0.00    +0.000 A 
ATOM      8  C   UNL     1       2.109   3.892  21.597  0.00  0.00    +0.000 A 
ATOM      9  C   UNL     1       1.851   2.644  21.046  0.00  0.00    +0.000 A 
ATOM     10  C   UNL     1       2.172   2.398  19.714  0.00  0.00    +0.000 A 
ATOM     11  C   UNL     1       2.751   3.415  18.924  0.00  0.00    +0.000 A 
BRANCH  11  12
ATOM     12  N   UNL     1       3.086   3.084  17.528  0.00  0.00    +0.000 N 
ATOM     13  O   UNL     1       4.092   2.393  17.313  0.00  0.00    +0.000 OA
ATOM     14  O   UNL     1       2.342   3.523  16.636  0.00  0.00    +0.000 OA
ENDBRANCH  11  12
ENDBRANCH   4   6
ENDBRANCH   3   4
BRANCH   1  15
ATOM     15  C   UNL     1       6.920   6.248  17.211  0.00  0.00    +0.000 C 
BRANCH  15  16
ATOM     16  C   UNL     1       7.469   4.843  17.313  0.00  0.00    +0.000 C 
ATOM     17  O   UNL     1       7.747   4.282  18.364  0.00  0.00    +0.000 OA
BRANCH  16  18
ATOM     18  O   UNL     1       7.682   4.322  16.072  0.00  0.00    +0.000 OA
BRANCH  18  19
ATOM     19  C   UNL     1       6.521   3.807  15.401  0.00  0.00    +0.000 C 
ATOM     20  C   UNL     1       6.490   4.315  13.971  0.00  0.00    +0.000 C 
ENDBRANCH  18  19
ENDBRANCH  16  18
ENDBRANCH  15  16
BRANCH  15  21
ATOM     21  C   UNL     1       7.638   7.177  18.208  0.00  0.00    +0.000 C 
BRANCH  21  23
ATOM     22  C   UNL     1       8.745   9.411  18.609  0.00  0.00    +0.000 C 
ATOM     23  C   UNL     1       7.869   8.596  17.669  0.00  0.00    +0.000 C 
ENDBRANCH  21  23
ENDBRANCH  15  21
ENDBRANCH   1  15
TORSDOF 9
ENDMDL
MODEL 7
REMARK VINA RESULT:      -7.1      2.768      6.557
REMARK  Name = 
REMARK  12 active torsions:
REMARK  status: ('A' for Active; 'I' for Inactive)
REMARK    1  A    between atoms: C_1  and  C_2
REMARK    2  A    between atoms: C_2  and  C_3
REMARK    3  A    between atoms: C_3  and  C_4
REMARK    4  A    between atoms: C_4  and  C_5
REMARK    5  A    between atoms: C_4  and  C_10
REMARK    6  A    between atoms: C_5  and  O_7
REMARK    7  A    between atoms: O_7  and  C_8
REMARK    8  A    between atoms: C_8  and  C_9
REMARK    9  A    between atoms: C_10  and  C_11
REMARK   10  A    between atoms: N_12  and  N_13
REMARK   11  A    between atoms: N_13  and  C_14
REMARK   12  A    between atoms: C_19  and  N_20
REMARK                            x       y       z     vdW  Elec       q    Type
REMARK                         _______ _______ _______ _____ _____    ______ ____
ROOT
ATOM      1  C   UNL     1       3.887   3.626  17.513  0.00  0.00    +0.000 C 
ATOM      2  C   UNL     1       3.811   2.134  17.768  0.00  0.00    +0.000 C 
ATOM      3  N   UNL     1       4.633   4.155  16.583  0.00  0.00    +0.000 NA
ENDROOT
BRANCH   3   4
ATOM      4  N   UNL     1       5.405   3.311  15.837  0.00  0.00    +0.000 N 
ATOM      5  H   UNL     1       5.948   2.583  16.319  0.00  0.00    +0.000 HD
BRANCH   4   6
ATOM      6  C   UNL     1       6.073   3.840  14.701  0.00  0.00    +0.000 A 
ATOM      7  C   UNL     1       5.749   3.347  13.422  0.00  0.00    +0.000 A 
ATOM      8  C   UNL     1       6.403   3.793  12.268  0.00  0.00    +0.000 A 
ATOM      9  C   UNL     1       7.410   4.745  12.361  0.00  0.00    +0.000 A 
ATOM     10  C   UNL     1       7.781   5.236  13.610  0.00  0.00    +0.000 A 
ATOM     11  C   UNL     1       7.132   4.776  14.776  0.00  0.00    +0.000 A 
BRANCH  11  12
ATOM     12  N   UNL     1       7.586   5.321  16.068  0.00  0.00    +0.000 N 
ATOM     13  O   UNL     1       7.612   6.551  16.209  0.00  0.00    +0.000 OA
ATOM     14  O   UNL     1       7.928   4.513  16.947  0.00  0.00    +0.000 OA
ENDBRANCH  11  12
ENDBRANCH   4   6
ENDBRANCH   3   4
BRANCH   1  15
ATOM     15  C   UNL     1       3.068   4.574  18.391  0.00  0.00    +0.000 C 
BRANCH  15  16
ATOM     16  C   UNL     1       1.597   4.225  18.343  0.00  0.00    +0.000 C 
ATOM     17  O   UNL     1       0.942   4.126  17.314  0.00  0.00    +0.000 OA
BRANCH  16  18
ATOM     18  O   UNL     1       1.092   4.113  19.603  0.00  0.00    +0.000 OA
BRANCH  18  19
ATOM     19  C   UNL     1       1.186   2.812  20.202  0.00  0.00    +0.000 C 
ATOM     20  C   UNL     1       1.772   2.933  21.597  0.00  0.00    +0.000 C 
ENDBRANCH  18  19
ENDBRANCH  16  18
ENDBRANCH  15  16
BRANCH  15  21
ATOM     21  C   UNL     1       3.282   6.045  17.984  0.00  0.00    +0.000 C 
BRANCH  21  23
ATOM     22  C   UNL     1       2.127   8.288  18.064  0.00  0.00    +0.000 C 
ATOM     23  C   UNL     1       2.503   7.042  18.852  0.00  0.00    +0.000 C 
ENDBRANCH  21  23
ENDBRANCH  15  21
ENDBRANCH   1  15
TORSDOF 9
ENDMDL
MODEL 8
REMARK VINA RESULT:      -7.0      2.167      3.852
REMARK  Name = 
REMARK  12 active torsions:
REMARK  status: ('A' for Active; 'I' for Inactive)
REMARK    1  A    between atoms: C_1  and  C_2
REMARK    2  A    between atoms: C_2  and  C_3
REMARK    3  A    between atoms: C_3  and  C_4
REMARK    4  A    between atoms: C_4  and  C_5
REMARK    5  A    between atoms: C_4  and  C_10
REMARK    6  A    between atoms: C_5  and  O_7
REMARK    7  A    between atoms: O_7  and  C_8
REMARK    8  A    between atoms: C_8  and  C_9
REMARK    9  A    between atoms: C_10  and  C_11
REMARK   10  A    between atoms: N_12  and  N_13
REMARK   11  A    between atoms: N_13  and  C_14
REMARK   12  A    between atoms: C_19  and  N_20
REMARK                            x       y       z     vdW  Elec       q    Type
REMARK                         _______ _______ _______ _____ _____    ______ ____
ROOT
ATOM      1  C   UNL     1       5.020   4.452  16.861  0.00  0.00    +0.000 C 
ATOM      2  C   UNL     1       4.460   5.859  16.891  0.00  0.00    +0.000 C 
ATOM      3  N   UNL     1       4.301   3.391  17.105  0.00  0.00    +0.000 NA
ENDROOT
BRANCH   3   4
ATOM      4  N   UNL     1       2.990   3.580  17.438  0.00  0.00    +0.000 N 
ATOM      5  H   UNL     1       2.419   4.205  16.856  0.00  0.00    +0.000 HD
BRANCH   4   6
ATOM      6  C   UNL     1       2.648   3.637  18.815  0.00  0.00    +0.000 A 
ATOM      7  C   UNL     1       1.835   4.690  19.278  0.00  0.00    +0.000 A 
ATOM      8  C   UNL     1       1.501   4.828  20.630  0.00  0.00    +0.000 A 
ATOM      9  C   UNL     1       1.979   3.918  21.564  0.00  0.00    +0.000 A 
ATOM     10  C   UNL     1       2.810   2.880  21.151  0.00  0.00    +0.000 A 
ATOM     11  C   UNL     1       3.160   2.747  19.790  0.00  0.00    +0.000 A 
BRANCH  11  12
ATOM     12  N   UNL     1       4.059   1.639  19.424  0.00  0.00    +0.000 N 
ATOM     13  O   UNL     1       5.137   1.534  20.026  0.00  0.00    +0.000 OA
ATOM     14  O   UNL     1       3.689   0.869  18.521  0.00  0.00    +0.000 OA
ENDBRANCH  11  12
ENDBRANCH   4   6
ENDBRANCH   3   4
BRANCH   1  15
ATOM     15  C   UNL     1       6.503   4.246  16.548  0.00  0.00    +0.000 C 
BRANCH  15  16
ATOM     16  C   UNL     1       7.375   4.948  17.566  0.00  0.00    +0.000 C 
ATOM     17  O   UNL     1       7.703   4.472  18.644  0.00  0.00    +0.000 OA
BRANCH  16  18
ATOM     18  O   UNL     1       7.678   6.208  17.146  0.00  0.00    +0.000 OA
BRANCH  18  19
ATOM     19  C   UNL     1       7.934   7.169  18.181  0.00  0.00    +0.000 C 
ATOM     20  C   UNL     1       7.790   8.573  17.622  0.00  0.00    +0.000 C 
ENDBRANCH  18  19
ENDBRANCH  16  18
ENDBRANCH  15  16
BRANCH  15  21
ATOM     21  C   UNL     1       6.851   4.724  15.125  0.00  0.00    +0.000 C 
BRANCH  21  23
ATOM     22  C   UNL     1       6.480   3.741  12.829  0.00  0.00    +0.000 C 
ATOM     23  C   UNL     1       5.814   4.318  14.070  0.00  0.00    +0.000 C 
ENDBRANCH  21  23
ENDBRANCH  15  21
ENDBRANCH   1  15
TORSDOF 9
ENDMDL
MODEL 9
REMARK VINA RESULT:      -7.0      1.958      4.058
REMARK  Name = 
REMARK  12 active torsions:
REMARK  status: ('A' for Active; 'I' for Inactive)
REMARK    1  A    between atoms: C_1  and  C_2
REMARK    2  A    between atoms: C_2  and  C_3
REMARK    3  A    between atoms: C_3  and  C_4
REMARK    4  A    between atoms: C_4  and  C_5
REMARK    5  A    between atoms: C_4  and  C_10
REMARK    6  A    between atoms: C_5  and  O_7
REMARK    7  A    between atoms: O_7  and  C_8
REMARK    8  A    between atoms: C_8  and  C_9
REMARK    9  A    between atoms: C_10  and  C_11
REMARK   10  A    between atoms: N_12  and  N_13
REMARK   11  A    between atoms: N_13  and  C_14
REMARK   12  A    between atoms: C_19  and  N_20
REMARK                            x       y       z     vdW  Elec       q    Type
REMARK                         _______ _______ _______ _____ _____    ______ ____
ROOT
ATOM      1  C   UNL     1       4.655   3.953  17.434  0.00  0.00    +0.000 C 
ATOM      2  C   UNL     1       4.747   3.169  18.727  0.00  0.00    +0.000 C 
ATOM      3  N   UNL     1       3.583   4.594  17.061  0.00  0.00    +0.000 NA
ENDROOT
BRANCH   3   4
ATOM      4  N   UNL     1       2.487   4.515  17.871  0.00  0.00    +0.000 N 
ATOM      5  H   UNL     1       1.646   4.040  17.519  0.00  0.00    +0.000 HD
BRANCH   4   6
ATOM      6  C   UNL     1       2.188   5.623  18.708  0.00  0.00    +0.000 A 
ATOM      7  C   UNL     1       2.414   6.928  18.228  0.00  0.00    +0.000 A 
ATOM      8  C   UNL     1       2.184   8.059  19.019  0.00  0.00    +0.000 A 
ATOM      9  C   UNL     1       1.727   7.917  20.323  0.00  0.00    +0.000 A 
ATOM     10  C   UNL     1       1.519   6.643  20.846  0.00  0.00    +0.000 A 
ATOM     11  C   UNL     1       1.765   5.501  20.053  0.00  0.00    +0.000 A 
BRANCH  11  12
ATOM     12  N   UNL     1       1.545   4.183  20.674  0.00  0.00    +0.000 N 
ATOM     13  O   UNL     1       2.190   3.898  21.692  0.00  0.00    +0.000 OA
ATOM     14  O   UNL     1       0.724   3.421  20.135  0.00  0.00    +0.000 OA
ENDBRANCH  11  12
ENDBRANCH   4   6
ENDBRANCH   3   4
BRANCH   1  15
ATOM     15  C   UNL     1       5.865   3.990  16.497  0.00  0.00    +0.000 C 
BRANCH  15  16
ATOM     16  C   UNL     1       7.030   4.707  17.143  0.00  0.00    +0.000 C 
ATOM     17  O   UNL     1       8.151   4.234  17.269  0.00  0.00    +0.000 OA
BRANCH  16  18
ATOM     18  O   UNL     1       6.635   5.917  17.629  0.00  0.00    +0.000 OA
BRANCH  18  19
ATOM     19  C   UNL     1       7.648   6.684  18.298  0.00  0.00    +0.000 C 
ATOM     20  C   UNL     1       7.875   7.988  17.554  0.00  0.00    +0.000 C 
ENDBRANCH  18  19
ENDBRANCH  16  18
ENDBRANCH  15  16
BRANCH  15  21
ATOM     21  C   UNL     1       5.514   4.646  15.148  0.00  0.00    +0.000 C 
BRANCH  21  23
ATOM     22  C   UNL     1       5.904   3.613  12.877  0.00  0.00    +0.000 C 
ATOM     23  C   UNL     1       6.538   4.361  14.041  0.00  0.00    +0.000 C 
ENDBRANCH  21  23
ENDBRANCH  15  21
ENDBRANCH   1  15
TORSDOF 9
ENDMDL
