MODEL 1
REMARK VINA RESULT:      -8.1      0.000      0.000
REMARK  Name = 
REMARK  4 active torsions:
REMARK  status: ('A' for Active; 'I' for Inactive)
REMARK    1  A    between atoms: C_1  and  C_2
REMARK    2  A    between atoms: C_5  and  S_6
REMARK    3  A    between atoms: S_6  and  C_9
REMARK    4  A    between atoms: C_16  and  N_17
REMARK                            x       y       z     vdW  Elec       q    Type
REMARK                         _______ _______ _______ _____ _____    ______ ____
ROOT
ATOM      1  C   UNL     1       2.097   9.841  17.801  0.00  0.00    +0.000 C 
ATOM      2  C   UNL     1       2.497   8.463  18.196  0.00  0.00    +0.000 A 
ATOM      3  N   UNL     1       3.612   7.868  17.843  0.00  0.00    +0.000 NA
ATOM      4  C   UNL     1       3.721   6.606  18.425  0.00  0.00    +0.000 A 
ATOM      5  C   UNL     1       4.816   5.709  18.325  0.00  0.00    +0.000 A 
ATOM      6  C   UNL     1       4.766   4.454  18.998  0.00  0.00    +0.000 A 
ATOM      7  C   UNL     1       3.590   4.060  19.710  0.00  0.00    +0.000 A 
ATOM      8  C   UNL     1       3.428   2.805  20.356  0.00  0.00    +0.000 A 
ATOM      9  C   UNL     1       2.267   2.462  21.061  0.00  0.00    +0.000 A 
ATOM     10  C   UNL     1       1.227   3.363  21.151  0.00  0.00    +0.000 A 
ATOM     11  C   UNL     1       1.333   4.604  20.536  0.00  0.00    +0.000 A 
ATOM     12  C   UNL     1       2.501   4.958  19.811  0.00  0.00    +0.000 A 
ATOM     13  C   UNL     1       2.601   6.228  19.177  0.00  0.00    +0.000 A 
ATOM     14  S   UNL     1       1.453   7.529  19.165  0.00  0.00    +0.000 S 
ENDROOT
BRANCH   5  15
ATOM     15  S   UNL     1       6.231   6.184  17.319  0.00  0.00    +0.000 S 
ATOM     16  O   UNL     1       6.054   7.562  16.884  0.00  0.00    +0.000 OA
ATOM     17  O   UNL     1       7.451   5.861  18.036  0.00  0.00    +0.000 OA
BRANCH  15  18
ATOM     18  C   UNL     1       6.202   5.158  15.845  0.00  0.00    +0.000 A 
ATOM     19  C   UNL     1       7.293   5.166  14.972  0.00  0.00    +0.000 A 
ATOM     20  C   UNL     1       7.189   4.525  13.732  0.00  0.00    +0.000 A 
ATOM     21  C   UNL     1       6.017   3.843  13.398  0.00  0.00    +0.000 A 
ATOM     22 CL   UNL     1       5.829   3.191  11.817  0.00  0.00    +0.000 Cl
ATOM     23  C   UNL     1       4.977   3.733  14.322  0.00  0.00    +0.000 A 
ATOM     24  C   UNL     1       5.069   4.387  15.556  0.00  0.00    +0.000 A 
ENDBRANCH  15  18
ENDBRANCH   5  15
BRANCH   6  25
ATOM     25  N   UNL     1       5.877   3.583  18.979  0.00  0.00    +0.000 N 
ATOM     26  H   UNL     1       6.614   3.893  19.619  0.00  0.00    +0.000 HD
ATOM     27  H   UNL     1       5.701   2.595  19.099  0.00  0.00    +0.000 HD
ENDBRANCH   6  25
TORSDOF 3
ENDMDL
MODEL 2
REMARK VINA RESULT:      -7.7      3.025      3.688
REMARK  Name = 
REMARK  4 active torsions:
REMARK  status: ('A' for Active; 'I' for Inactive)
REMARK    1  A    between atoms: C_1  and  C_2
REMARK    2  A    between atoms: C_5  and  S_6
REMARK    3  A    between atoms: S_6  and  C_9
REMARK    4  A    between atoms: C_16  and  N_17
REMARK                            x       y       z     vdW  Elec       q    Type
REMARK                         _______ _______ _______ _____ _____    ______ ____
ROOT
ATOM      1  C   UNL     1       2.077   9.805  17.773  0.00  0.00    +0.000 C 
ATOM      2  C   UNL     1       2.475   8.421  18.149  0.00  0.00    +0.000 A 
ATOM      3  N   UNL     1       3.472   7.750  17.621  0.00  0.00    +0.000 NA
ATOM      4  C   UNL     1       3.626   6.505  18.230  0.00  0.00    +0.000 A 
ATOM      5  C   UNL     1       4.636   5.543  17.968  0.00  0.00    +0.000 A 
ATOM      6  C   UNL     1       4.651   4.318  18.694  0.00  0.00    +0.000 A 
ATOM      7  C   UNL     1       3.612   4.018  19.630  0.00  0.00    +0.000 A 
ATOM      8  C   UNL     1       3.512   2.798  20.351  0.00  0.00    +0.000 A 
ATOM      9  C   UNL     1       2.488   2.546  21.274  0.00  0.00    +0.000 A 
ATOM     10  C   UNL     1       1.531   3.508  21.515  0.00  0.00    +0.000 A 
ATOM     11  C   UNL     1       1.581   4.719  20.836  0.00  0.00    +0.000 A 
ATOM     12  C   UNL     1       2.607   4.980  19.891  0.00  0.00    +0.000 A 
ATOM     13  C   UNL     1       2.650   6.219  19.193  0.00  0.00    +0.000 A 
ATOM     14  S   UNL     1       1.586   7.583  19.336  0.00  0.00    +0.000 S 
ENDROOT
BRANCH   5  15
ATOM     15  S   UNL     1       5.859   5.900  16.696  0.00  0.00    +0.000 S 
ATOM     16  O   UNL     1       6.590   4.678  16.395  0.00  0.00    +0.000 OA
ATOM     17  O   UNL     1       5.207   6.579  15.591  0.00  0.00    +0.000 OA
BRANCH  15  18
ATOM     18  C   UNL     1       7.036   7.058  17.402  0.00  0.00    +0.000 A 
ATOM     19  C   UNL     1       7.884   6.643  18.433  0.00  0.00    +0.000 A 
ATOM     20  C   UNL     1       8.657   7.591  19.114  0.00  0.00    +0.000 A 
ATOM     21  C   UNL     1       8.611   8.932  18.728  0.00  0.00    +0.000 A 
ATOM     22 CL   UNL     1       9.437  10.118  19.661  0.00  0.00    +0.000 Cl
ATOM     23  C   UNL     1       7.858   9.322  17.620  0.00  0.00    +0.000 A 
ATOM     24  C   UNL     1       7.070   8.382  16.946  0.00  0.00    +0.000 A 
ENDBRANCH  15  18
ENDBRANCH   5  15
BRANCH   6  25
ATOM     25  N   UNL     1       5.694   3.384  18.508  0.00  0.00    +0.000 N 
ATOM     26  H   UNL     1       6.206   3.555  17.638  0.00  0.00    +0.000 HD
ATOM     27  H   UNL     1       6.339   3.243  19.274  0.00  0.00    +0.000 HD
ENDBRANCH   6  25
TORSDOF 3
ENDMDL
MODEL 3
REMARK VINA RESULT:      -7.1      3.108      3.784
REMARK  Name = 
REMARK  4 active torsions:
REMARK  status: ('A' for Active; 'I' for Inactive)
REMARK    1  A    between atoms: C_1  and  C_2
REMARK    2  A    between atoms: C_5  and  S_6
REMARK    3  A    between atoms: S_6  and  C_9
REMARK    4  A    between atoms: C_16  and  N_17
REMARK                            x       y       z     vdW  Elec       q    Type
REMARK                         _______ _______ _______ _____ _____    ______ ____
ROOT
ATOM      1  C   UNL     1       1.907   9.826  17.809  0.00  0.00    +0.000 C 
ATOM      2  C   UNL     1       2.371   8.458  18.166  0.00  0.00    +0.000 A 
ATOM      3  N   UNL     1       3.436   7.867  17.676  0.00  0.00    +0.000 NA
ATOM      4  C   UNL     1       3.634   6.615  18.256  0.00  0.00    +0.000 A 
ATOM      5  C   UNL     1       4.717   5.727  18.023  0.00  0.00    +0.000 A 
ATOM      6  C   UNL     1       4.770   4.481  18.714  0.00  0.00    +0.000 A 
ATOM      7  C   UNL     1       3.703   4.088  19.581  0.00  0.00    +0.000 A 
ATOM      8  C   UNL     1       3.641   2.841  20.260  0.00  0.00    +0.000 A 
ATOM      9  C   UNL     1       2.588   2.498  21.117  0.00  0.00    +0.000 A 
ATOM     10  C   UNL     1       1.560   3.390  21.332  0.00  0.00    +0.000 A 
ATOM     11  C   UNL     1       1.570   4.623  20.691  0.00  0.00    +0.000 A 
ATOM     12  C   UNL     1       2.627   4.977  19.814  0.00  0.00    +0.000 A 
ATOM     13  C   UNL     1       2.629   6.239  19.155  0.00  0.00    +0.000 A 
ATOM     14  S   UNL     1       1.474   7.529  19.277  0.00  0.00    +0.000 S 
ENDROOT
BRANCH   5  15
ATOM     15  S   UNL     1       5.981   6.199  16.833  0.00  0.00    +0.000 S 
ATOM     16  O   UNL     1       6.854   5.057  16.600  0.00  0.00    +0.000 OA
ATOM     17  O   UNL     1       5.341   6.798  15.676  0.00  0.00    +0.000 OA
BRANCH  15  18
ATOM     18  C   UNL     1       6.981   7.478  17.600  0.00  0.00    +0.000 A 
ATOM     19  C   UNL     1       6.832   8.809  17.201  0.00  0.00    +0.000 A 
ATOM     20  C   UNL     1       7.743   9.771  17.653  0.00  0.00    +0.000 A 
ATOM     21  C   UNL     1       8.761   9.405  18.534  0.00  0.00    +0.000 A 
ATOM     22 CL   UNL     1       9.971  10.549  18.965  0.00  0.00    +0.000 Cl
ATOM     23  C   UNL     1       8.832   8.101  19.028  0.00  0.00    +0.000 A 
ATOM     24  C   UNL     1       7.935   7.131  18.566  0.00  0.00    +0.000 A 
ENDBRANCH  15  18
ENDBRANCH   5  15
BRANCH   6  25
ATOM     25  N   UNL     1       5.878   3.620  18.560  0.00  0.00    +0.000 N 
ATOM     26  H   UNL     1       5.755   2.746  19.079  0.00  0.00    +0.000 HD
ATOM     27  H   UNL     1       6.197   3.430  17.620  0.00  0.00    +0.000 HD
ENDBRANCH   6  25
TORSDOF 3
ENDMDL
MODEL 4
REMARK VINA RESULT:      -7.1      6.480      9.518
REMARK  Name = 
REMARK  4 active torsions:
REMARK  status: ('A' for Active; 'I' for Inactive)
REMARK    1  A    between atoms: C_1  and  C_2
REMARK    2  A    between atoms: C_5  and  S_6
REMARK    3  A    between atoms: S_6  and  C_9
REMARK    4  A    between atoms: C_16  and  N_17
REMARK                            x       y       z     vdW  Elec       q    Type
REMARK                         _______ _______ _______ _____ _____    ______ ____
ROOT
ATOM      1  C   UNL     1      -2.843  10.659  15.319  0.00  0.00    +0.000 C 
ATOM      2  C   UNL     1      -2.937  11.135  16.726  0.00  0.00    +0.000 A 
ATOM      3  N   UNL     1      -1.915  11.422  17.498  0.00  0.00    +0.000 NA
ATOM      4  C   UNL     1      -2.333  11.899  18.740  0.00  0.00    +0.000 A 
ATOM      5  C   UNL     1      -1.511  12.369  19.797  0.00  0.00    +0.000 A 
ATOM      6  C   UNL     1      -2.110  12.835  21.004  0.00  0.00    +0.000 A 
ATOM      7  C   UNL     1      -3.526  12.762  21.185  0.00  0.00    +0.000 A 
ATOM      8  C   UNL     1      -4.202  13.144  22.375  0.00  0.00    +0.000 A 
ATOM      9  C   UNL     1      -5.594  13.074  22.510  0.00  0.00    +0.000 A 
ATOM     10  C   UNL     1      -6.364  12.626  21.458  0.00  0.00    +0.000 A 
ATOM     11  C   UNL     1      -5.754  12.238  20.272  0.00  0.00    +0.000 A 
ATOM     12  C   UNL     1      -4.343  12.295  20.128  0.00  0.00    +0.000 A 
ATOM     13  C   UNL     1      -3.723  11.890  18.913  0.00  0.00    +0.000 A 
ATOM     14  S   UNL     1      -4.467  11.318  17.453  0.00  0.00    +0.000 S 
ENDROOT
BRANCH   5  15
ATOM     15  S   UNL     1       0.275  12.334  19.583  0.00  0.00    +0.000 S 
ATOM     16  O   UNL     1       0.602  12.918  18.289  0.00  0.00    +0.000 OA
ATOM     17  O   UNL     1       0.903  12.913  20.755  0.00  0.00    +0.000 OA
BRANCH  15  18
ATOM     18  C   UNL     1       0.768  10.608  19.521  0.00  0.00    +0.000 A 
ATOM     19  C   UNL     1       0.632   9.807  20.658  0.00  0.00    +0.000 A 
ATOM     20  C   UNL     1       1.196   8.525  20.670  0.00  0.00    +0.000 A 
ATOM     21  C   UNL     1       1.845   8.041  19.533  0.00  0.00    +0.000 A 
ATOM     22 CL   UNL     1       2.672   6.534  19.599  0.00  0.00    +0.000 Cl
ATOM     23  C   UNL     1       1.870   8.795  18.360  0.00  0.00    +0.000 A 
ATOM     24  C   UNL     1       1.324  10.084  18.347  0.00  0.00    +0.000 A 
ENDBRANCH  15  18
ENDBRANCH   5  15
BRANCH   6  25
ATOM     25  N   UNL     1      -1.316  13.384  22.035  0.00  0.00    +0.000 N 
ATOM     26  H   UNL     1      -1.511  14.379  22.176  0.00  0.00    +0.000 HD
ATOM     27  H   UNL     1      -1.299  12.899  22.921  0.00  0.00    +0.000 HD
ENDBRANCH   6  25
TORSDOF 3
ENDMDL
MODEL 5
REMARK VINA RESULT:      -6.8      7.015     10.068
REMARK  Name = 
REMARK  4 active torsions:
REMARK  status: ('A' for Active; 'I' for Inactive)
REMARK    1  A    between atoms: C_1  and  C_2
REMARK    2  A    between atoms: C_5  and  S_6
REMARK    3  A    between atoms: S_6  and  C_9
REMARK    4  A    between atoms: C_16  and  N_17
REMARK                            x       y       z     vdW  Elec       q    Type
REMARK                         _______ _______ _______ _____ _____    ______ ____
ROOT
ATOM      1  C   UNL     1      -2.819  10.519  15.262  0.00  0.00    +0.000 C 
ATOM      2  C   UNL     1      -3.084  11.043  16.629  0.00  0.00    +0.000 A 
ATOM      3  N   UNL     1      -2.172  11.504  17.453  0.00  0.00    +0.000 NA
ATOM      4  C   UNL     1      -2.745  11.978  18.633  0.00  0.00    +0.000 A 
ATOM      5  C   UNL     1      -2.078  12.607  19.716  0.00  0.00    +0.000 A 
ATOM      6  C   UNL     1      -2.824  13.043  20.849  0.00  0.00    +0.000 A 
ATOM      7  C   UNL     1      -4.228  12.784  20.935  0.00  0.00    +0.000 A 
ATOM      8  C   UNL     1      -5.038  13.125  22.051  0.00  0.00    +0.000 A 
ATOM      9  C   UNL     1      -6.415  12.871  22.092  0.00  0.00    +0.000 A 
ATOM     10  C   UNL     1      -7.034  12.271  21.016  0.00  0.00    +0.000 A 
ATOM     11  C   UNL     1      -6.288  11.915  19.899  0.00  0.00    +0.000 A 
ATOM     12  C   UNL     1      -4.891  12.159  19.852  0.00  0.00    +0.000 A 
ATOM     13  C   UNL     1      -4.130  11.786  18.708  0.00  0.00    +0.000 A 
ATOM     14  S   UNL     1      -4.676  11.048  17.235  0.00  0.00    +0.000 S 
ENDROOT
BRANCH   5  15
ATOM     15  S   UNL     1      -0.291  12.809  19.630  0.00  0.00    +0.000 S 
ATOM     16  O   UNL     1       0.073  13.170  18.266  0.00  0.00    +0.000 OA
ATOM     17  O   UNL     1       0.136  13.697  20.694  0.00  0.00    +0.000 OA
BRANCH  15  18
ATOM     18  C   UNL     1       0.440  11.202  19.961  0.00  0.00    +0.000 A 
ATOM     19  C   UNL     1       0.975  10.453  18.910  0.00  0.00    +0.000 A 
ATOM     20  C   UNL     1       1.362   9.126  19.136  0.00  0.00    +0.000 A 
ATOM     21  C   UNL     1       1.255   8.579  20.415  0.00  0.00    +0.000 A 
ATOM     22 CL   UNL     1       1.581   6.907  20.659  0.00  0.00    +0.000 Cl
ATOM     23  C   UNL     1       0.837   9.368  21.487  0.00  0.00    +0.000 A 
ATOM     24  C   UNL     1       0.432  10.689  21.265  0.00  0.00    +0.000 A 
ENDBRANCH  15  18
ENDBRANCH   5  15
BRANCH   6  25
ATOM     25  N   UNL     1      -2.193  13.744  21.899  0.00  0.00    +0.000 N 
ATOM     26  H   UNL     1      -1.518  14.429  21.547  0.00  0.00    +0.000 HD
ATOM     27  H   UNL     1      -2.784  14.162  22.605  0.00  0.00    +0.000 HD
ENDBRANCH   6  25
TORSDOF 3
ENDMDL
MODEL 6
REMARK VINA RESULT:      -6.7     10.595     13.215
REMARK  Name = 
REMARK  4 active torsions:
REMARK  status: ('A' for Active; 'I' for Inactive)
REMARK    1  A    between atoms: C_1  and  C_2
REMARK    2  A    between atoms: C_5  and  S_6
REMARK    3  A    between atoms: S_6  and  C_9
REMARK    4  A    between atoms: C_16  and  N_17
REMARK                            x       y       z     vdW  Elec       q    Type
REMARK                         _______ _______ _______ _____ _____    ______ ____
ROOT
ATOM      1  C   UNL     1      -3.028  10.654  15.449  0.00  0.00    +0.000 C 
ATOM      2  C   UNL     1      -3.167  11.169  16.839  0.00  0.00    +0.000 A 
ATOM      3  N   UNL     1      -4.297  11.520  17.407  0.00  0.00    +0.000 NA
ATOM      4  C   UNL     1      -4.102  11.902  18.733  0.00  0.00    +0.000 A 
ATOM      5  C   UNL     1      -5.099  12.275  19.672  0.00  0.00    +0.000 A 
ATOM      6  C   UNL     1      -4.723  12.630  21.000  0.00  0.00    +0.000 A 
ATOM      7  C   UNL     1      -3.343  12.687  21.371  0.00  0.00    +0.000 A 
ATOM      8  C   UNL     1      -2.873  13.090  22.650  0.00  0.00    +0.000 A 
ATOM      9  C   UNL     1      -1.513  13.116  22.983  0.00  0.00    +0.000 A 
ATOM     10  C   UNL     1      -0.571  12.733  22.052  0.00  0.00    +0.000 A 
ATOM     11  C   UNL     1      -0.976  12.331  20.785  0.00  0.00    +0.000 A 
ATOM     12  C   UNL     1      -2.351  12.311  20.433  0.00  0.00    +0.000 A 
ATOM     13  C   UNL     1      -2.759  11.905  19.132  0.00  0.00    +0.000 A 
ATOM     14  S   UNL     1      -1.779  11.363  17.807  0.00  0.00    +0.000 S 
ENDROOT
BRANCH   5  15
ATOM     15  S   UNL     1      -6.817  12.312  19.137  0.00  0.00    +0.000 S 
ATOM     16  O   UNL     1      -7.034  11.230  18.187  0.00  0.00    +0.000 OA
ATOM     17  O   UNL     1      -7.675  12.357  20.306  0.00  0.00    +0.000 OA
BRANCH  15  18
ATOM     18  C   UNL     1      -7.062  13.852  18.246  0.00  0.00    +0.000 A 
ATOM     19  C   UNL     1      -7.221  13.832  16.857  0.00  0.00    +0.000 A 
ATOM     20  C   UNL     1      -7.212  15.037  16.145  0.00  0.00    +0.000 A 
ATOM     21  C   UNL     1      -7.094  16.248  16.829  0.00  0.00    +0.000 A 
ATOM     22 CL   UNL     1      -6.925  17.715  15.946  0.00  0.00    +0.000 Cl
ATOM     23  C   UNL     1      -7.059  16.271  18.224  0.00  0.00    +0.000 A 
ATOM     24  C   UNL     1      -7.049  15.068  18.940  0.00  0.00    +0.000 A 
ENDBRANCH  15  18
ENDBRANCH   5  15
BRANCH   6  25
ATOM     25  N   UNL     1      -5.704  12.924  21.971  0.00  0.00    +0.000 N 
ATOM     26  H   UNL     1      -6.560  12.381  21.823  0.00  0.00    +0.000 HD
ATOM     27  H   UNL     1      -5.428  12.887  22.943  0.00  0.00    +0.000 HD
ENDBRANCH   6  25
TORSDOF 3
ENDMDL
MODEL 7
REMARK VINA RESULT:      -6.7      6.095      9.168
REMARK  Name = 
REMARK  4 active torsions:
REMARK  status: ('A' for Active; 'I' for Inactive)
REMARK    1  A    between atoms: C_1  and  C_2
REMARK    2  A    between atoms: C_5  and  S_6
REMARK    3  A    between atoms: S_6  and  C_9
REMARK    4  A    between atoms: C_16  and  N_17
REMARK                            x       y       z     vdW  Elec       q    Type
REMARK                         _______ _______ _______ _____ _____    ______ ____
ROOT
ATOM      1  C   UNL     1      -1.856  13.973  23.962  0.00  0.00    +0.000 C 
ATOM      2  C   UNL     1      -2.085  13.424  22.598  0.00  0.00    +0.000 A 
ATOM      3  N   UNL     1      -1.152  12.947  21.807  0.00  0.00    +0.000 NA
ATOM      4  C   UNL     1      -1.694  12.452  20.622  0.00  0.00    +0.000 A 
ATOM      5  C   UNL     1      -0.998  11.803  19.569  0.00  0.00    +0.000 A 
ATOM      6  C   UNL     1      -1.715  11.348  18.424  0.00  0.00    +0.000 A 
ATOM      7  C   UNL     1      -3.115  11.607  18.295  0.00  0.00    +0.000 A 
ATOM      8  C   UNL     1      -3.896  11.246  17.164  0.00  0.00    +0.000 A 
ATOM      9  C   UNL     1      -5.271  11.501  17.082  0.00  0.00    +0.000 A 
ATOM     10  C   UNL     1      -5.918  12.120  18.129  0.00  0.00    +0.000 A 
ATOM     11  C   UNL     1      -5.201  12.496  19.259  0.00  0.00    +0.000 A 
ATOM     12  C   UNL     1      -3.806  12.252  19.349  0.00  0.00    +0.000 A 
ATOM     13  C   UNL     1      -3.076  12.644  20.506  0.00  0.00    +0.000 A 
ATOM     14  S   UNL     1      -3.660  13.409  21.950  0.00  0.00    +0.000 S 
ENDROOT
BRANCH   5  15
ATOM     15  S   UNL     1       0.785  11.602  19.707  0.00  0.00    +0.000 S 
ATOM     16  O   UNL     1       1.409  12.129  18.501  0.00  0.00    +0.000 OA
ATOM     17  O   UNL     1       1.225  12.143  20.979  0.00  0.00    +0.000 OA
BRANCH  15  18
ATOM     18  C   UNL     1       1.117   9.837  19.744  0.00  0.00    +0.000 A 
ATOM     19  C   UNL     1       0.744   9.084  20.860  0.00  0.00    +0.000 A 
ATOM     20  C   UNL     1       1.177   7.757  20.974  0.00  0.00    +0.000 A 
ATOM     21  C   UNL     1       1.937   7.184  19.952  0.00  0.00    +0.000 A 
ATOM     22 CL   UNL     1       2.601   5.611  20.161  0.00  0.00    +0.000 Cl
ATOM     23  C   UNL     1       2.203   7.900  18.784  0.00  0.00    +0.000 A 
ATOM     24  C   UNL     1       1.787   9.232  18.672  0.00  0.00    +0.000 A 
ENDBRANCH  15  18
ENDBRANCH   5  15
BRANCH   6  25
ATOM     25  N   UNL     1      -1.056  10.627  17.404  0.00  0.00    +0.000 N 
ATOM     26  H   UNL     1      -1.652  10.507  16.579  0.00  0.00    +0.000 HD
ATOM     27  H   UNL     1      -0.134  10.938  17.130  0.00  0.00    +0.000 HD
ENDBRANCH   6  25
TORSDOF 3
ENDMDL
MODEL 8
REMARK VINA RESULT:      -6.6     10.580     13.252
REMARK  Name = 
REMARK  4 active torsions:
REMARK  status: ('A' for Active; 'I' for Inactive)
REMARK    1  A    between atoms: C_1  and  C_2
REMARK    2  A    between atoms: C_5  and  S_6
REMARK    3  A    between atoms: S_6  and  C_9
REMARK    4  A    between atoms: C_16  and  N_17
REMARK                            x       y       z     vdW  Elec       q    Type
REMARK                         _______ _______ _______ _____ _____    ______ ____
ROOT
ATOM      1  C   UNL     1      -3.179  10.599  15.312  0.00  0.00    +0.000 C 
ATOM      2  C   UNL     1      -3.273  11.102  16.710  0.00  0.00    +0.000 A 
ATOM      3  N   UNL     1      -4.364  11.559  17.279  0.00  0.00    +0.000 NA
ATOM      4  C   UNL     1      -4.139  11.896  18.612  0.00  0.00    +0.000 A 
ATOM      5  C   UNL     1      -5.099  12.355  19.552  0.00  0.00    +0.000 A 
ATOM      6  C   UNL     1      -4.696  12.646  20.888  0.00  0.00    +0.000 A 
ATOM      7  C   UNL     1      -3.321  12.551  21.268  0.00  0.00    +0.000 A 
ATOM      8  C   UNL     1      -2.821  12.881  22.556  0.00  0.00    +0.000 A 
ATOM      9  C   UNL     1      -1.468  12.758  22.897  0.00  0.00    +0.000 A 
ATOM     10  C   UNL     1      -0.565  12.295  21.964  0.00  0.00    +0.000 A 
ATOM     11  C   UNL     1      -1.000  11.960  20.688  0.00  0.00    +0.000 A 
ATOM     12  C   UNL     1      -2.367  12.090  20.329  0.00  0.00    +0.000 A 
ATOM     13  C   UNL     1      -2.806  11.752  19.018  0.00  0.00    +0.000 A 
ATOM     14  S   UNL     1      -1.879  11.132  17.689  0.00  0.00    +0.000 S 
ENDROOT
BRANCH   5  15
ATOM     15  S   UNL     1      -6.800  12.581  19.009  0.00  0.00    +0.000 S 
ATOM     16  O   UNL     1      -7.141  11.509  18.084  0.00  0.00    +0.000 OA
ATOM     17  O   UNL     1      -7.648  12.755  20.173  0.00  0.00    +0.000 OA
BRANCH  15  18
ATOM     18  C   UNL     1      -6.860  14.117  18.081  0.00  0.00    +0.000 A 
ATOM     19  C   UNL     1      -6.642  15.333  18.735  0.00  0.00    +0.000 A 
ATOM     20  C   UNL     1      -6.883  16.534  18.058  0.00  0.00    +0.000 A 
ATOM     21  C   UNL     1      -7.292  16.510  16.723  0.00  0.00    +0.000 A 
ATOM     22 CL   UNL     1      -7.740  17.974  15.940  0.00  0.00    +0.000 Cl
ATOM     23  C   UNL     1      -7.390  15.298  16.037  0.00  0.00    +0.000 A 
ATOM     24  C   UNL     1      -7.167  14.094  16.714  0.00  0.00    +0.000 A 
ENDBRANCH  15  18
ENDBRANCH   5  15
BRANCH   6  25
ATOM     25  N   UNL     1      -5.649  13.024  21.860  0.00  0.00    +0.000 N 
ATOM     26  H   UNL     1      -5.708  14.042  21.958  0.00  0.00    +0.000 HD
ATOM     27  H   UNL     1      -6.574  12.623  21.790  0.00  0.00    +0.000 HD
ENDBRANCH   6  25
TORSDOF 3
ENDMDL
MODEL 9
REMARK VINA RESULT:      -6.6      8.216      9.682
REMARK  Name = 
REMARK  4 active torsions:
REMARK  status: ('A' for Active; 'I' for Inactive)
REMARK    1  A    between atoms: C_1  and  C_2
REMARK    2  A    between atoms: C_5  and  S_6
REMARK    3  A    between atoms: S_6  and  C_9
REMARK    4  A    between atoms: C_16  and  N_17
REMARK                            x       y       z     vdW  Elec       q    Type
REMARK                         _______ _______ _______ _____ _____    ______ ____
ROOT
ATOM      1  C   UNL     1      -3.456  13.953  22.878  0.00  0.00    +0.000 C 
ATOM      2  C   UNL     1      -3.074  13.225  21.637  0.00  0.00    +0.000 A 
ATOM      3  N   UNL     1      -1.890  12.715  21.393  0.00  0.00    +0.000 NA
ATOM      4  C   UNL     1      -1.868  12.043  20.172  0.00  0.00    +0.000 A 
ATOM      5  C   UNL     1      -0.784  11.314  19.616  0.00  0.00    +0.000 A 
ATOM      6  C   UNL     1      -0.937  10.674  18.352  0.00  0.00    +0.000 A 
ATOM      7  C   UNL     1      -2.148  10.824  17.606  0.00  0.00    +0.000 A 
ATOM      8  C   UNL     1      -2.365  10.276  16.313  0.00  0.00    +0.000 A 
ATOM      9  C   UNL     1      -3.573  10.429  15.620  0.00  0.00    +0.000 A 
ATOM     10  C   UNL     1      -4.610  11.130  16.196  0.00  0.00    +0.000 A 
ATOM     11  C   UNL     1      -4.450  11.689  17.458  0.00  0.00    +0.000 A 
ATOM     12  C   UNL     1      -3.228  11.549  18.164  0.00  0.00    +0.000 A 
ATOM     13  C   UNL     1      -3.067  12.129  19.454  0.00  0.00    +0.000 A 
ATOM     14  S   UNL     1      -4.218  13.028  20.391  0.00  0.00    +0.000 S 
ENDROOT
BRANCH   5  15
ATOM     15  S   UNL     1       0.768  11.247  20.525  0.00  0.00    +0.000 S 
ATOM     16  O   UNL     1       0.496  11.502  21.933  0.00  0.00    +0.000 OA
ATOM     17  O   UNL     1       1.460  10.017  20.189  0.00  0.00    +0.000 OA
BRANCH  15  18
ATOM     18  C   UNL     1       1.788  12.601  19.932  0.00  0.00    +0.000 A 
ATOM     19  C   UNL     1       2.028  12.742  18.562  0.00  0.00    +0.000 A 
ATOM     20  C   UNL     1       2.977  13.671  18.119  0.00  0.00    +0.000 A 
ATOM     21  C   UNL     1       3.639  14.482  19.043  0.00  0.00    +0.000 A 
ATOM     22 CL   UNL     1       4.914  15.509  18.517  0.00  0.00    +0.000 Cl
ATOM     23  C   UNL     1       3.308  14.425  20.397  0.00  0.00    +0.000 A 
ATOM     24  C   UNL     1       2.373  13.485  20.848  0.00  0.00    +0.000 A 
ENDBRANCH  15  18
ENDBRANCH   5  15
BRANCH   6  25
ATOM     25  N   UNL     1       0.099   9.876  17.820  0.00  0.00    +0.000 N 
ATOM     26  H   UNL     1      -0.172   9.445  16.931  0.00  0.00    +0.000 HD
ATOM     27  H   UNL     1       1.018  10.291  17.744  0.00  0.00    +0.000 HD
ENDBRANCH   6  25
TORSDOF 3
ENDMDL
