MODEL 1
REMARK VINA RESULT:      -6.8      0.000      0.000
REMARK  Name = 
REMARK  6 active torsions:
REMARK  status: ('A' for Active; 'I' for Inactive)
REMARK    1  A    between atoms: C_1  and  O_2
REMARK    2  A    between atoms: O_2  and  C_3
REMARK    3  A    between atoms: C_5  and  O_6
REMARK    4  A    between atoms: O_6  and  C_7
REMARK    5  A    between atoms: C_10  and  N_11
REMARK    6  A    between atoms: N_22  and  C_23
REMARK                            x       y       z     vdW  Elec       q    Type
REMARK                         _______ _______ _______ _____ _____    ______ ____
ROOT
ATOM      1  N   UNL     1       1.543   9.298  18.920  0.00  0.00    +0.000 N 
ATOM      2  C   UNL     1       2.637   9.095  18.001  0.00  0.00    +0.000 C 
ATOM      3  C   UNL     1       3.093   7.670  17.966  0.00  0.00    +0.000 A 
ATOM      4  C   UNL     1       3.914   7.235  16.928  0.00  0.00    +0.000 A 
ATOM      5  N   UNL     1       4.409   5.991  16.788  0.00  0.00    +0.000 NA
ATOM      6  C   UNL     1       4.068   5.175  17.798  0.00  0.00    +0.000 A 
ATOM      7  N   UNL     1       4.462   3.868  17.871  0.00  0.00    +0.000 N 
ATOM      8  C   UNL     1       3.997   3.306  19.026  0.00  0.00    +0.000 A 
ATOM      9  C   UNL     1       3.298   4.280  19.707  0.00  0.00    +0.000 A 
ATOM     10  C   UNL     1       3.290   5.473  18.918  0.00  0.00    +0.000 A 
ATOM     11  C   UNL     1       2.750   6.781  18.998  0.00  0.00    +0.000 A 
ATOM     12  N   UNL     1       1.904   7.259  20.038  0.00  0.00    +0.000 N 
ATOM     13  C   UNL     1       1.291   6.366  21.000  0.00  0.00    +0.000 C 
ATOM     14  C   UNL     1       1.421   8.562  20.082  0.00  0.00    +0.000 C 
ATOM     15  O   UNL     1       0.793   8.992  21.054  0.00  0.00    +0.000 OA
ATOM     16  H   UNL     1       5.023   3.417  17.164  0.00  0.00    +0.000 HD
ENDROOT
BRANCH   1  22
ATOM     17  C   UNL     1      -1.698  10.251  17.438  0.00  0.00    +0.000 A 
ATOM     18  C   UNL     1      -1.911  11.497  18.003  0.00  0.00    +0.000 A 
ATOM     19  C   UNL     1      -0.952  12.101  18.834  0.00  0.00    +0.000 A 
ATOM     20  C   UNL     1       0.265  11.444  19.091  0.00  0.00    +0.000 A 
ATOM     21 CL   UNL     1       1.541  12.182  19.998  0.00  0.00    +0.000 Cl
ATOM     22  C   UNL     1       0.447  10.145  18.581  0.00  0.00    +0.000 A 
ATOM     23  C   UNL     1      -0.526   9.572  17.738  0.00  0.00    +0.000 A 
BRANCH  17  25
ATOM     24  C   UNL     1      -2.856  10.289  15.376  0.00  0.00    +0.000 C 
ATOM     25  O   UNL     1      -2.536   9.595  16.577  0.00  0.00    +0.000 OA
ENDBRANCH  17  25
BRANCH  19  26
ATOM     26  O   UNL     1      -1.351  13.352  19.241  0.00  0.00    +0.000 OA
ATOM     27  C   UNL     1      -2.132  13.462  20.423  0.00  0.00    +0.000 C 
ENDBRANCH  19  26
ENDBRANCH   1  22
TORSDOF 3
ENDMDL
MODEL 2
REMARK VINA RESULT:      -6.4      3.128      7.471
REMARK  Name = 
REMARK  6 active torsions:
REMARK  status: ('A' for Active; 'I' for Inactive)
REMARK    1  A    between atoms: C_1  and  O_2
REMARK    2  A    between atoms: O_2  and  C_3
REMARK    3  A    between atoms: C_5  and  O_6
REMARK    4  A    between atoms: O_6  and  C_7
REMARK    5  A    between atoms: C_10  and  N_11
REMARK    6  A    between atoms: N_22  and  C_23
REMARK                            x       y       z     vdW  Elec       q    Type
REMARK                         _______ _______ _______ _____ _____    ______ ____
ROOT
ATOM      1  N   UNL     1       2.010   7.861  19.771  0.00  0.00    +0.000 N 
ATOM      2  C   UNL     1       2.102   8.216  21.168  0.00  0.00    +0.000 C 
ATOM      3  C   UNL     1       1.018   9.158  21.587  0.00  0.00    +0.000 A 
ATOM      4  C   UNL     1       0.766   9.360  22.942  0.00  0.00    +0.000 A 
ATOM      5  N   UNL     1      -0.162  10.191  23.452  0.00  0.00    +0.000 NA
ATOM      6  C   UNL     1      -0.829  10.874  22.508  0.00  0.00    +0.000 A 
ATOM      7  N   UNL     1      -1.813  11.778  22.793  0.00  0.00    +0.000 N 
ATOM      8  C   UNL     1      -2.278  12.340  21.638  0.00  0.00    +0.000 A 
ATOM      9  C   UNL     1      -1.568  11.785  20.594  0.00  0.00    +0.000 A 
ATOM     10  C   UNL     1      -0.666  10.809  21.123  0.00  0.00    +0.000 A 
ATOM     11  C   UNL     1       0.289   9.884  20.630  0.00  0.00    +0.000 A 
ATOM     12  N   UNL     1       0.568   9.646  19.254  0.00  0.00    +0.000 N 
ATOM     13  C   UNL     1      -0.290  10.146  18.200  0.00  0.00    +0.000 C 
ATOM     14  C   UNL     1       1.534   8.745  18.824  0.00  0.00    +0.000 C 
ATOM     15  O   UNL     1       1.849   8.645  17.634  0.00  0.00    +0.000 OA
ATOM     16  H   UNL     1      -2.121  11.988  23.732  0.00  0.00    +0.000 HD
ENDROOT
BRANCH   1  22
ATOM     17  C   UNL     1       1.504   4.214  19.547  0.00  0.00    +0.000 A 
ATOM     18  C   UNL     1       2.316   3.882  18.475  0.00  0.00    +0.000 A 
ATOM     19  C   UNL     1       3.121   4.841  17.837  0.00  0.00    +0.000 A 
ATOM     20  C   UNL     1       3.126   6.169  18.301  0.00  0.00    +0.000 A 
ATOM     21 CL   UNL     1       4.186   7.372  17.648  0.00  0.00    +0.000 Cl
ATOM     22  C   UNL     1       2.242   6.522  19.338  0.00  0.00    +0.000 A 
ATOM     23  C   UNL     1       1.459   5.535  19.967  0.00  0.00    +0.000 A 
BRANCH  17  25
ATOM     24  C   UNL     1       1.345   2.759  21.405  0.00  0.00    +0.000 C 
ATOM     25  O   UNL     1       0.723   3.354  20.272  0.00  0.00    +0.000 OA
ENDBRANCH  17  25
BRANCH  19  26
ATOM     26  O   UNL     1       3.877   4.282  16.835  0.00  0.00    +0.000 OA
ATOM     27  C   UNL     1       5.252   4.024  17.089  0.00  0.00    +0.000 C 
ENDBRANCH  19  26
ENDBRANCH   1  22
TORSDOF 3
ENDMDL
MODEL 3
REMARK VINA RESULT:      -6.4      1.020      1.035
REMARK  Name = 
REMARK  6 active torsions:
REMARK  status: ('A' for Active; 'I' for Inactive)
REMARK    1  A    between atoms: C_1  and  O_2
REMARK    2  A    between atoms: O_2  and  C_3
REMARK    3  A    between atoms: C_5  and  O_6
REMARK    4  A    between atoms: O_6  and  C_7
REMARK    5  A    between atoms: C_10  and  N_11
REMARK    6  A    between atoms: N_22  and  C_23
REMARK                            x       y       z     vdW  Elec       q    Type
REMARK                         _______ _______ _______ _____ _____    ______ ____
ROOT
ATOM      1  N   UNL     1       1.501   9.679  19.000  0.00  0.00    +0.000 N 
ATOM      2  C   UNL     1       2.528   9.221  18.095  0.00  0.00    +0.000 C 
ATOM      3  C   UNL     1       2.804   7.758  18.244  0.00  0.00    +0.000 A 
ATOM      4  C   UNL     1       3.527   7.089  17.259  0.00  0.00    +0.000 A 
ATOM      5  N   UNL     1       3.861   5.785  17.279  0.00  0.00    +0.000 NA
ATOM      6  C   UNL     1       3.460   5.160  18.397  0.00  0.00    +0.000 A 
ATOM      7  N   UNL     1       3.693   3.835  18.638  0.00  0.00    +0.000 N 
ATOM      8  C   UNL     1       3.205   3.492  19.867  0.00  0.00    +0.000 A 
ATOM      9  C   UNL     1       2.655   4.628  20.424  0.00  0.00    +0.000 A 
ATOM     10  C   UNL     1       2.765   5.698  19.481  0.00  0.00    +0.000 A 
ATOM     11  C   UNL     1       2.392   7.063  19.393  0.00  0.00    +0.000 A 
ATOM     12  N   UNL     1       1.649   7.777  20.376  0.00  0.00    +0.000 N 
ATOM     13  C   UNL     1       0.967   7.103  21.461  0.00  0.00    +0.000 C 
ATOM     14  C   UNL     1       1.331   9.124  20.252  0.00  0.00    +0.000 C 
ATOM     15  O   UNL     1       0.796   9.755  21.169  0.00  0.00    +0.000 OA
ATOM     16  H   UNL     1       4.169   3.227  17.988  0.00  0.00    +0.000 HD
ENDROOT
BRANCH   1  22
ATOM     17  C   UNL     1      -1.780  10.831  17.766  0.00  0.00    +0.000 A 
ATOM     18  C   UNL     1      -1.680  12.202  17.935  0.00  0.00    +0.000 A 
ATOM     19  C   UNL     1      -0.494  12.801  18.391  0.00  0.00    +0.000 A 
ATOM     20  C   UNL     1       0.632  12.004  18.667  0.00  0.00    +0.000 A 
ATOM     21 CL   UNL     1       2.162  12.684  19.108  0.00  0.00    +0.000 Cl
ATOM     22  C   UNL     1       0.505  10.606  18.570  0.00  0.00    +0.000 A 
ATOM     23  C   UNL     1      -0.693  10.035  18.095  0.00  0.00    +0.000 A 
BRANCH  17  25
ATOM     24  C   UNL     1      -4.135  10.609  17.729  0.00  0.00    +0.000 C 
ATOM     25  O   UNL     1      -2.864  10.149  17.281  0.00  0.00    +0.000 OA
ENDBRANCH  17  25
BRANCH  19  26
ATOM     26  O   UNL     1      -0.604  14.171  18.438  0.00  0.00    +0.000 OA
ATOM     27  C   UNL     1      -0.675  14.801  19.709  0.00  0.00    +0.000 C 
ENDBRANCH  19  26
ENDBRANCH   1  22
TORSDOF 3
ENDMDL
MODEL 4
REMARK VINA RESULT:      -6.3      4.097      8.658
REMARK  Name = 
REMARK  6 active torsions:
REMARK  status: ('A' for Active; 'I' for Inactive)
REMARK    1  A    between atoms: C_1  and  O_2
REMARK    2  A    between atoms: O_2  and  C_3
REMARK    3  A    between atoms: C_5  and  O_6
REMARK    4  A    between atoms: O_6  and  C_7
REMARK    5  A    between atoms: C_10  and  N_11
REMARK    6  A    between atoms: N_22  and  C_23
REMARK                            x       y       z     vdW  Elec       q    Type
REMARK                         _______ _______ _______ _____ _____    ______ ____
ROOT
ATOM      1  N   UNL     1      -0.570  11.668  21.871  0.00  0.00    +0.000 N 
ATOM      2  C   UNL     1      -1.592  11.286  22.817  0.00  0.00    +0.000 C 
ATOM      3  C   UNL     1      -2.379  12.460  23.307  0.00  0.00    +0.000 A 
ATOM      4  C   UNL     1      -3.586  12.252  23.971  0.00  0.00    +0.000 A 
ATOM      5  N   UNL     1      -4.379  13.215  24.478  0.00  0.00    +0.000 NA
ATOM      6  C   UNL     1      -3.870  14.447  24.323  0.00  0.00    +0.000 A 
ATOM      7  N   UNL     1      -4.500  15.577  24.764  0.00  0.00    +0.000 N 
ATOM      8  C   UNL     1      -3.727  16.673  24.501  0.00  0.00    +0.000 A 
ATOM      9  C   UNL     1      -2.577  16.228  23.884  0.00  0.00    +0.000 A 
ATOM     10  C   UNL     1      -2.666  14.811  23.717  0.00  0.00    +0.000 A 
ATOM     11  C   UNL     1      -1.888  13.768  23.154  0.00  0.00    +0.000 A 
ATOM     12  N   UNL     1      -0.655  13.943  22.464  0.00  0.00    +0.000 N 
ATOM     13  C   UNL     1      -0.195  15.247  22.036  0.00  0.00    +0.000 C 
ATOM     14  C   UNL     1       0.082  12.882  21.953  0.00  0.00    +0.000 C 
ATOM     15  O   UNL     1       1.207  13.043  21.469  0.00  0.00    +0.000 OA
ATOM     16  H   UNL     1      -5.398  15.570  25.224  0.00  0.00    +0.000 HD
ENDROOT
BRANCH   1  22
ATOM     17  C   UNL     1      -0.822  10.610  18.346  0.00  0.00    +0.000 A 
ATOM     18  C   UNL     1       0.197   9.677  18.257  0.00  0.00    +0.000 A 
ATOM     19  C   UNL     1       0.955   9.307  19.382  0.00  0.00    +0.000 A 
ATOM     20  C   UNL     1       0.668   9.875  20.637  0.00  0.00    +0.000 A 
ATOM     21 CL   UNL     1       1.473   9.374  22.085  0.00  0.00    +0.000 Cl
ATOM     22  C   UNL     1      -0.315  10.880  20.709  0.00  0.00    +0.000 A 
ATOM     23  C   UNL     1      -1.067  11.219  19.568  0.00  0.00    +0.000 A 
BRANCH  17  25
ATOM     24  C   UNL     1      -2.928  11.494  17.732  0.00  0.00    +0.000 C 
ATOM     25  O   UNL     1      -1.653  11.004  17.331  0.00  0.00    +0.000 OA
ENDBRANCH  17  25
BRANCH  19  26
ATOM     26  O   UNL     1       1.876   8.334  19.074  0.00  0.00    +0.000 OA
ATOM     27  C   UNL     1       2.571   8.428  17.838  0.00  0.00    +0.000 C 
ENDBRANCH  19  26
ENDBRANCH   1  22
TORSDOF 3
ENDMDL
MODEL 5
REMARK VINA RESULT:      -6.2      3.491      7.615
REMARK  Name = 
REMARK  6 active torsions:
REMARK  status: ('A' for Active; 'I' for Inactive)
REMARK    1  A    between atoms: C_1  and  O_2
REMARK    2  A    between atoms: O_2  and  C_3
REMARK    3  A    between atoms: C_5  and  O_6
REMARK    4  A    between atoms: O_6  and  C_7
REMARK    5  A    between atoms: C_10  and  N_11
REMARK    6  A    between atoms: N_22  and  C_23
REMARK                            x       y       z     vdW  Elec       q    Type
REMARK                         _______ _______ _______ _____ _____    ______ ____
ROOT
ATOM      1  N   UNL     1       2.238   6.858  18.850  0.00  0.00    +0.000 N 
ATOM      2  C   UNL     1       2.099   7.884  17.844  0.00  0.00    +0.000 C 
ATOM      3  C   UNL     1       1.878   9.238  18.440  0.00  0.00    +0.000 A 
ATOM      4  C   UNL     1       2.031  10.373  17.647  0.00  0.00    +0.000 A 
ATOM      5  N   UNL     1       1.844  11.644  18.051  0.00  0.00    +0.000 NA
ATOM      6  C   UNL     1       1.437  11.732  19.328  0.00  0.00    +0.000 A 
ATOM      7  N   UNL     1       1.179  12.921  19.950  0.00  0.00    +0.000 N 
ATOM      8  C   UNL     1       0.747  12.695  21.226  0.00  0.00    +0.000 A 
ATOM      9  C   UNL     1       0.723  11.329  21.417  0.00  0.00    +0.000 A 
ATOM     10  C   UNL     1       1.205  10.693  20.230  0.00  0.00    +0.000 A 
ATOM     11  C   UNL     1       1.463   9.375  19.775  0.00  0.00    +0.000 A 
ATOM     12  N   UNL     1       1.324   8.194  20.557  0.00  0.00    +0.000 N 
ATOM     13  C   UNL     1       1.151   8.242  21.994  0.00  0.00    +0.000 C 
ATOM     14  C   UNL     1       1.566   6.921  20.054  0.00  0.00    +0.000 C 
ATOM     15  O   UNL     1       1.320   5.904  20.708  0.00  0.00    +0.000 OA
ATOM     16  H   UNL     1       1.290  13.819  19.502  0.00  0.00    +0.000 HD
ENDROOT
BRANCH   1  22
ATOM     17  C   UNL     1       5.476   5.145  19.294  0.00  0.00    +0.000 A 
ATOM     18  C   UNL     1       5.191   3.876  18.818  0.00  0.00    +0.000 A 
ATOM     19  C   UNL     1       3.940   3.564  18.261  0.00  0.00    +0.000 A 
ATOM     20  C   UNL     1       2.950   4.559  18.159  0.00  0.00    +0.000 A 
ATOM     21 CL   UNL     1       1.436   4.281  17.370  0.00  0.00    +0.000 Cl
ATOM     22  C   UNL     1       3.213   5.826  18.715  0.00  0.00    +0.000 A 
ATOM     23  C   UNL     1       4.483   6.113  19.253  0.00  0.00    +0.000 A 
BRANCH  17  25
ATOM     24  C   UNL     1       7.651   5.960  18.849  0.00  0.00    +0.000 C 
ATOM     25  O   UNL     1       6.672   5.572  19.806  0.00  0.00    +0.000 OA
ENDBRANCH  17  25
BRANCH  19  26
ATOM     26  O   UNL     1       3.896   2.266  17.811  0.00  0.00    +0.000 OA
ATOM     27  C   UNL     1       3.616   1.234  18.748  0.00  0.00    +0.000 C 
ENDBRANCH  19  26
ENDBRANCH   1  22
TORSDOF 3
ENDMDL
MODEL 6
REMARK VINA RESULT:      -6.2      3.630      6.474
REMARK  Name = 
REMARK  6 active torsions:
REMARK  status: ('A' for Active; 'I' for Inactive)
REMARK    1  A    between atoms: C_1  and  O_2
REMARK    2  A    between atoms: O_2  and  C_3
REMARK    3  A    between atoms: C_5  and  O_6
REMARK    4  A    between atoms: O_6  and  C_7
REMARK    5  A    between atoms: C_10  and  N_11
REMARK    6  A    between atoms: N_22  and  C_23
REMARK                            x       y       z     vdW  Elec       q    Type
REMARK                         _______ _______ _______ _____ _____    ______ ____
ROOT
ATOM      1  N   UNL     1      -1.558  12.228  22.174  0.00  0.00    +0.000 N 
ATOM      2  C   UNL     1      -1.046  10.989  22.711  0.00  0.00    +0.000 C 
ATOM      3  C   UNL     1      -0.185  10.258  21.732  0.00  0.00    +0.000 A 
ATOM      4  C   UNL     1       0.633   9.220  22.173  0.00  0.00    +0.000 A 
ATOM      5  N   UNL     1       1.439   8.471  21.397  0.00  0.00    +0.000 NA
ATOM      6  C   UNL     1       1.356   8.790  20.096  0.00  0.00    +0.000 A 
ATOM      7  N   UNL     1       2.080   8.159  19.123  0.00  0.00    +0.000 N 
ATOM      8  C   UNL     1       1.757   8.670  17.898  0.00  0.00    +0.000 A 
ATOM      9  C   UNL     1       0.802   9.645  18.095  0.00  0.00    +0.000 A 
ATOM     10  C   UNL     1       0.563   9.772  19.500  0.00  0.00    +0.000 A 
ATOM     11  C   UNL     1      -0.232  10.569  20.362  0.00  0.00    +0.000 A 
ATOM     12  N   UNL     1      -1.073  11.640  19.948  0.00  0.00    +0.000 N 
ATOM     13  C   UNL     1      -1.002  12.199  18.614  0.00  0.00    +0.000 C 
ATOM     14  C   UNL     1      -1.853  12.374  20.833  0.00  0.00    +0.000 C 
ATOM     15  O   UNL     1      -2.669  13.214  20.442  0.00  0.00    +0.000 OA
ATOM     16  H   UNL     1       2.738   7.418  19.313  0.00  0.00    +0.000 HD
ENDROOT
BRANCH   1  22
ATOM     17  C   UNL     1      -0.497  15.505  23.495  0.00  0.00    +0.000 A 
ATOM     18  C   UNL     1      -1.612  15.891  24.220  0.00  0.00    +0.000 A 
ATOM     19  C   UNL     1      -2.726  15.046  24.363  0.00  0.00    +0.000 A 
ATOM     20  C   UNL     1      -2.713  13.767  23.777  0.00  0.00    +0.000 A 
ATOM     21 CL   UNL     1      -3.992  12.626  24.017  0.00  0.00    +0.000 Cl
ATOM     22  C   UNL     1      -1.613  13.407  22.975  0.00  0.00    +0.000 A 
ATOM     23  C   UNL     1      -0.506  14.271  22.863  0.00  0.00    +0.000 A 
BRANCH  17  25
ATOM     24  C   UNL     1       1.537  15.762  22.316  0.00  0.00    +0.000 C 
ATOM     25  O   UNL     1       0.657  16.224  23.335  0.00  0.00    +0.000 OA
ENDBRANCH  17  25
BRANCH  19  26
ATOM     26  O   UNL     1      -3.692  15.611  25.161  0.00  0.00    +0.000 OA
ATOM     27  C   UNL     1      -4.701  16.399  24.545  0.00  0.00    +0.000 C 
ENDBRANCH  19  26
ENDBRANCH   1  22
TORSDOF 3
ENDMDL
MODEL 7
REMARK VINA RESULT:      -6.1      3.279      7.309
REMARK  Name = 
REMARK  6 active torsions:
REMARK  status: ('A' for Active; 'I' for Inactive)
REMARK    1  A    between atoms: C_1  and  O_2
REMARK    2  A    between atoms: O_2  and  C_3
REMARK    3  A    between atoms: C_5  and  O_6
REMARK    4  A    between atoms: O_6  and  C_7
REMARK    5  A    between atoms: C_10  and  N_11
REMARK    6  A    between atoms: N_22  and  C_23
REMARK                            x       y       z     vdW  Elec       q    Type
REMARK                         _______ _______ _______ _____ _____    ______ ____
ROOT
ATOM      1  N   UNL     1       2.548   7.374  19.077  0.00  0.00    +0.000 N 
ATOM      2  C   UNL     1       2.532   7.557  20.509  0.00  0.00    +0.000 C 
ATOM      3  C   UNL     1       1.459   8.501  20.949  0.00  0.00    +0.000 A 
ATOM      4  C   UNL     1       1.098   8.557  22.294  0.00  0.00    +0.000 A 
ATOM      5  N   UNL     1       0.167   9.371  22.824  0.00  0.00    +0.000 NA
ATOM      6  C   UNL     1      -0.384  10.196  21.918  0.00  0.00    +0.000 A 
ATOM      7  N   UNL     1      -1.348  11.113  22.230  0.00  0.00    +0.000 N 
ATOM      8  C   UNL     1      -1.685  11.830  21.117  0.00  0.00    +0.000 A 
ATOM      9  C   UNL     1      -0.912  11.363  20.075  0.00  0.00    +0.000 A 
ATOM     10  C   UNL     1      -0.104  10.284  20.554  0.00  0.00    +0.000 A 
ATOM     11  C   UNL     1       0.849   9.373  20.031  0.00  0.00    +0.000 A 
ATOM     12  N   UNL     1       1.237   9.283  18.665  0.00  0.00    +0.000 N 
ATOM     13  C   UNL     1       0.497   9.949  17.613  0.00  0.00    +0.000 C 
ATOM     14  C   UNL     1       2.196   8.387  18.208  0.00  0.00    +0.000 C 
ATOM     15  O   UNL     1       2.608   8.410  17.045  0.00  0.00    +0.000 OA
ATOM     16  H   UNL     1      -1.727  11.227  23.158  0.00  0.00    +0.000 HD
ENDROOT
BRANCH   1  22
ATOM     17  C   UNL     1       1.690   3.980  17.912  0.00  0.00    +0.000 A 
ATOM     18  C   UNL     1       2.832   3.624  17.215  0.00  0.00    +0.000 A 
ATOM     19  C   UNL     1       3.958   4.463  17.171  0.00  0.00    +0.000 A 
ATOM     20  C   UNL     1       3.946   5.688  17.864  0.00  0.00    +0.000 A 
ATOM     21 CL   UNL     1       5.339   6.711  17.959  0.00  0.00    +0.000 Cl
ATOM     22  C   UNL     1       2.757   6.084  18.506  0.00  0.00    +0.000 A 
ATOM     23  C   UNL     1       1.650   5.214  18.544  0.00  0.00    +0.000 A 
BRANCH  17  25
ATOM     24  C   UNL     1       0.664   2.135  18.979  0.00  0.00    +0.000 C 
ATOM     25  O   UNL     1       0.561   3.220  18.064  0.00  0.00    +0.000 OA
ENDBRANCH  17  25
BRANCH  19  26
ATOM     26  O   UNL     1       4.990   3.890  16.466  0.00  0.00    +0.000 OA
ATOM     27  C   UNL     1       5.339   4.446  15.206  0.00  0.00    +0.000 C 
ENDBRANCH  19  26
ENDBRANCH   1  22
TORSDOF 3
ENDMDL
MODEL 8
REMARK VINA RESULT:      -6.0      3.907      7.542
REMARK  Name = 
REMARK  6 active torsions:
REMARK  status: ('A' for Active; 'I' for Inactive)
REMARK    1  A    between atoms: C_1  and  O_2
REMARK    2  A    between atoms: O_2  and  C_3
REMARK    3  A    between atoms: C_5  and  O_6
REMARK    4  A    between atoms: O_6  and  C_7
REMARK    5  A    between atoms: C_10  and  N_11
REMARK    6  A    between atoms: N_22  and  C_23
REMARK                            x       y       z     vdW  Elec       q    Type
REMARK                         _______ _______ _______ _____ _____    ______ ____
ROOT
ATOM      1  N   UNL     1       3.541   6.137  17.523  0.00  0.00    +0.000 N 
ATOM      2  C   UNL     1       3.166   7.455  17.068  0.00  0.00    +0.000 C 
ATOM      3  C   UNL     1       2.455   8.239  18.126  0.00  0.00    +0.000 A 
ATOM      4  C   UNL     1       2.298   9.615  17.975  0.00  0.00    +0.000 A 
ATOM      5  N   UNL     1       1.665  10.432  18.838  0.00  0.00    +0.000 NA
ATOM      6  C   UNL     1       1.135   9.778  19.884  0.00  0.00    +0.000 A 
ATOM      7  N   UNL     1       0.442  10.403  20.883  0.00  0.00    +0.000 N 
ATOM      8  C   UNL     1      -0.008   9.479  21.784  0.00  0.00    +0.000 A 
ATOM      9  C   UNL     1       0.402   8.239  21.344  0.00  0.00    +0.000 A 
ATOM     10  C   UNL     1       1.176   8.409  20.153  0.00  0.00    +0.000 A 
ATOM     11  C   UNL     1       1.895   7.595  19.242  0.00  0.00    +0.000 A 
ATOM     12  N   UNL     1       2.082   6.189  19.367  0.00  0.00    +0.000 N 
ATOM     13  C   UNL     1       1.770   5.480  20.591  0.00  0.00    +0.000 C 
ATOM     14  C   UNL     1       2.776   5.433  18.431  0.00  0.00    +0.000 C 
ATOM     15  O   UNL     1       2.820   4.200  18.491  0.00  0.00    +0.000 OA
ATOM     16  H   UNL     1       0.292  11.400  20.916  0.00  0.00    +0.000 HD
ENDROOT
BRANCH   1  22
ATOM     17  C   UNL     1       6.329   5.062  15.358  0.00  0.00    +0.000 A 
ATOM     18  C   UNL     1       7.317   4.783  16.287  0.00  0.00    +0.000 A 
ATOM     19  C   UNL     1       7.071   4.866  17.669  0.00  0.00    +0.000 A 
ATOM     20  C   UNL     1       5.791   5.220  18.132  0.00  0.00    +0.000 A 
ATOM     21 CL   UNL     1       5.382   5.217  19.813  0.00  0.00    +0.000 Cl
ATOM     22  C   UNL     1       4.811   5.580  17.187  0.00  0.00    +0.000 A 
ATOM     23  C   UNL     1       5.083   5.472  15.809  0.00  0.00    +0.000 A 
BRANCH  17  25
ATOM     24  C   UNL     1       6.045   3.720  13.431  0.00  0.00    +0.000 C 
ATOM     25  O   UNL     1       6.443   4.964  13.997  0.00  0.00    +0.000 OA
ENDBRANCH  17  25
BRANCH  19  26
ATOM     26  O   UNL     1       8.175   4.500  18.402  0.00  0.00    +0.000 OA
ATOM     27  C   UNL     1       8.509   5.267  19.550  0.00  0.00    +0.000 C 
ENDBRANCH  19  26
ENDBRANCH   1  22
TORSDOF 3
ENDMDL
MODEL 9
REMARK VINA RESULT:      -6.0      3.205      7.403
REMARK  Name = 
REMARK  6 active torsions:
REMARK  status: ('A' for Active; 'I' for Inactive)
REMARK    1  A    between atoms: C_1  and  O_2
REMARK    2  A    between atoms: O_2  and  C_3
REMARK    3  A    between atoms: C_5  and  O_6
REMARK    4  A    between atoms: O_6  and  C_7
REMARK    5  A    between atoms: C_10  and  N_11
REMARK    6  A    between atoms: N_22  and  C_23
REMARK                            x       y       z     vdW  Elec       q    Type
REMARK                         _______ _______ _______ _____ _____    ______ ____
ROOT
ATOM      1  N   UNL     1       2.185   8.032  19.506  0.00  0.00    +0.000 N 
ATOM      2  C   UNL     1       2.276   8.287  20.924  0.00  0.00    +0.000 C 
ATOM      3  C   UNL     1       1.155   9.145  21.419  0.00  0.00    +0.000 A 
ATOM      4  C   UNL     1       0.909   9.235  22.787  0.00  0.00    +0.000 A 
ATOM      5  N   UNL     1      -0.050   9.983  23.365  0.00  0.00    +0.000 NA
ATOM      6  C   UNL     1      -0.757  10.702  22.479  0.00  0.00    +0.000 A 
ATOM      7  N   UNL     1      -1.778  11.538  22.837  0.00  0.00    +0.000 N 
ATOM      8  C   UNL     1      -2.280  12.161  21.730  0.00  0.00    +0.000 A 
ATOM      9  C   UNL     1      -1.557  11.717  20.643  0.00  0.00    +0.000 A 
ATOM     10  C   UNL     1      -0.607  10.747  21.092  0.00  0.00    +0.000 A 
ATOM     11  C   UNL     1       0.384   9.905  20.524  0.00  0.00    +0.000 A 
ATOM     12  N   UNL     1       0.659   9.782  19.133  0.00  0.00    +0.000 N 
ATOM     13  C   UNL     1      -0.232  10.318  18.125  0.00  0.00    +0.000 C 
ATOM     14  C   UNL     1       1.660   8.960  18.630  0.00  0.00    +0.000 C 
ATOM     15  O   UNL     1       1.965   8.962  17.433  0.00  0.00    +0.000 OA
ATOM     16  H   UNL     1      -2.084  11.663  23.790  0.00  0.00    +0.000 HD
ENDROOT
BRANCH   1  22
ATOM     17  C   UNL     1       3.867   5.503  17.410  0.00  0.00    +0.000 A 
ATOM     18  C   UNL     1       3.398   4.322  17.962  0.00  0.00    +0.000 A 
ATOM     19  C   UNL     1       2.447   4.321  18.997  0.00  0.00    +0.000 A 
ATOM     20  C   UNL     1       1.937   5.540  19.479  0.00  0.00    +0.000 A 
ATOM     21 CL   UNL     1       0.673   5.611  20.660  0.00  0.00    +0.000 Cl
ATOM     22  C   UNL     1       2.472   6.739  18.973  0.00  0.00    +0.000 A 
ATOM     23  C   UNL     1       3.414   6.708  17.926  0.00  0.00    +0.000 A 
BRANCH  17  25
ATOM     24  C   UNL     1       5.294   4.399  15.881  0.00  0.00    +0.000 C 
ATOM     25  O   UNL     1       4.749   5.620  16.370  0.00  0.00    +0.000 OA
ENDBRANCH  17  25
BRANCH  19  26
ATOM     26  O   UNL     1       2.091   3.043  19.354  0.00  0.00    +0.000 OA
ATOM     27  C   UNL     1       0.937   2.469  18.754  0.00  0.00    +0.000 C 
ENDBRANCH  19  26
ENDBRANCH   1  22
TORSDOF 3
ENDMDL
