MODEL 1
REMARK VINA RESULT:      -7.5      0.000      0.000
REMARK  Name = 
REMARK  12 active torsions:
REMARK  status: ('A' for Active; 'I' for Inactive)
REMARK    1  A    between atoms: C_1  and  C_2
REMARK    2  A    between atoms: C_2  and  O_3
REMARK    3  A    between atoms: O_3  and  C_4
REMARK    4  A    between atoms: C_4  and  C_6
REMARK    5  A    between atoms: C_9  and  N_10
REMARK    6  A    between atoms: C_11  and  C_13
REMARK    7  A    between atoms: C_13  and  N_14
REMARK    8  A    between atoms: C_18  and  C_19
REMARK    9  A    between atoms: C_21  and  C_22
REMARK   10  A    between atoms: N_24  and  C_25
REMARK   11  A    between atoms: C_28  and  C_29
REMARK   12  A    between atoms: C_29  and  C_30
REMARK                            x       y       z     vdW  Elec       q    Type
REMARK                         _______ _______ _______ _____ _____    ______ ____
ROOT
ATOM      1  N   UNL     1      -3.026  12.150  19.422  0.00  0.00    +0.000 N 
ATOM      2  C   UNL     1      -3.366  11.473  18.227  0.00  0.00    +0.000 A 
ATOM      3  O   UNL     1      -2.549  10.838  17.559  0.00  0.00    +0.000 OA
ATOM      4  C   UNL     1      -4.773  11.544  17.708  0.00  0.00    +0.000 A 
ATOM      5  C   UNL     1      -5.739  12.257  18.304  0.00  0.00    +0.000 A 
ATOM      6  C   UNL     1      -7.131  12.364  17.766  0.00  0.00    +0.000 C 
ATOM      7  C   UNL     1      -5.407  13.017  19.458  0.00  0.00    +0.000 A 
ATOM      8  C   UNL     1      -6.146  13.924  20.245  0.00  0.00    +0.000 A 
ATOM      9  C   UNL     1      -7.578  14.330  20.304  0.00  0.00    +0.000 C 
ATOM     10  N   UNL     1      -5.320  14.542  21.078  0.00  0.00    +0.000 NA
ATOM     11  N   UNL     1      -4.157  13.834  21.060  0.00  0.00    +0.000 N 
ATOM     12  C   UNL     1      -4.103  12.949  19.969  0.00  0.00    +0.000 A 
ENDROOT
BRANCH  11  13
ATOM     13  C   UNL     1      -3.387  13.945  22.239  0.00  0.00    +0.000 A 
ATOM     14  C   UNL     1      -3.940  13.622  23.473  0.00  0.00    +0.000 A 
ATOM     15  C   UNL     1      -3.307  14.023  24.638  0.00  0.00    +0.000 A 
ATOM     16  C   UNL     1      -2.133  14.800  24.588  0.00  0.00    +0.000 A 
ATOM     17  C   UNL     1      -1.544  15.067  23.357  0.00  0.00    +0.000 A 
ATOM     18  C   UNL     1      -2.149  14.618  22.185  0.00  0.00    +0.000 A 
BRANCH  16  19
ATOM     19  C   UNL     1      -1.680  15.443  25.872  0.00  0.00    +0.000 C 
ATOM     20  C   UNL     1      -1.663  16.961  25.886  0.00  0.00    +0.000 C 
ENDBRANCH  16  19
ENDBRANCH  11  13
BRANCH   1  21
ATOM     21  C   UNL     1      -1.540  12.330  19.638  0.00  0.00    +0.000 C 
BRANCH  21  23
ATOM     22  N   UNL     1       0.004  10.348  18.816  0.00  0.00    +0.000 N 
ATOM     23  C   UNL     1      -0.242  11.363  19.743  0.00  0.00    +0.000 C 
ATOM     24  O   UNL     1       0.561  11.605  20.662  0.00  0.00    +0.000 OA
ATOM     25  H   UNL     1      -0.747  10.119  18.175  0.00  0.00    +0.000 HD
BRANCH  22  29
ATOM     26  C   UNL     1       2.880   7.120  18.868  0.00  0.00    +0.000 A 
ATOM     27  C   UNL     1       2.828   8.073  17.844  0.00  0.00    +0.000 A 
ATOM     28  C   UNL     1       1.952   9.186  17.899  0.00  0.00    +0.000 A 
ATOM     29  C   UNL     1       1.054   9.343  18.957  0.00  0.00    +0.000 A 
ATOM     30  C   UNL     1       1.225   8.483  20.058  0.00  0.00    +0.000 A 
ATOM     31  C   UNL     1       2.132   7.381  20.023  0.00  0.00    +0.000 A 
BRANCH  26  32
ATOM     32  C   UNL     1       3.703   5.875  18.634  0.00  0.00    +0.000 C 
ATOM     33  O   UNL     1       4.569   5.531  19.431  0.00  0.00    +0.000 OA
BRANCH  32  34
ATOM     34  O   UNL     1       3.446   5.255  17.455  0.00  0.00    +0.000 OA
BRANCH  34  36
ATOM     35  C   UNL     1       1.450   3.907  17.984  0.00  0.00    +0.000 C 
ATOM     36  C   UNL     1       2.912   3.912  17.550  0.00  0.00    +0.000 C 
ENDBRANCH  34  36
ENDBRANCH  32  34
ENDBRANCH  26  32
ENDBRANCH  22  29
ENDBRANCH  21  23
ENDBRANCH   1  21
TORSDOF 8
ENDMDL
MODEL 2
REMARK VINA RESULT:      -7.5      3.717     11.799
REMARK  Name = 
REMARK  12 active torsions:
REMARK  status: ('A' for Active; 'I' for Inactive)
REMARK    1  A    between atoms: C_1  and  C_2
REMARK    2  A    between atoms: C_2  and  O_3
REMARK    3  A    between atoms: O_3  and  C_4
REMARK    4  A    between atoms: C_4  and  C_6
REMARK    5  A    between atoms: C_9  and  N_10
REMARK    6  A    between atoms: C_11  and  C_13
REMARK    7  A    between atoms: C_13  and  N_14
REMARK    8  A    between atoms: C_18  and  C_19
REMARK    9  A    between atoms: C_21  and  C_22
REMARK   10  A    between atoms: N_24  and  C_25
REMARK   11  A    between atoms: C_28  and  C_29
REMARK   12  A    between atoms: C_29  and  C_30
REMARK                            x       y       z     vdW  Elec       q    Type
REMARK                         _______ _______ _______ _____ _____    ______ ____
ROOT
ATOM      1  N   UNL     1       2.703   5.674  19.148  0.00  0.00    +0.000 N 
ATOM      2  C   UNL     1       1.665   5.662  20.109  0.00  0.00    +0.000 A 
ATOM      3  O   UNL     1       0.876   6.596  20.256  0.00  0.00    +0.000 OA
ATOM      4  C   UNL     1       1.516   4.483  21.027  0.00  0.00    +0.000 A 
ATOM      5  C   UNL     1       2.351   3.435  21.014  0.00  0.00    +0.000 A 
ATOM      6  C   UNL     1       2.231   2.278  21.957  0.00  0.00    +0.000 C 
ATOM      7  C   UNL     1       3.454   3.457  20.120  0.00  0.00    +0.000 A 
ATOM      8  C   UNL     1       4.542   2.580  19.928  0.00  0.00    +0.000 A 
ATOM      9  C   UNL     1       4.896   1.227  20.442  0.00  0.00    +0.000 C 
ATOM     10  N   UNL     1       5.424   3.159  19.125  0.00  0.00    +0.000 NA
ATOM     11  N   UNL     1       4.789   4.223  18.560  0.00  0.00    +0.000 N 
ATOM     12  C   UNL     1       3.600   4.540  19.241  0.00  0.00    +0.000 A 
ENDROOT
BRANCH  11  13
ATOM     13  C   UNL     1       5.302   4.610  17.303  0.00  0.00    +0.000 A 
ATOM     14  C   UNL     1       4.495   4.566  16.171  0.00  0.00    +0.000 A 
ATOM     15  C   UNL     1       5.069   4.639  14.913  0.00  0.00    +0.000 A 
ATOM     16  C   UNL     1       6.469   4.705  14.763  0.00  0.00    +0.000 A 
ATOM     17  C   UNL     1       7.271   4.815  15.893  0.00  0.00    +0.000 A 
ATOM     18  C   UNL     1       6.692   4.798  17.161  0.00  0.00    +0.000 A 
BRANCH  16  19
ATOM     19  C   UNL     1       7.023   4.478  13.382  0.00  0.00    +0.000 C 
ATOM     20  C   UNL     1       6.256   3.503  12.508  0.00  0.00    +0.000 C 
ENDBRANCH  16  19
ENDBRANCH  11  13
BRANCH   1  21
ATOM     21  C   UNL     1       2.995   7.036  18.557  0.00  0.00    +0.000 C 
BRANCH  21  23
ATOM     22  N   UNL     1       1.658   9.108  19.510  0.00  0.00    +0.000 N 
ATOM     23  C   UNL     1       2.206   8.445  18.410  0.00  0.00    +0.000 C 
ATOM     24  O   UNL     1       2.161   8.941  17.270  0.00  0.00    +0.000 OA
ATOM     25  H   UNL     1       1.614   8.593  20.382  0.00  0.00    +0.000 HD
BRANCH  22  29
ATOM     26  C   UNL     1      -0.797  12.661  19.717  0.00  0.00    +0.000 A 
ATOM     27  C   UNL     1       0.602  12.705  19.715  0.00  0.00    +0.000 A 
ATOM     28  C   UNL     1       1.389  11.540  19.537  0.00  0.00    +0.000 A 
ATOM     29  C   UNL     1       0.794  10.282  19.416  0.00  0.00    +0.000 A 
ATOM     30  C   UNL     1      -0.603  10.262  19.249  0.00  0.00    +0.000 A 
ATOM     31  C   UNL     1      -1.399  11.439  19.392  0.00  0.00    +0.000 A 
BRANCH  26  32
ATOM     32  C   UNL     1      -1.543  13.916  20.102  0.00  0.00    +0.000 C 
ATOM     33  O   UNL     1      -1.085  15.026  19.852  0.00  0.00    +0.000 OA
BRANCH  32  34
ATOM     34  O   UNL     1      -2.685  13.690  20.799  0.00  0.00    +0.000 OA
BRANCH  34  36
ATOM     35  C   UNL     1      -2.787  12.309  22.840  0.00  0.00    +0.000 C 
ATOM     36  C   UNL     1      -2.555  13.693  22.243  0.00  0.00    +0.000 C 
ENDBRANCH  34  36
ENDBRANCH  32  34
ENDBRANCH  26  32
ENDBRANCH  22  29
ENDBRANCH  21  23
ENDBRANCH   1  21
TORSDOF 8
ENDMDL
MODEL 3
REMARK VINA RESULT:      -7.4      1.935      5.177
REMARK  Name = 
REMARK  12 active torsions:
REMARK  status: ('A' for Active; 'I' for Inactive)
REMARK    1  A    between atoms: C_1  and  C_2
REMARK    2  A    between atoms: C_2  and  O_3
REMARK    3  A    between atoms: O_3  and  C_4
REMARK    4  A    between atoms: C_4  and  C_6
REMARK    5  A    between atoms: C_9  and  N_10
REMARK    6  A    between atoms: C_11  and  C_13
REMARK    7  A    between atoms: C_13  and  N_14
REMARK    8  A    between atoms: C_18  and  C_19
REMARK    9  A    between atoms: C_21  and  C_22
REMARK   10  A    between atoms: N_24  and  C_25
REMARK   11  A    between atoms: C_28  and  C_29
REMARK   12  A    between atoms: C_29  and  C_30
REMARK                            x       y       z     vdW  Elec       q    Type
REMARK                         _______ _______ _______ _____ _____    ______ ____
ROOT
ATOM      1  N   UNL     1      -1.216  13.189  21.023  0.00  0.00    +0.000 N 
ATOM      2  C   UNL     1      -0.750  13.832  22.194  0.00  0.00    +0.000 A 
ATOM      3  O   UNL     1       0.445  14.021  22.425  0.00  0.00    +0.000 OA
ATOM      4  C   UNL     1      -1.733  14.286  23.234  0.00  0.00    +0.000 A 
ATOM      5  C   UNL     1      -3.053  14.080  23.134  0.00  0.00    +0.000 A 
ATOM      6  C   UNL     1      -4.031  14.493  24.189  0.00  0.00    +0.000 C 
ATOM      7  C   UNL     1      -3.544  13.361  22.011  0.00  0.00    +0.000 A 
ATOM      8  C   UNL     1      -4.832  12.904  21.662  0.00  0.00    +0.000 A 
ATOM      9  C   UNL     1      -6.200  13.117  22.213  0.00  0.00    +0.000 C 
ATOM     10  N   UNL     1      -4.731  12.086  20.624  0.00  0.00    +0.000 NA
ATOM     11  N   UNL     1      -3.479  12.261  20.118  0.00  0.00    +0.000 N 
ATOM     12  C   UNL     1      -2.644  12.945  21.019  0.00  0.00    +0.000 A 
ENDROOT
BRANCH  11  13
ATOM     13  C   UNL     1      -3.357  11.958  18.745  0.00  0.00    +0.000 A 
ATOM     14  C   UNL     1      -4.488  11.704  17.977  0.00  0.00    +0.000 A 
ATOM     15  C   UNL     1      -4.357  11.108  16.733  0.00  0.00    +0.000 A 
ATOM     16  C   UNL     1      -3.094  10.709  16.256  0.00  0.00    +0.000 A 
ATOM     17  C   UNL     1      -1.957  11.023  16.992  0.00  0.00    +0.000 A 
ATOM     18  C   UNL     1      -2.080  11.671  18.219  0.00  0.00    +0.000 A 
BRANCH  16  19
ATOM     19  C   UNL     1      -3.068   9.809  15.049  0.00  0.00    +0.000 C 
ATOM     20  C   UNL     1      -3.975  10.211  13.899  0.00  0.00    +0.000 C 
ENDBRANCH  16  19
ENDBRANCH  11  13
BRANCH   1  21
ATOM     21  C   UNL     1      -0.151  12.447  20.249  0.00  0.00    +0.000 C 
BRANCH  21  23
ATOM     22  N   UNL     1       0.873  10.145  19.446  0.00  0.00    +0.000 N 
ATOM     23  C   UNL     1       0.727  11.098  20.455  0.00  0.00    +0.000 C 
ATOM     24  O   UNL     1       1.317  10.980  21.545  0.00  0.00    +0.000 OA
ATOM     25  H   UNL     1       0.268  10.235  18.638  0.00  0.00    +0.000 HD
BRANCH  22  29
ATOM     26  C   UNL     1       2.415   6.112  19.653  0.00  0.00    +0.000 A 
ATOM     27  C   UNL     1       2.667   6.965  18.572  0.00  0.00    +0.000 A 
ATOM     28  C   UNL     1       2.245   8.318  18.572  0.00  0.00    +0.000 A 
ATOM     29  C   UNL     1       1.502   8.841  19.632  0.00  0.00    +0.000 A 
ATOM     30  C   UNL     1       1.397   8.035  20.782  0.00  0.00    +0.000 A 
ATOM     31  C   UNL     1       1.852   6.682  20.801  0.00  0.00    +0.000 A 
BRANCH  26  32
ATOM     32  C   UNL     1       2.732   4.644  19.483  0.00  0.00    +0.000 C 
ATOM     33  O   UNL     1       3.881   4.229  19.592  0.00  0.00    +0.000 OA
BRANCH  32  34
ATOM     34  O   UNL     1       1.666   3.884  19.129  0.00  0.00    +0.000 OA
BRANCH  34  36
ATOM     35  C   UNL     1       1.479   2.731  21.300  0.00  0.00    +0.000 C 
ATOM     36  C   UNL     1       0.767   3.516  20.204  0.00  0.00    +0.000 C 
ENDBRANCH  34  36
ENDBRANCH  32  34
ENDBRANCH  26  32
ENDBRANCH  22  29
ENDBRANCH  21  23
ENDBRANCH   1  21
TORSDOF 8
ENDMDL
MODEL 4
REMARK VINA RESULT:      -7.4      2.035      5.321
REMARK  Name = 
REMARK  12 active torsions:
REMARK  status: ('A' for Active; 'I' for Inactive)
REMARK    1  A    between atoms: C_1  and  C_2
REMARK    2  A    between atoms: C_2  and  O_3
REMARK    3  A    between atoms: O_3  and  C_4
REMARK    4  A    between atoms: C_4  and  C_6
REMARK    5  A    between atoms: C_9  and  N_10
REMARK    6  A    between atoms: C_11  and  C_13
REMARK    7  A    between atoms: C_13  and  N_14
REMARK    8  A    between atoms: C_18  and  C_19
REMARK    9  A    between atoms: C_21  and  C_22
REMARK   10  A    between atoms: N_24  and  C_25
REMARK   11  A    between atoms: C_28  and  C_29
REMARK   12  A    between atoms: C_29  and  C_30
REMARK                            x       y       z     vdW  Elec       q    Type
REMARK                         _______ _______ _______ _____ _____    ______ ____
ROOT
ATOM      1  N   UNL     1      -0.729  13.420  19.616  0.00  0.00    +0.000 N 
ATOM      2  C   UNL     1      -0.061  14.457  20.309  0.00  0.00    +0.000 A 
ATOM      3  O   UNL     1       1.149  14.661  20.207  0.00  0.00    +0.000 OA
ATOM      4  C   UNL     1      -0.833  15.342  21.245  0.00  0.00    +0.000 A 
ATOM      5  C   UNL     1      -2.139  15.181  21.496  0.00  0.00    +0.000 A 
ATOM      6  C   UNL     1      -2.902  16.034  22.461  0.00  0.00    +0.000 C 
ATOM      7  C   UNL     1      -2.819  14.096  20.881  0.00  0.00    +0.000 A 
ATOM      8  C   UNL     1      -4.135  13.603  21.004  0.00  0.00    +0.000 A 
ATOM      9  C   UNL     1      -5.373  14.090  21.676  0.00  0.00    +0.000 C 
ATOM     10  N   UNL     1      -4.215  12.431  20.390  0.00  0.00    +0.000 NA
ATOM     11  N   UNL     1      -3.095  12.323  19.624  0.00  0.00    +0.000 N 
ATOM     12  C   UNL     1      -2.121  13.269  19.988  0.00  0.00    +0.000 A 
ENDROOT
BRANCH  11  13
ATOM     13  C   UNL     1      -3.238  11.485  18.496  0.00  0.00    +0.000 A 
ATOM     14  C   UNL     1      -2.282  10.514  18.216  0.00  0.00    +0.000 A 
ATOM     15  C   UNL     1      -2.252   9.918  16.966  0.00  0.00    +0.000 A 
ATOM     16  C   UNL     1      -3.146  10.320  15.955  0.00  0.00    +0.000 A 
ATOM     17  C   UNL     1      -4.144  11.241  16.254  0.00  0.00    +0.000 A 
ATOM     18  C   UNL     1      -4.212  11.804  17.527  0.00  0.00    +0.000 A 
BRANCH  16  19
ATOM     19  C   UNL     1      -2.858   9.848  14.555  0.00  0.00    +0.000 C 
ATOM     20  C   UNL     1      -4.002   9.966  13.563  0.00  0.00    +0.000 C 
ENDBRANCH  16  19
ENDBRANCH  11  13
BRANCH   1  21
ATOM     21  C   UNL     1       0.185  12.375  19.018  0.00  0.00    +0.000 C 
BRANCH  21  23
ATOM     22  N   UNL     1       1.247   9.983  18.637  0.00  0.00    +0.000 N 
ATOM     23  C   UNL     1       0.889  11.003  19.522  0.00  0.00    +0.000 C 
ATOM     24  O   UNL     1       1.148  10.924  20.736  0.00  0.00    +0.000 OA
ATOM     25  H   UNL     1       0.893  10.052  17.690  0.00  0.00    +0.000 HD
BRANCH  22  29
ATOM     26  C   UNL     1       2.295   5.892  19.558  0.00  0.00    +0.000 A 
ATOM     27  C   UNL     1       2.611   6.499  18.337  0.00  0.00    +0.000 A 
ATOM     28  C   UNL     1       2.356   7.872  18.094  0.00  0.00    +0.000 A 
ATOM     29  C   UNL     1       1.720   8.665  19.051  0.00  0.00    +0.000 A 
ATOM     30  C   UNL     1       1.559   8.099  20.330  0.00  0.00    +0.000 A 
ATOM     31  C   UNL     1       1.847   6.726  20.590  0.00  0.00    +0.000 A 
BRANCH  26  32
ATOM     32  C   UNL     1       2.427   4.390  19.656  0.00  0.00    +0.000 C 
ATOM     33  O   UNL     1       1.507   3.701  20.084  0.00  0.00    +0.000 OA
BRANCH  32  34
ATOM     34  O   UNL     1       3.652   3.918  19.313  0.00  0.00    +0.000 OA
BRANCH  34  36
ATOM     35  C   UNL     1       3.488   1.776  18.102  0.00  0.00    +0.000 C 
ATOM     36  C   UNL     1       3.827   2.483  19.411  0.00  0.00    +0.000 C 
ENDBRANCH  34  36
ENDBRANCH  32  34
ENDBRANCH  26  32
ENDBRANCH  22  29
ENDBRANCH  21  23
ENDBRANCH   1  21
TORSDOF 8
ENDMDL
MODEL 5
REMARK VINA RESULT:      -7.4      3.163      9.090
REMARK  Name = 
REMARK  12 active torsions:
REMARK  status: ('A' for Active; 'I' for Inactive)
REMARK    1  A    between atoms: C_1  and  C_2
REMARK    2  A    between atoms: C_2  and  O_3
REMARK    3  A    between atoms: O_3  and  C_4
REMARK    4  A    between atoms: C_4  and  C_6
REMARK    5  A    between atoms: C_9  and  N_10
REMARK    6  A    between atoms: C_11  and  C_13
REMARK    7  A    between atoms: C_13  and  N_14
REMARK    8  A    between atoms: C_18  and  C_19
REMARK    9  A    between atoms: C_21  and  C_22
REMARK   10  A    between atoms: N_24  and  C_25
REMARK   11  A    between atoms: C_28  and  C_29
REMARK   12  A    between atoms: C_29  and  C_30
REMARK                            x       y       z     vdW  Elec       q    Type
REMARK                         _______ _______ _______ _____ _____    ______ ____
ROOT
ATOM      1  N   UNL     1       3.365   7.091  18.351  0.00  0.00    +0.000 N 
ATOM      2  C   UNL     1       4.380   6.447  17.605  0.00  0.00    +0.000 A 
ATOM      3  O   UNL     1       4.913   6.957  16.619  0.00  0.00    +0.000 OA
ATOM      4  C   UNL     1       4.824   5.066  17.991  0.00  0.00    +0.000 A 
ATOM      5  C   UNL     1       4.277   4.376  19.001  0.00  0.00    +0.000 A 
ATOM      6  C   UNL     1       4.687   2.983  19.362  0.00  0.00    +0.000 C 
ATOM      7  C   UNL     1       3.196   4.961  19.715  0.00  0.00    +0.000 A 
ATOM      8  C   UNL     1       2.359   4.476  20.741  0.00  0.00    +0.000 A 
ATOM      9  C   UNL     1       2.357   3.256  21.597  0.00  0.00    +0.000 C 
ATOM     10  N   UNL     1       1.356   5.324  20.915  0.00  0.00    +0.000 NA
ATOM     11  N   UNL     1       1.703   6.468  20.262  0.00  0.00    +0.000 N 
ATOM     12  C   UNL     1       2.780   6.258  19.382  0.00  0.00    +0.000 A 
ENDROOT
BRANCH  11  13
ATOM     13  C   UNL     1       1.101   7.638  20.773  0.00  0.00    +0.000 A 
ATOM     14  C   UNL     1       1.872   8.604  21.412  0.00  0.00    +0.000 A 
ATOM     15  C   UNL     1       1.257   9.580  22.178  0.00  0.00    +0.000 A 
ATOM     16  C   UNL     1      -0.140   9.578  22.360  0.00  0.00    +0.000 A 
ATOM     17  C   UNL     1      -0.916   8.655  21.669  0.00  0.00    +0.000 A 
ATOM     18  C   UNL     1      -0.305   7.704  20.854  0.00  0.00    +0.000 A 
BRANCH  16  19
ATOM     19  C   UNL     1      -0.693  10.476  23.434  0.00  0.00    +0.000 C 
ATOM     20  C   UNL     1      -1.691  11.525  22.976  0.00  0.00    +0.000 C 
ENDBRANCH  16  19
ENDBRANCH  11  13
BRANCH   1  21
ATOM     21  C   UNL     1       2.741   8.283  17.662  0.00  0.00    +0.000 C 
BRANCH  21  23
ATOM     22  N   UNL     1       0.197   9.001  17.743  0.00  0.00    +0.000 N 
ATOM     23  C   UNL     1       1.536   9.323  17.976  0.00  0.00    +0.000 C 
ATOM     24  O   UNL     1       1.858  10.409  18.491  0.00  0.00    +0.000 OA
ATOM     25  H   UNL     1       0.013   8.161  17.206  0.00  0.00    +0.000 HD
BRANCH  22  29
ATOM     26  C   UNL     1      -3.208  11.568  18.450  0.00  0.00    +0.000 A 
ATOM     27  C   UNL     1      -2.043  11.623  19.225  0.00  0.00    +0.000 A 
ATOM     28  C   UNL     1      -0.897  10.852  18.910  0.00  0.00    +0.000 A 
ATOM     29  C   UNL     1      -0.906   9.952  17.842  0.00  0.00    +0.000 A 
ATOM     30  C   UNL     1      -2.010  10.023  16.972  0.00  0.00    +0.000 A 
ATOM     31  C   UNL     1      -3.154  10.826  17.264  0.00  0.00    +0.000 A 
BRANCH  26  32
ATOM     32  C   UNL     1      -4.436  12.278  18.970  0.00  0.00    +0.000 C 
ATOM     33  O   UNL     1      -5.430  12.420  18.265  0.00  0.00    +0.000 OA
BRANCH  32  34
ATOM     34  O   UNL     1      -4.292  12.793  20.217  0.00  0.00    +0.000 OA
BRANCH  34  36
ATOM     35  C   UNL     1      -5.208  13.268  22.457  0.00  0.00    +0.000 C 
ATOM     36  C   UNL     1      -5.356  12.490  21.153  0.00  0.00    +0.000 C 
ENDBRANCH  34  36
ENDBRANCH  32  34
ENDBRANCH  26  32
ENDBRANCH  22  29
ENDBRANCH  21  23
ENDBRANCH   1  21
TORSDOF 8
ENDMDL
MODEL 6
REMARK VINA RESULT:      -7.3      2.805      5.181
REMARK  Name = 
REMARK  12 active torsions:
REMARK  status: ('A' for Active; 'I' for Inactive)
REMARK    1  A    between atoms: C_1  and  C_2
REMARK    2  A    between atoms: C_2  and  O_3
REMARK    3  A    between atoms: O_3  and  C_4
REMARK    4  A    between atoms: C_4  and  C_6
REMARK    5  A    between atoms: C_9  and  N_10
REMARK    6  A    between atoms: C_11  and  C_13
REMARK    7  A    between atoms: C_13  and  N_14
REMARK    8  A    between atoms: C_18  and  C_19
REMARK    9  A    between atoms: C_21  and  C_22
REMARK   10  A    between atoms: N_24  and  C_25
REMARK   11  A    between atoms: C_28  and  C_29
REMARK   12  A    between atoms: C_29  and  C_30
REMARK                            x       y       z     vdW  Elec       q    Type
REMARK                         _______ _______ _______ _____ _____    ______ ____
ROOT
ATOM      1  N   UNL     1       1.005  12.604  19.578  0.00  0.00    +0.000 N 
ATOM      2  C   UNL     1       2.184  12.812  18.825  0.00  0.00    +0.000 A 
ATOM      3  O   UNL     1       2.558  12.043  17.938  0.00  0.00    +0.000 OA
ATOM      4  C   UNL     1       3.056  13.997  19.121  0.00  0.00    +0.000 A 
ATOM      5  C   UNL     1       2.796  14.870  20.104  0.00  0.00    +0.000 A 
ATOM      6  C   UNL     1       3.685  16.029  20.431  0.00  0.00    +0.000 C 
ATOM      7  C   UNL     1       1.665  14.641  20.934  0.00  0.00    +0.000 A 
ATOM      8  C   UNL     1       1.179  15.296  22.084  0.00  0.00    +0.000 A 
ATOM      9  C   UNL     1       1.531  16.559  22.793  0.00  0.00    +0.000 C 
ATOM     10  N   UNL     1       0.217  14.562  22.624  0.00  0.00    +0.000 NA
ATOM     11  N   UNL     1      -0.131  13.637  21.686  0.00  0.00    +0.000 N 
ATOM     12  C   UNL     1       0.828  13.549  20.661  0.00  0.00    +0.000 A 
ENDROOT
BRANCH  11  13
ATOM     13  C   UNL     1      -1.455  13.160  21.799  0.00  0.00    +0.000 A 
ATOM     14  C   UNL     1      -2.377  13.400  20.785  0.00  0.00    +0.000 A 
ATOM     15  C   UNL     1      -3.728  13.216  21.026  0.00  0.00    +0.000 A 
ATOM     16  C   UNL     1      -4.187  12.836  22.303  0.00  0.00    +0.000 A 
ATOM     17  C   UNL     1      -3.263  12.532  23.296  0.00  0.00    +0.000 A 
ATOM     18  C   UNL     1      -1.899  12.664  23.041  0.00  0.00    +0.000 A 
BRANCH  16  19
ATOM     19  C   UNL     1      -5.665  12.949  22.564  0.00  0.00    +0.000 C 
ATOM     20  C   UNL     1      -6.099  12.805  24.011  0.00  0.00    +0.000 C 
ENDBRANCH  16  19
ENDBRANCH  11  13
BRANCH   1  21
ATOM     21  C   UNL     1       0.424  11.212  19.463  0.00  0.00    +0.000 C 
BRANCH  21  23
ATOM     22  N   UNL     1       1.647   8.878  19.681  0.00  0.00    +0.000 N 
ATOM     23  C   UNL     1       0.921   9.776  18.896  0.00  0.00    +0.000 C 
ATOM     24  O   UNL     1       0.572   9.484  17.738  0.00  0.00    +0.000 OA
ATOM     25  H   UNL     1       2.008   9.226  20.562  0.00  0.00    +0.000 HD
BRANCH  22  29
ATOM     26  C   UNL     1       3.799   5.300  18.561  0.00  0.00    +0.000 A 
ATOM     27  C   UNL     1       2.942   5.355  19.667  0.00  0.00    +0.000 A 
ATOM     28  C   UNL     1       2.162   6.502  19.954  0.00  0.00    +0.000 A 
ATOM     29  C   UNL     1       2.264   7.656  19.175  0.00  0.00    +0.000 A 
ATOM     30  C   UNL     1       2.993   7.540  17.976  0.00  0.00    +0.000 A 
ATOM     31  C   UNL     1       3.753   6.373  17.663  0.00  0.00    +0.000 A 
BRANCH  26  32
ATOM     32  C   UNL     1       4.728   4.114  18.444  0.00  0.00    +0.000 C 
ATOM     33  O   UNL     1       4.350   3.064  17.936  0.00  0.00    +0.000 OA
BRANCH  32  34
ATOM     34  O   UNL     1       5.943   4.304  19.016  0.00  0.00    +0.000 OA
BRANCH  34  36
ATOM     35  C   UNL     1       7.707   6.013  18.790  0.00  0.00    +0.000 C 
ATOM     36  C   UNL     1       6.973   4.839  18.149  0.00  0.00    +0.000 C 
ENDBRANCH  34  36
ENDBRANCH  32  34
ENDBRANCH  26  32
ENDBRANCH  22  29
ENDBRANCH  21  23
ENDBRANCH   1  21
TORSDOF 8
ENDMDL
MODEL 7
REMARK VINA RESULT:      -7.3      1.818      5.161
REMARK  Name = 
REMARK  12 active torsions:
REMARK  status: ('A' for Active; 'I' for Inactive)
REMARK    1  A    between atoms: C_1  and  C_2
REMARK    2  A    between atoms: C_2  and  O_3
REMARK    3  A    between atoms: O_3  and  C_4
REMARK    4  A    between atoms: C_4  and  C_6
REMARK    5  A    between atoms: C_9  and  N_10
REMARK    6  A    between atoms: C_11  and  C_13
REMARK    7  A    between atoms: C_13  and  N_14
REMARK    8  A    between atoms: C_18  and  C_19
REMARK    9  A    between atoms: C_21  and  C_22
REMARK   10  A    between atoms: N_24  and  C_25
REMARK   11  A    between atoms: C_28  and  C_29
REMARK   12  A    between atoms: C_29  and  C_30
REMARK                            x       y       z     vdW  Elec       q    Type
REMARK                         _______ _______ _______ _____ _____    ______ ____
ROOT
ATOM      1  N   UNL     1      -1.012  13.573  21.494  0.00  0.00    +0.000 N 
ATOM      2  C   UNL     1      -0.327  14.176  22.574  0.00  0.00    +0.000 A 
ATOM      3  O   UNL     1       0.889  14.374  22.572  0.00  0.00    +0.000 OA
ATOM      4  C   UNL     1      -1.086  14.574  23.807  0.00  0.00    +0.000 A 
ATOM      5  C   UNL     1      -2.399  14.352  23.962  0.00  0.00    +0.000 A 
ATOM      6  C   UNL     1      -3.150  14.709  25.206  0.00  0.00    +0.000 C 
ATOM      7  C   UNL     1      -3.098  13.671  22.930  0.00  0.00    +0.000 A 
ATOM      8  C   UNL     1      -4.426  13.208  22.824  0.00  0.00    +0.000 A 
ATOM      9  C   UNL     1      -5.659  13.378  23.644  0.00  0.00    +0.000 C 
ATOM     10  N   UNL     1      -4.528  12.433  21.754  0.00  0.00    +0.000 NA
ATOM     11  N   UNL     1      -3.403  12.647  21.017  0.00  0.00    +0.000 N 
ATOM     12  C   UNL     1      -2.411  13.308  21.763  0.00  0.00    +0.000 A 
ENDROOT
BRANCH  11  13
ATOM     13  C   UNL     1      -3.554  12.401  19.635  0.00  0.00    +0.000 A 
ATOM     14  C   UNL     1      -4.818  12.200  19.090  0.00  0.00    +0.000 A 
ATOM     15  C   UNL     1      -4.943  11.656  17.823  0.00  0.00    +0.000 A 
ATOM     16  C   UNL     1      -3.805  11.254  17.097  0.00  0.00    +0.000 A 
ATOM     17  C   UNL     1      -2.540  11.515  17.612  0.00  0.00    +0.000 A 
ATOM     18  C   UNL     1      -2.409  12.113  18.864  0.00  0.00    +0.000 A 
BRANCH  16  19
ATOM     19  C   UNL     1      -4.035  10.406  15.874  0.00  0.00    +0.000 C 
ATOM     20  C   UNL     1      -2.793  10.012  15.094  0.00  0.00    +0.000 C 
ENDBRANCH  16  19
ENDBRANCH  11  13
BRANCH   1  21
ATOM     21  C   UNL     1      -0.116  12.878  20.493  0.00  0.00    +0.000 C 
BRANCH  21  23
ATOM     22  N   UNL     1       0.687  10.697  19.233  0.00  0.00    +0.000 N 
ATOM     23  C   UNL     1       0.665  11.459  20.402  0.00  0.00    +0.000 C 
ATOM     24  O   UNL     1       1.297  11.106  21.415  0.00  0.00    +0.000 OA
ATOM     25  H   UNL     1       0.052  10.972  18.493  0.00  0.00    +0.000 HD
BRANCH  22  29
ATOM     26  C   UNL     1       2.629   6.835  19.297  0.00  0.00    +0.000 A 
ATOM     27  C   UNL     1       1.861   7.315  20.364  0.00  0.00    +0.000 A 
ATOM     28  C   UNL     1       1.143   8.534  20.282  0.00  0.00    +0.000 A 
ATOM     29  C   UNL     1       1.224   9.342  19.146  0.00  0.00    +0.000 A 
ATOM     30  C   UNL     1       1.855   8.779  18.020  0.00  0.00    +0.000 A 
ATOM     31  C   UNL     1       2.551   7.535  18.086  0.00  0.00    +0.000 A 
BRANCH  26  32
ATOM     32  C   UNL     1       3.506   5.630  19.543  0.00  0.00    +0.000 C 
ATOM     33  O   UNL     1       3.034   4.579  19.964  0.00  0.00    +0.000 OA
BRANCH  32  34
ATOM     34  O   UNL     1       4.828   5.856  19.339  0.00  0.00    +0.000 OA
BRANCH  34  36
ATOM     35  C   UNL     1       6.170   6.282  17.314  0.00  0.00    +0.000 C 
ATOM     36  C   UNL     1       5.393   5.264  18.143  0.00  0.00    +0.000 C 
ENDBRANCH  34  36
ENDBRANCH  32  34
ENDBRANCH  26  32
ENDBRANCH  22  29
ENDBRANCH  21  23
ENDBRANCH   1  21
TORSDOF 8
ENDMDL
MODEL 8
REMARK VINA RESULT:      -7.3      2.260      5.819
REMARK  Name = 
REMARK  12 active torsions:
REMARK  status: ('A' for Active; 'I' for Inactive)
REMARK    1  A    between atoms: C_1  and  C_2
REMARK    2  A    between atoms: C_2  and  O_3
REMARK    3  A    between atoms: O_3  and  C_4
REMARK    4  A    between atoms: C_4  and  C_6
REMARK    5  A    between atoms: C_9  and  N_10
REMARK    6  A    between atoms: C_11  and  C_13
REMARK    7  A    between atoms: C_13  and  N_14
REMARK    8  A    between atoms: C_18  and  C_19
REMARK    9  A    between atoms: C_21  and  C_22
REMARK   10  A    between atoms: N_24  and  C_25
REMARK   11  A    between atoms: C_28  and  C_29
REMARK   12  A    between atoms: C_29  and  C_30
REMARK                            x       y       z     vdW  Elec       q    Type
REMARK                         _______ _______ _______ _____ _____    ______ ____
ROOT
ATOM      1  N   UNL     1      -0.426  11.487  20.221  0.00  0.00    +0.000 N 
ATOM      2  C   UNL     1       0.450  12.040  21.184  0.00  0.00    +0.000 A 
ATOM      3  O   UNL     1       1.537  11.537  21.468  0.00  0.00    +0.000 OA
ATOM      4  C   UNL     1       0.048  13.278  21.932  0.00  0.00    +0.000 A 
ATOM      5  C   UNL     1      -1.136  13.883  21.764  0.00  0.00    +0.000 A 
ATOM      6  C   UNL     1      -1.558  15.091  22.539  0.00  0.00    +0.000 C 
ATOM      7  C   UNL     1      -2.073  13.303  20.867  0.00  0.00    +0.000 A 
ATOM      8  C   UNL     1      -3.407  13.626  20.542  0.00  0.00    +0.000 A 
ATOM      9  C   UNL     1      -4.312  14.767  20.860  0.00  0.00    +0.000 C 
ATOM     10  N   UNL     1      -3.923  12.645  19.816  0.00  0.00    +0.000 NA
ATOM     11  N   UNL     1      -2.875  11.875  19.411  0.00  0.00    +0.000 N 
ATOM     12  C   UNL     1      -1.709  12.157  20.144  0.00  0.00    +0.000 A 
ENDROOT
BRANCH  11  13
ATOM     13  C   UNL     1      -3.101  11.163  18.213  0.00  0.00    +0.000 A 
ATOM     14  C   UNL     1      -2.184  10.214  17.776  0.00  0.00    +0.000 A 
ATOM     15  C   UNL     1      -2.240   9.752  16.471  0.00  0.00    +0.000 A 
ATOM     16  C   UNL     1      -3.185  10.270  15.564  0.00  0.00    +0.000 A 
ATOM     17  C   UNL     1      -4.144  11.169  16.018  0.00  0.00    +0.000 A 
ATOM     18  C   UNL     1      -4.125  11.595  17.345  0.00  0.00    +0.000 A 
BRANCH  16  19
ATOM     19  C   UNL     1      -2.990   9.944  14.107  0.00  0.00    +0.000 C 
ATOM     20  C   UNL     1      -4.256   9.794  13.283  0.00  0.00    +0.000 C 
ENDBRANCH  16  19
ENDBRANCH  11  13
BRANCH   1  21
ATOM     21  C   UNL     1      -0.102  10.066  19.820  0.00  0.00    +0.000 C 
BRANCH  21  23
ATOM     22  N   UNL     1       1.340   7.928  19.236  0.00  0.00    +0.000 N 
ATOM     23  C   UNL     1       1.134   9.302  19.098  0.00  0.00    +0.000 C 
ATOM     24  O   UNL     1       1.862   9.994  18.363  0.00  0.00    +0.000 OA
ATOM     25  H   UNL     1       0.795   7.451  19.944  0.00  0.00    +0.000 HD
BRANCH  22  29
ATOM     26  C   UNL     1       5.076   6.000  18.229  0.00  0.00    +0.000 A 
ATOM     27  C   UNL     1       4.221   5.521  19.228  0.00  0.00    +0.000 A 
ATOM     28  C   UNL     1       2.951   6.102  19.469  0.00  0.00    +0.000 A 
ATOM     29  C   UNL     1       2.525   7.223  18.755  0.00  0.00    +0.000 A 
ATOM     30  C   UNL     1       3.308   7.595  17.645  0.00  0.00    +0.000 A 
ATOM     31  C   UNL     1       4.572   6.990  17.375  0.00  0.00    +0.000 A 
BRANCH  26  32
ATOM     32  C   UNL     1       6.479   5.443  18.172  0.00  0.00    +0.000 C 
ATOM     33  O   UNL     1       7.092   5.167  19.198  0.00  0.00    +0.000 OA
BRANCH  32  34
ATOM     34  O   UNL     1       6.994   5.366  16.919  0.00  0.00    +0.000 OA
BRANCH  34  36
ATOM     35  C   UNL     1       6.017   4.788  14.730  0.00  0.00    +0.000 C 
ATOM     36  C   UNL     1       6.488   4.289  16.093  0.00  0.00    +0.000 C 
ENDBRANCH  34  36
ENDBRANCH  32  34
ENDBRANCH  26  32
ENDBRANCH  22  29
ENDBRANCH  21  23
ENDBRANCH   1  21
TORSDOF 8
ENDMDL
MODEL 9
REMARK VINA RESULT:      -7.2      3.270      9.151
REMARK  Name = 
REMARK  12 active torsions:
REMARK  status: ('A' for Active; 'I' for Inactive)
REMARK    1  A    between atoms: C_1  and  C_2
REMARK    2  A    between atoms: C_2  and  O_3
REMARK    3  A    between atoms: O_3  and  C_4
REMARK    4  A    between atoms: C_4  and  C_6
REMARK    5  A    between atoms: C_9  and  N_10
REMARK    6  A    between atoms: C_11  and  C_13
REMARK    7  A    between atoms: C_13  and  N_14
REMARK    8  A    between atoms: C_18  and  C_19
REMARK    9  A    between atoms: C_21  and  C_22
REMARK   10  A    between atoms: N_24  and  C_25
REMARK   11  A    between atoms: C_28  and  C_29
REMARK   12  A    between atoms: C_29  and  C_30
REMARK                            x       y       z     vdW  Elec       q    Type
REMARK                         _______ _______ _______ _____ _____    ______ ____
ROOT
ATOM      1  N   UNL     1       3.565   6.775  18.549  0.00  0.00    +0.000 N 
ATOM      2  C   UNL     1       4.580   6.084  17.847  0.00  0.00    +0.000 A 
ATOM      3  O   UNL     1       5.206   6.581  16.911  0.00  0.00    +0.000 OA
ATOM      4  C   UNL     1       4.907   4.666  18.217  0.00  0.00    +0.000 A 
ATOM      5  C   UNL     1       4.253   3.989  19.171  0.00  0.00    +0.000 A 
ATOM      6  C   UNL     1       4.547   2.562  19.514  0.00  0.00    +0.000 C 
ATOM      7  C   UNL     1       3.172   4.627  19.836  0.00  0.00    +0.000 A 
ATOM      8  C   UNL     1       2.242   4.173  20.794  0.00  0.00    +0.000 A 
ATOM      9  C   UNL     1       2.105   2.935  21.612  0.00  0.00    +0.000 C 
ATOM     10  N   UNL     1       1.288   5.083  20.933  0.00  0.00    +0.000 NA
ATOM     11  N   UNL     1       1.750   6.216  20.336  0.00  0.00    +0.000 N 
ATOM     12  C   UNL     1       2.863   5.957  19.518  0.00  0.00    +0.000 A 
ENDROOT
BRANCH  11  13
ATOM     13  C   UNL     1       1.196   7.411  20.845  0.00  0.00    +0.000 A 
ATOM     14  C   UNL     1       1.977   8.284  21.596  0.00  0.00    +0.000 A 
ATOM     15  C   UNL     1       1.371   9.277  22.348  0.00  0.00    +0.000 A 
ATOM     16  C   UNL     1      -0.033   9.383  22.403  0.00  0.00    +0.000 A 
ATOM     17  C   UNL     1      -0.811   8.555  21.602  0.00  0.00    +0.000 A 
ATOM     18  C   UNL     1      -0.202   7.590  20.801  0.00  0.00    +0.000 A 
BRANCH  16  19
ATOM     19  C   UNL     1      -0.613  10.280  23.463  0.00  0.00    +0.000 C 
ATOM     20  C   UNL     1      -1.231  11.577  22.973  0.00  0.00    +0.000 C 
ENDBRANCH  16  19
ENDBRANCH  11  13
BRANCH   1  21
ATOM     21  C   UNL     1       3.065   8.024  17.860  0.00  0.00    +0.000 C 
BRANCH  21  23
ATOM     22  N   UNL     1       1.609  10.134  18.508  0.00  0.00    +0.000 N 
ATOM     23  C   UNL     1       1.699   8.900  17.861  0.00  0.00    +0.000 C 
ATOM     24  O   UNL     1       0.745   8.443  17.206  0.00  0.00    +0.000 OA
ATOM     25  H   UNL     1       2.371  10.385  19.127  0.00  0.00    +0.000 HD
BRANCH  22  29
ATOM     26  C   UNL     1      -1.989  12.300  19.534  0.00  0.00    +0.000 A 
ATOM     27  C   UNL     1      -0.709  12.855  19.653  0.00  0.00    +0.000 A 
ATOM     28  C   UNL     1       0.449  12.170  19.210  0.00  0.00    +0.000 A 
ATOM     29  C   UNL     1       0.366  10.878  18.688  0.00  0.00    +0.000 A 
ATOM     30  C   UNL     1      -0.928  10.394  18.415  0.00  0.00    +0.000 A 
ATOM     31  C   UNL     1      -2.100  11.096  18.828  0.00  0.00    +0.000 A 
BRANCH  26  32
ATOM     32  C   UNL     1      -3.137  13.018  20.204  0.00  0.00    +0.000 C 
ATOM     33  O   UNL     1      -2.934  13.894  21.039  0.00  0.00    +0.000 OA
BRANCH  32  34
ATOM     34  O   UNL     1      -4.361  12.548  19.858  0.00  0.00    +0.000 OA
BRANCH  34  36
ATOM     35  C   UNL     1      -6.733  12.950  20.401  0.00  0.00    +0.000 C 
ATOM     36  C   UNL     1      -5.356  12.539  20.912  0.00  0.00    +0.000 C 
ENDBRANCH  34  36
ENDBRANCH  32  34
ENDBRANCH  26  32
ENDBRANCH  22  29
ENDBRANCH  21  23
ENDBRANCH   1  21
TORSDOF 8
ENDMDL
