MODEL 1
REMARK VINA RESULT:      -8.0      0.000      0.000
REMARK  Name = 
REMARK  6 active torsions:
REMARK  status: ('A' for Active; 'I' for Inactive)
REMARK    1  A    between atoms: C_1  and  S_2
REMARK    2  A    between atoms: S_2  and  N_5
REMARK    3  A    between atoms: N_8  and  C_9
REMARK    4  A    between atoms: C_9  and  C_10
REMARK    5  A    between atoms: C_12  and  C_13
REMARK    6  A    between atoms: C_21  and  C_22
REMARK                            x       y       z     vdW  Elec       q    Type
REMARK                         _______ _______ _______ _____ _____    ______ ____
ROOT
ATOM      1  C   UNL     1       1.489   9.542  18.537  0.00  0.00    +0.000 A 
ATOM      2  C   UNL     1       2.015   8.406  17.857  0.00  0.00    +0.000 A 
ATOM      3  C   UNL     1       2.130   7.383  18.779  0.00  0.00    +0.000 A 
ATOM      4  O   UNL     1       1.705   7.832  19.993  0.00  0.00    +0.000 OA
ATOM      5  C   UNL     1       1.305   9.134  19.849  0.00  0.00    +0.000 A 
ENDROOT
BRANCH   3   6
ATOM      6  C   UNL     1       2.584   5.994  18.690  0.00  0.00    +0.000 A 
ATOM      7  C   UNL     1       1.867   5.083  17.896  0.00  0.00    +0.000 A 
ATOM      8  C   UNL     1       2.237   3.738  17.818  0.00  0.00    +0.000 A 
ATOM      9  C   UNL     1       3.339   3.286  18.535  0.00  0.00    +0.000 A 
ATOM     10 BR   UNL     1       3.820   1.460  18.453  0.00  0.00    +0.000 Br
ATOM     11  C   UNL     1       4.076   4.170  19.317  0.00  0.00    +0.000 A 
ATOM     12  C   UNL     1       3.703   5.520  19.392  0.00  0.00    +0.000 A 
ENDBRANCH   3   6
BRANCH   5  13
ATOM     13  C   UNL     1       0.740   9.739  21.049  0.00  0.00    +0.000 A 
ATOM     14  C   UNL     1       0.655   9.018  22.242  0.00  0.00    +0.000 A 
ATOM     15  C   UNL     1      -0.032   9.576  23.307  0.00  0.00    +0.000 A 
ATOM     16  N   UNL     1      -0.610  10.796  23.270  0.00  0.00    +0.000 NA
ATOM     17  C   UNL     1      -0.478  11.496  22.127  0.00  0.00    +0.000 A 
ATOM     18  C   UNL     1       0.191  11.023  21.010  0.00  0.00    +0.000 A 
ENDBRANCH   5  13
BRANCH   1  19
ATOM     19  C   UNL     1       1.276  10.887  17.944  0.00  0.00    +0.000 C 
BRANCH  19  23
ATOM     20  N   UNL     1       3.803  13.511  17.866  0.00  0.00    +0.000 N 
ATOM     21  C   UNL     1       2.585  12.900  18.110  0.00  0.00    +0.000 C 
ATOM     22  O   UNL     1       1.651  13.479  18.638  0.00  0.00    +0.000 OA
ATOM     23  N   UNL     1       2.528  11.582  17.751  0.00  0.00    +0.000 N 
ATOM     24  H   UNL     1       4.617  13.007  17.537  0.00  0.00    +0.000 HD
ATOM     25  H   UNL     1       3.266  11.168  17.202  0.00  0.00    +0.000 HD
BRANCH  20  27
ATOM     26  C   UNL     1       5.853  15.263  18.000  0.00  0.00    +0.000 C 
ATOM     27  S   UNL     1       4.085  15.119  18.183  0.00  0.00    +0.000 S 
ATOM     28  O   UNL     1       3.704  15.414  19.544  0.00  0.00    +0.000 OA
ATOM     29  O   UNL     1       3.471  15.831  17.073  0.00  0.00    +0.000 OA
ENDBRANCH  20  27
ENDBRANCH  19  23
ENDBRANCH   1  19
TORSDOF 5
ENDMDL
MODEL 2
REMARK VINA RESULT:      -7.8      5.248      7.854
REMARK  Name = 
REMARK  6 active torsions:
REMARK  status: ('A' for Active; 'I' for Inactive)
REMARK    1  A    between atoms: C_1  and  S_2
REMARK    2  A    between atoms: S_2  and  N_5
REMARK    3  A    between atoms: N_8  and  C_9
REMARK    4  A    between atoms: C_9  and  C_10
REMARK    5  A    between atoms: C_12  and  C_13
REMARK    6  A    between atoms: C_21  and  C_22
REMARK                            x       y       z     vdW  Elec       q    Type
REMARK                         _______ _______ _______ _____ _____    ______ ____
ROOT
ATOM      1  C   UNL     1       2.295   7.898  18.744  0.00  0.00    +0.000 A 
ATOM      2  C   UNL     1       1.755   9.163  19.114  0.00  0.00    +0.000 A 
ATOM      3  C   UNL     1       0.921   8.962  20.197  0.00  0.00    +0.000 A 
ATOM      4  O   UNL     1       0.915   7.635  20.510  0.00  0.00    +0.000 OA
ATOM      5  C   UNL     1       1.754   6.990  19.642  0.00  0.00    +0.000 A 
ENDROOT
BRANCH   3   6
ATOM      6  C   UNL     1       0.105   9.856  21.019  0.00  0.00    +0.000 A 
ATOM      7  C   UNL     1      -0.119   9.539  22.370  0.00  0.00    +0.000 A 
ATOM      8  C   UNL     1      -0.928  10.339  23.181  0.00  0.00    +0.000 A 
ATOM      9  C   UNL     1      -1.525  11.475  22.648  0.00  0.00    +0.000 A 
ATOM     10 BR   UNL     1      -2.644  12.540  23.737  0.00  0.00    +0.000 Br
ATOM     11  C   UNL     1      -1.308  11.822  21.318  0.00  0.00    +0.000 A 
ATOM     12  C   UNL     1      -0.493  11.018  20.507  0.00  0.00    +0.000 A 
ENDBRANCH   3   6
BRANCH   5  13
ATOM     13  C   UNL     1       1.925   5.565  19.898  0.00  0.00    +0.000 A 
ATOM     14  C   UNL     1       1.741   4.627  18.880  0.00  0.00    +0.000 A 
ATOM     15  C   UNL     1       1.755   3.282  19.206  0.00  0.00    +0.000 A 
ATOM     16  N   UNL     1       1.961   2.815  20.456  0.00  0.00    +0.000 NA
ATOM     17  C   UNL     1       2.182   3.733  21.417  0.00  0.00    +0.000 A 
ATOM     18  C   UNL     1       2.188   5.099  21.188  0.00  0.00    +0.000 A 
ENDBRANCH   5  13
BRANCH   1  19
ATOM     19  C   UNL     1       3.181   7.639  17.581  0.00  0.00    +0.000 C 
BRANCH  19  23
ATOM     20  N   UNL     1       6.176   5.573  17.390  0.00  0.00    +0.000 N 
ATOM     21  C   UNL     1       5.118   6.353  16.957  0.00  0.00    +0.000 C 
ATOM     22  O   UNL     1       4.930   6.616  15.781  0.00  0.00    +0.000 OA
ATOM     23  N   UNL     1       4.327   6.844  17.958  0.00  0.00    +0.000 N 
ATOM     24  H   UNL     1       6.407   5.448  18.368  0.00  0.00    +0.000 HD
ATOM     25  H   UNL     1       4.428   6.507  18.903  0.00  0.00    +0.000 HD
BRANCH  20  27
ATOM     26  C   UNL     1       6.198   3.729  15.417  0.00  0.00    +0.000 C 
ATOM     27  S   UNL     1       7.242   4.839  16.345  0.00  0.00    +0.000 S 
ATOM     28  O   UNL     1       8.213   4.085  17.101  0.00  0.00    +0.000 OA
ATOM     29  O   UNL     1       7.667   5.896  15.441  0.00  0.00    +0.000 OA
ENDBRANCH  20  27
ENDBRANCH  19  23
ENDBRANCH   1  19
TORSDOF 5
ENDMDL
MODEL 3
REMARK VINA RESULT:      -7.7      0.698      1.212
REMARK  Name = 
REMARK  6 active torsions:
REMARK  status: ('A' for Active; 'I' for Inactive)
REMARK    1  A    between atoms: C_1  and  S_2
REMARK    2  A    between atoms: S_2  and  N_5
REMARK    3  A    between atoms: N_8  and  C_9
REMARK    4  A    between atoms: C_9  and  C_10
REMARK    5  A    between atoms: C_12  and  C_13
REMARK    6  A    between atoms: C_21  and  C_22
REMARK                            x       y       z     vdW  Elec       q    Type
REMARK                         _______ _______ _______ _____ _____    ______ ____
ROOT
ATOM      1  C   UNL     1       1.483   9.635  18.527  0.00  0.00    +0.000 A 
ATOM      2  C   UNL     1       2.081   8.519  17.874  0.00  0.00    +0.000 A 
ATOM      3  C   UNL     1       2.103   7.470  18.773  0.00  0.00    +0.000 A 
ATOM      4  O   UNL     1       1.551   7.884  19.948  0.00  0.00    +0.000 OA
ATOM      5  C   UNL     1       1.163   9.189  19.800  0.00  0.00    +0.000 A 
ENDROOT
BRANCH   3   6
ATOM      6  C   UNL     1       2.570   6.085  18.693  0.00  0.00    +0.000 A 
ATOM      7  C   UNL     1       1.871   5.167  17.890  0.00  0.00    +0.000 A 
ATOM      8  C   UNL     1       2.253   3.825  17.820  0.00  0.00    +0.000 A 
ATOM      9  C   UNL     1       3.347   3.382  18.554  0.00  0.00    +0.000 A 
ATOM     10 BR   UNL     1       3.845   1.560  18.481  0.00  0.00    +0.000 Br
ATOM     11  C   UNL     1       4.067   4.273  19.344  0.00  0.00    +0.000 A 
ATOM     12  C   UNL     1       3.682   5.620  19.412  0.00  0.00    +0.000 A 
ENDBRANCH   3   6
BRANCH   5  13
ATOM     13  C   UNL     1       0.473   9.759  20.951  0.00  0.00    +0.000 A 
ATOM     14  C   UNL     1       0.019  11.079  20.931  0.00  0.00    +0.000 A 
ATOM     15  C   UNL     1      -0.485  11.624  22.100  0.00  0.00    +0.000 A 
ATOM     16  N   UNL     1      -0.585  10.946  23.263  0.00  0.00    +0.000 NA
ATOM     17  C   UNL     1      -0.184   9.660  23.251  0.00  0.00    +0.000 A 
ATOM     18  C   UNL     1       0.331   9.027  22.132  0.00  0.00    +0.000 A 
ENDBRANCH   5  13
BRANCH   1  19
ATOM     19  C   UNL     1       1.329  10.996  17.953  0.00  0.00    +0.000 C 
BRANCH  19  23
ATOM     20  N   UNL     1       3.953  13.521  17.856  0.00  0.00    +0.000 N 
ATOM     21  C   UNL     1       2.709  12.963  18.090  0.00  0.00    +0.000 C 
ATOM     22  O   UNL     1       1.786  13.592  18.582  0.00  0.00    +0.000 OA
ATOM     23  N   UNL     1       2.609  11.638  17.768  0.00  0.00    +0.000 N 
ATOM     24  H   UNL     1       4.755  12.978  17.559  0.00  0.00    +0.000 HD
ATOM     25  H   UNL     1       3.342  11.181  17.247  0.00  0.00    +0.000 HD
BRANCH  20  27
ATOM     26  C   UNL     1       4.142  15.271  19.905  0.00  0.00    +0.000 C 
ATOM     27  S   UNL     1       4.289  15.127  18.133  0.00  0.00    +0.000 S 
ATOM     28  O   UNL     1       3.289  15.944  17.488  0.00  0.00    +0.000 OA
ATOM     29  O   UNL     1       5.696  15.276  17.798  0.00  0.00    +0.000 OA
ENDBRANCH  20  27
ENDBRANCH  19  23
ENDBRANCH   1  19
TORSDOF 5
ENDMDL
MODEL 4
REMARK VINA RESULT:      -7.7      0.913      1.390
REMARK  Name = 
REMARK  6 active torsions:
REMARK  status: ('A' for Active; 'I' for Inactive)
REMARK    1  A    between atoms: C_1  and  S_2
REMARK    2  A    between atoms: S_2  and  N_5
REMARK    3  A    between atoms: N_8  and  C_9
REMARK    4  A    between atoms: C_9  and  C_10
REMARK    5  A    between atoms: C_12  and  C_13
REMARK    6  A    between atoms: C_21  and  C_22
REMARK                            x       y       z     vdW  Elec       q    Type
REMARK                         _______ _______ _______ _____ _____    ______ ____
ROOT
ATOM      1  C   UNL     1       1.355   9.553  18.838  0.00  0.00    +0.000 A 
ATOM      2  C   UNL     1       2.056   8.389  18.412  0.00  0.00    +0.000 A 
ATOM      3  C   UNL     1       2.081   7.503  19.472  0.00  0.00    +0.000 A 
ATOM      4  O   UNL     1       1.434   8.064  20.532  0.00  0.00    +0.000 OA
ATOM      5  C   UNL     1       0.982   9.300  20.149  0.00  0.00    +0.000 A 
ENDROOT
BRANCH   3   6
ATOM      6  C   UNL     1       2.630   6.158  19.648  0.00  0.00    +0.000 A 
ATOM      7  C   UNL     1       3.807   5.799  18.968  0.00  0.00    +0.000 A 
ATOM      8  C   UNL     1       4.342   4.513  19.069  0.00  0.00    +0.000 A 
ATOM      9  C   UNL     1       3.704   3.563  19.860  0.00  0.00    +0.000 A 
ATOM     10 BR   UNL     1       4.412   1.814  19.973  0.00  0.00    +0.000 Br
ATOM     11  C   UNL     1       2.547   3.897  20.557  0.00  0.00    +0.000 A 
ATOM     12  C   UNL     1       2.013   5.189  20.455  0.00  0.00    +0.000 A 
ENDBRANCH   3   6
BRANCH   5  13
ATOM     13  C   UNL     1       0.190  10.002  21.152  0.00  0.00    +0.000 A 
ATOM     14  C   UNL     1      -0.080  11.365  21.024  0.00  0.00    +0.000 A 
ATOM     15  C   UNL     1      -0.696  12.021  22.076  0.00  0.00    +0.000 A 
ATOM     16  N   UNL     1      -1.075  11.413  23.220  0.00  0.00    +0.000 NA
ATOM     17  C   UNL     1      -0.848  10.088  23.307  0.00  0.00    +0.000 A 
ATOM     18  C   UNL     1      -0.239   9.346  22.308  0.00  0.00    +0.000 A 
ENDBRANCH   5  13
BRANCH   1  19
ATOM     19  C   UNL     1       1.160  10.790  18.039  0.00  0.00    +0.000 C 
BRANCH  19  23
ATOM     20  N   UNL     1       3.717  13.378  17.838  0.00  0.00    +0.000 N 
ATOM     21  C   UNL     1       2.499  12.788  18.129  0.00  0.00    +0.000 C 
ATOM     22  O   UNL     1       1.589  13.389  18.674  0.00  0.00    +0.000 OA
ATOM     23  N   UNL     1       2.414  11.464  17.797  0.00  0.00    +0.000 N 
ATOM     24  H   UNL     1       4.514  12.857  17.495  0.00  0.00    +0.000 HD
ATOM     25  H   UNL     1       3.129  11.031  17.234  0.00  0.00    +0.000 HD
BRANCH  20  27
ATOM     26  C   UNL     1       5.797  15.098  17.909  0.00  0.00    +0.000 C 
ATOM     27  S   UNL     1       4.029  14.987  18.117  0.00  0.00    +0.000 S 
ATOM     28  O   UNL     1       3.671  15.317  19.476  0.00  0.00    +0.000 OA
ATOM     29  O   UNL     1       3.413  15.686  16.999  0.00  0.00    +0.000 OA
ENDBRANCH  20  27
ENDBRANCH  19  23
ENDBRANCH   1  19
TORSDOF 5
ENDMDL
MODEL 5
REMARK VINA RESULT:      -7.6      6.101      8.945
REMARK  Name = 
REMARK  6 active torsions:
REMARK  status: ('A' for Active; 'I' for Inactive)
REMARK    1  A    between atoms: C_1  and  S_2
REMARK    2  A    between atoms: S_2  and  N_5
REMARK    3  A    between atoms: N_8  and  C_9
REMARK    4  A    between atoms: C_9  and  C_10
REMARK    5  A    between atoms: C_12  and  C_13
REMARK    6  A    between atoms: C_21  and  C_22
REMARK                            x       y       z     vdW  Elec       q    Type
REMARK                         _______ _______ _______ _____ _____    ______ ____
ROOT
ATOM      1  C   UNL     1       4.932   6.055  17.336  0.00  0.00    +0.000 A 
ATOM      2  C   UNL     1       4.402   7.372  17.456  0.00  0.00    +0.000 A 
ATOM      3  C   UNL     1       3.194   7.279  18.120  0.00  0.00    +0.000 A 
ATOM      4  O   UNL     1       2.951   5.970  18.414  0.00  0.00    +0.000 OA
ATOM      5  C   UNL     1       4.005   5.228  17.953  0.00  0.00    +0.000 A 
ENDROOT
BRANCH   3   6
ATOM      6  C   UNL     1       2.201   8.265  18.547  0.00  0.00    +0.000 A 
ATOM      7  C   UNL     1       1.766   8.273  19.884  0.00  0.00    +0.000 A 
ATOM      8  C   UNL     1       0.787   9.166  20.325  0.00  0.00    +0.000 A 
ATOM      9  C   UNL     1       0.229  10.071  19.430  0.00  0.00    +0.000 A 
ATOM     10 BR   UNL     1      -1.118  11.259  20.021  0.00  0.00    +0.000 Br
ATOM     11  C   UNL     1       0.652  10.096  18.105  0.00  0.00    +0.000 A 
ATOM     12  C   UNL     1       1.636   9.200  17.665  0.00  0.00    +0.000 A 
ENDBRANCH   3   6
BRANCH   5  13
ATOM     13  C   UNL     1       3.937   3.805  18.264  0.00  0.00    +0.000 A 
ATOM     14  C   UNL     1       3.108   2.951  17.534  0.00  0.00    +0.000 A 
ATOM     15  C   UNL     1       2.954   1.645  17.967  0.00  0.00    +0.000 A 
ATOM     16  N   UNL     1       3.580   1.135  19.049  0.00  0.00    +0.000 NA
ATOM     17  C   UNL     1       4.411   1.960  19.714  0.00  0.00    +0.000 A 
ATOM     18  C   UNL     1       4.630   3.280  19.357  0.00  0.00    +0.000 A 
ENDBRANCH   5  13
BRANCH   1  19
ATOM     19  C   UNL     1       6.179   5.682  16.621  0.00  0.00    +0.000 C 
BRANCH  19  23
ATOM     20  N   UNL     1       6.026   3.354  13.823  0.00  0.00    +0.000 N 
ATOM     21  C   UNL     1       6.248   4.538  14.505  0.00  0.00    +0.000 C 
ATOM     22  O   UNL     1       6.668   5.544  13.960  0.00  0.00    +0.000 OA
ATOM     23  N   UNL     1       6.002   4.474  15.849  0.00  0.00    +0.000 N 
ATOM     24  H   UNL     1       5.790   2.485  14.287  0.00  0.00    +0.000 HD
ATOM     25  H   UNL     1       5.535   3.674  16.247  0.00  0.00    +0.000 HD
BRANCH  20  27
ATOM     26  C   UNL     1       4.597   3.602  11.545  0.00  0.00    +0.000 C 
ATOM     27  S   UNL     1       6.218   3.212  12.177  0.00  0.00    +0.000 S 
ATOM     28  O   UNL     1       6.559   1.848  11.850  0.00  0.00    +0.000 OA
ATOM     29  O   UNL     1       7.106   4.305  11.809  0.00  0.00    +0.000 OA
ENDBRANCH  20  27
ENDBRANCH  19  23
ENDBRANCH   1  19
TORSDOF 5
ENDMDL
MODEL 6
REMARK VINA RESULT:      -7.4      1.096      1.233
REMARK  Name = 
REMARK  6 active torsions:
REMARK  status: ('A' for Active; 'I' for Inactive)
REMARK    1  A    between atoms: C_1  and  S_2
REMARK    2  A    between atoms: S_2  and  N_5
REMARK    3  A    between atoms: N_8  and  C_9
REMARK    4  A    between atoms: C_9  and  C_10
REMARK    5  A    between atoms: C_12  and  C_13
REMARK    6  A    between atoms: C_21  and  C_22
REMARK                            x       y       z     vdW  Elec       q    Type
REMARK                         _______ _______ _______ _____ _____    ______ ____
ROOT
ATOM      1  C   UNL     1       1.291  10.530  18.789  0.00  0.00    +0.000 A 
ATOM      2  C   UNL     1       1.881   9.402  18.150  0.00  0.00    +0.000 A 
ATOM      3  C   UNL     1       1.903   8.366  19.064  0.00  0.00    +0.000 A 
ATOM      4  O   UNL     1       1.359   8.799  20.236  0.00  0.00    +0.000 OA
ATOM      5  C   UNL     1       0.977  10.104  20.071  0.00  0.00    +0.000 A 
ENDROOT
BRANCH   3   6
ATOM      6  C   UNL     1       2.363   6.978  19.002  0.00  0.00    +0.000 A 
ATOM      7  C   UNL     1       3.045   6.528  17.858  0.00  0.00    +0.000 A 
ATOM      8  C   UNL     1       3.462   5.201  17.735  0.00  0.00    +0.000 A 
ATOM      9  C   UNL     1       3.204   4.301  18.763  0.00  0.00    +0.000 A 
ATOM     10 BR   UNL     1       3.742   2.498  18.583  0.00  0.00    +0.000 Br
ATOM     11  C   UNL     1       2.546   4.724  19.913  0.00  0.00    +0.000 A 
ATOM     12  C   UNL     1       2.129   6.058  20.035  0.00  0.00    +0.000 A 
ENDBRANCH   3   6
BRANCH   5  13
ATOM     13  C   UNL     1       0.296  10.694  21.218  0.00  0.00    +0.000 A 
ATOM     14  C   UNL     1      -0.263   9.887  22.210  0.00  0.00    +0.000 A 
ATOM     15  C   UNL     1      -1.036  10.483  23.193  0.00  0.00    +0.000 A 
ATOM     16  N   UNL     1      -1.265  11.812  23.263  0.00  0.00    +0.000 NA
ATOM     17  C   UNL     1      -0.680  12.579  22.323  0.00  0.00    +0.000 A 
ATOM     18  C   UNL     1       0.110  12.075  21.303  0.00  0.00    +0.000 A 
ENDBRANCH   5  13
BRANCH   1  19
ATOM     19  C   UNL     1       1.140  11.884  18.197  0.00  0.00    +0.000 C 
BRANCH  19  23
ATOM     20  N   UNL     1       4.171  13.883  17.904  0.00  0.00    +0.000 N 
ATOM     21  C   UNL     1       2.978  13.419  18.430  0.00  0.00    +0.000 C 
ATOM     22  O   UNL     1       2.498  13.857  19.462  0.00  0.00    +0.000 OA
ATOM     23  N   UNL     1       2.405  12.397  17.726  0.00  0.00    +0.000 N 
ATOM     24  H   UNL     1       4.633  13.447  17.116  0.00  0.00    +0.000 HD
ATOM     25  H   UNL     1       2.753  12.145  16.814  0.00  0.00    +0.000 HD
BRANCH  20  27
ATOM     26  C   UNL     1       6.605  15.044  17.759  0.00  0.00    +0.000 C 
ATOM     27  S   UNL     1       5.020  15.148  18.571  0.00  0.00    +0.000 S 
ATOM     28  O   UNL     1       5.177  14.925  19.989  0.00  0.00    +0.000 OA
ATOM     29  O   UNL     1       4.354  16.345  18.080  0.00  0.00    +0.000 OA
ENDBRANCH  20  27
ENDBRANCH  19  23
ENDBRANCH   1  19
TORSDOF 5
ENDMDL
MODEL 7
REMARK VINA RESULT:      -7.4      1.137      1.321
REMARK  Name = 
REMARK  6 active torsions:
REMARK  status: ('A' for Active; 'I' for Inactive)
REMARK    1  A    between atoms: C_1  and  S_2
REMARK    2  A    between atoms: S_2  and  N_5
REMARK    3  A    between atoms: N_8  and  C_9
REMARK    4  A    between atoms: C_9  and  C_10
REMARK    5  A    between atoms: C_12  and  C_13
REMARK    6  A    between atoms: C_21  and  C_22
REMARK                            x       y       z     vdW  Elec       q    Type
REMARK                         _______ _______ _______ _____ _____    ______ ____
ROOT
ATOM      1  C   UNL     1       1.380   9.474  18.893  0.00  0.00    +0.000 A 
ATOM      2  C   UNL     1       2.012   8.281  18.438  0.00  0.00    +0.000 A 
ATOM      3  C   UNL     1       2.128   7.430  19.520  0.00  0.00    +0.000 A 
ATOM      4  O   UNL     1       1.603   8.039  20.620  0.00  0.00    +0.000 OA
ATOM      5  C   UNL     1       1.138   9.271  20.243  0.00  0.00    +0.000 A 
ENDROOT
BRANCH   3   6
ATOM      6  C   UNL     1       2.667   6.079  19.685  0.00  0.00    +0.000 A 
ATOM      7  C   UNL     1       3.898   5.751  19.092  0.00  0.00    +0.000 A 
ATOM      8  C   UNL     1       4.430   4.462  19.184  0.00  0.00    +0.000 A 
ATOM      9  C   UNL     1       3.733   3.480  19.879  0.00  0.00    +0.000 A 
ATOM     10 BR   UNL     1       4.438   1.729  19.977  0.00  0.00    +0.000 Br
ATOM     11  C   UNL     1       2.520   3.782  20.489  0.00  0.00    +0.000 A 
ATOM     12  C   UNL     1       1.990   5.077  20.396  0.00  0.00    +0.000 A 
ENDBRANCH   3   6
BRANCH   5  13
ATOM     13  C   UNL     1       0.466  10.022  21.296  0.00  0.00    +0.000 A 
ATOM     14  C   UNL     1      -0.079   9.369  22.404  0.00  0.00    +0.000 A 
ATOM     15  C   UNL     1      -0.845  10.102  23.295  0.00  0.00    +0.000 A 
ATOM     16  N   UNL     1      -1.081  11.425  23.170  0.00  0.00    +0.000 NA
ATOM     17  C   UNL     1      -0.510  12.047  22.120  0.00  0.00    +0.000 A 
ATOM     18  C   UNL     1       0.272  11.400  21.178  0.00  0.00    +0.000 A 
ENDBRANCH   5  13
BRANCH   1  19
ATOM     19  C   UNL     1       1.127  10.688  18.076  0.00  0.00    +0.000 C 
BRANCH  19  23
ATOM     20  N   UNL     1       3.607  13.349  17.869  0.00  0.00    +0.000 N 
ATOM     21  C   UNL     1       2.419  12.715  18.190  0.00  0.00    +0.000 C 
ATOM     22  O   UNL     1       1.522  13.269  18.803  0.00  0.00    +0.000 OA
ATOM     23  N   UNL     1       2.351  11.405  17.805  0.00  0.00    +0.000 N 
ATOM     24  H   UNL     1       4.400  12.864  17.466  0.00  0.00    +0.000 HD
ATOM     25  H   UNL     1       3.049  11.015  17.191  0.00  0.00    +0.000 HD
BRANCH  20  27
ATOM     26  C   UNL     1       4.060  14.974  19.978  0.00  0.00    +0.000 C 
ATOM     27  S   UNL     1       3.893  14.953  18.202  0.00  0.00    +0.000 S 
ATOM     28  O   UNL     1       2.747  15.737  17.806  0.00  0.00    +0.000 OA
ATOM     29  O   UNL     1       5.205  15.223  17.636  0.00  0.00    +0.000 OA
ENDBRANCH  20  27
ENDBRANCH  19  23
ENDBRANCH   1  19
TORSDOF 5
ENDMDL
MODEL 8
REMARK VINA RESULT:      -7.4      1.054      1.264
REMARK  Name = 
REMARK  6 active torsions:
REMARK  status: ('A' for Active; 'I' for Inactive)
REMARK    1  A    between atoms: C_1  and  S_2
REMARK    2  A    between atoms: S_2  and  N_5
REMARK    3  A    between atoms: N_8  and  C_9
REMARK    4  A    between atoms: C_9  and  C_10
REMARK    5  A    between atoms: C_12  and  C_13
REMARK    6  A    between atoms: C_21  and  C_22
REMARK                            x       y       z     vdW  Elec       q    Type
REMARK                         _______ _______ _______ _____ _____    ______ ____
ROOT
ATOM      1  C   UNL     1       1.302   9.948  18.762  0.00  0.00    +0.000 A 
ATOM      2  C   UNL     1       1.876   8.795  18.152  0.00  0.00    +0.000 A 
ATOM      3  C   UNL     1       1.941   7.803  19.111  0.00  0.00    +0.000 A 
ATOM      4  O   UNL     1       1.440   8.286  20.283  0.00  0.00    +0.000 OA
ATOM      5  C   UNL     1       1.041   9.579  20.073  0.00  0.00    +0.000 A 
ENDROOT
BRANCH   3   6
ATOM      6  C   UNL     1       2.410   6.416  19.094  0.00  0.00    +0.000 A 
ATOM      7  C   UNL     1       3.262   5.988  18.062  0.00  0.00    +0.000 A 
ATOM      8  C   UNL     1       3.697   4.664  17.980  0.00  0.00    +0.000 A 
ATOM      9  C   UNL     1       3.286   3.745  18.938  0.00  0.00    +0.000 A 
ATOM     10 BR   UNL     1       3.851   1.945  18.810  0.00  0.00    +0.000 Br
ATOM     11  C   UNL     1       2.456   4.145  19.981  0.00  0.00    +0.000 A 
ATOM     12  C   UNL     1       2.021   5.476  20.062  0.00  0.00    +0.000 A 
ENDBRANCH   3   6
BRANCH   5  13
ATOM     13  C   UNL     1       0.400  10.217  21.217  0.00  0.00    +0.000 A 
ATOM     14  C   UNL     1      -0.041   9.460  22.304  0.00  0.00    +0.000 A 
ATOM     15  C   UNL     1      -0.784  10.086  23.290  0.00  0.00    +0.000 A 
ATOM     16  N   UNL     1      -1.092  11.400  23.278  0.00  0.00    +0.000 NA
ATOM     17  C   UNL     1      -0.618  12.124  22.245  0.00  0.00    +0.000 A 
ATOM     18  C   UNL     1       0.133  11.588  21.212  0.00  0.00    +0.000 A 
ENDBRANCH   5  13
BRANCH   1  19
ATOM     19  C   UNL     1       1.117  11.272  18.115  0.00  0.00    +0.000 C 
BRANCH  19  23
ATOM     20  N   UNL     1       3.973  13.512  17.802  0.00  0.00    +0.000 N 
ATOM     21  C   UNL     1       2.771  13.013  18.272  0.00  0.00    +0.000 C 
ATOM     22  O   UNL     1       2.132  13.558  19.157  0.00  0.00    +0.000 OA
ATOM     23  N   UNL     1       2.380  11.836  17.698  0.00  0.00    +0.000 N 
ATOM     24  H   UNL     1       4.565  13.006  17.154  0.00  0.00    +0.000 HD
ATOM     25  H   UNL     1       2.858  11.479  16.885  0.00  0.00    +0.000 HD
BRANCH  20  27
ATOM     26  C   UNL     1       3.489  16.166  17.670  0.00  0.00    +0.000 C 
ATOM     27  S   UNL     1       4.619  14.952  18.327  0.00  0.00    +0.000 S 
ATOM     28  O   UNL     1       5.928  15.130  17.744  0.00  0.00    +0.000 OA
ATOM     29  O   UNL     1       4.449  14.933  19.771  0.00  0.00    +0.000 OA
ENDBRANCH  20  27
ENDBRANCH  19  23
ENDBRANCH   1  19
TORSDOF 5
ENDMDL
MODEL 9
REMARK VINA RESULT:      -7.3      3.477      5.366
REMARK  Name = 
REMARK  6 active torsions:
REMARK  status: ('A' for Active; 'I' for Inactive)
REMARK    1  A    between atoms: C_1  and  S_2
REMARK    2  A    between atoms: S_2  and  N_5
REMARK    3  A    between atoms: N_8  and  C_9
REMARK    4  A    between atoms: C_9  and  C_10
REMARK    5  A    between atoms: C_12  and  C_13
REMARK    6  A    between atoms: C_21  and  C_22
REMARK                            x       y       z     vdW  Elec       q    Type
REMARK                         _______ _______ _______ _____ _____    ______ ____
ROOT
ATOM      1  C   UNL     1       0.680   9.444  21.858  0.00  0.00    +0.000 A 
ATOM      2  C   UNL     1       1.286   8.177  21.614  0.00  0.00    +0.000 A 
ATOM      3  C   UNL     1       1.629   8.127  20.277  0.00  0.00    +0.000 A 
ATOM      4  O   UNL     1       1.263   9.298  19.682  0.00  0.00    +0.000 OA
ATOM      5  C   UNL     1       0.700  10.102  20.637  0.00  0.00    +0.000 A 
ENDROOT
BRANCH   3   6
ATOM      6  C   UNL     1       2.281   7.117  19.442  0.00  0.00    +0.000 A 
ATOM      7  C   UNL     1       2.301   5.778  19.868  0.00  0.00    +0.000 A 
ATOM      8  C   UNL     1       2.951   4.788  19.127  0.00  0.00    +0.000 A 
ATOM      9  C   UNL     1       3.591   5.127  17.940  0.00  0.00    +0.000 A 
ATOM     10 BR   UNL     1       4.496   3.793  16.954  0.00  0.00    +0.000 Br
ATOM     11  C   UNL     1       3.574   6.443  17.487  0.00  0.00    +0.000 A 
ATOM     12  C   UNL     1       2.919   7.434  18.232  0.00  0.00    +0.000 A 
ENDBRANCH   3   6
BRANCH   5  13
ATOM     13  C   UNL     1       0.327  11.434  20.176  0.00  0.00    +0.000 A 
ATOM     14  C   UNL     1       1.165  12.528  20.396  0.00  0.00    +0.000 A 
ATOM     15  C   UNL     1       0.699  13.794  20.085  0.00  0.00    +0.000 A 
ATOM     16  N   UNL     1      -0.519  14.036  19.556  0.00  0.00    +0.000 NA
ATOM     17  C   UNL     1      -1.296  12.964  19.308  0.00  0.00    +0.000 A 
ATOM     18  C   UNL     1      -0.917  11.661  19.583  0.00  0.00    +0.000 A 
ENDBRANCH   5  13
BRANCH   1  19
ATOM     19  C   UNL     1       0.091   9.891  23.145  0.00  0.00    +0.000 C 
BRANCH  19  23
ATOM     20  N   UNL     1      -2.946  11.899  22.997  0.00  0.00    +0.000 N 
ATOM     21  C   UNL     1      -1.600  11.604  23.129  0.00  0.00    +0.000 C 
ATOM     22  O   UNL     1      -0.753  12.460  23.319  0.00  0.00    +0.000 OA
ATOM     23  N   UNL     1      -1.291  10.280  22.985  0.00  0.00    +0.000 N 
ATOM     24  H   UNL     1      -3.637  11.211  22.723  0.00  0.00    +0.000 HD
ATOM     25  H   UNL     1      -2.020   9.583  22.958  0.00  0.00    +0.000 HD
BRANCH  20  27
ATOM     26  C   UNL     1      -5.306  13.209  22.927  0.00  0.00    +0.000 C 
ATOM     27  S   UNL     1      -3.555  13.436  23.176  0.00  0.00    +0.000 S 
ATOM     28  O   UNL     1      -3.017  14.289  22.143  0.00  0.00    +0.000 OA
ATOM     29  O   UNL     1      -3.350  13.756  24.580  0.00  0.00    +0.000 OA
ENDBRANCH  20  27
ENDBRANCH  19  23
ENDBRANCH   1  19
TORSDOF 5
ENDMDL
