MODEL 1
REMARK VINA RESULT:      -8.4      0.000      0.000
REMARK  Name = 
REMARK  8 active torsions:
REMARK  status: ('A' for Active; 'I' for Inactive)
REMARK    1  A    between atoms: C_1  and  N_2
REMARK    2  A    between atoms: N_2  and  C_3
REMARK    3  A    between atoms: N_2  and  C_4
REMARK    4  A    between atoms: C_4  and  C_5
REMARK    5  A    between atoms: C_5  and  N_6
REMARK    6  A    between atoms: N_6  and  C_7
REMARK    7  A    between atoms: C_9  and  C_10
REMARK    8  A    between atoms: C_11  and  C_12
REMARK                            x       y       z     vdW  Elec       q    Type
REMARK                         _______ _______ _______ _____ _____    ______ ____
ROOT
ATOM      1  C   UNL     1       6.274   4.722  18.220  0.00  0.00    +0.000 A 
ATOM      2  C   UNL     1       7.013   5.771  18.777  0.00  0.00    +0.000 A 
ATOM      3  C   UNL     1       7.626   6.690  17.948  0.00  0.00    +0.000 A 
ATOM      4  N   UNL     1       7.602   6.612  16.607  0.00  0.00    +0.000 NA
ATOM      5  C   UNL     1       6.963   5.573  16.051  0.00  0.00    +0.000 A 
ATOM      6  C   UNL     1       6.982   5.485  14.667  0.00  0.00    +0.000 A 
ATOM      7  C   UNL     1       6.339   4.455  13.981  0.00  0.00    +0.000 A 
ATOM      8  C   UNL     1       5.653   3.485  14.694  0.00  0.00    +0.000 A 
ATOM      9  C   UNL     1       5.623   3.546  16.089  0.00  0.00    +0.000 A 
ATOM     10  C   UNL     1       6.275   4.587  16.802  0.00  0.00    +0.000 A 
ENDROOT
BRANCH   1  11
ATOM     11  N   UNL     1       5.634   3.789  19.059  0.00  0.00    +0.000 N 
ATOM     12  H   UNL     1       5.811   2.814  18.839  0.00  0.00    +0.000 HD
BRANCH  11  13
ATOM     13  C   UNL     1       4.229   4.031  19.416  0.00  0.00    +0.000 C 
BRANCH  13  14
ATOM     14  C   UNL     1       3.374   2.745  19.304  0.00  0.00    +0.000 C 
BRANCH  14  16
ATOM     15  C   UNL     1       1.054   2.282  18.739  0.00  0.00    +0.000 C 
ATOM     16  N   UNL     1       2.354   2.738  18.237  0.00  0.00    +0.000 NA
ATOM     17  C   UNL     1       2.217   4.084  17.672  0.00  0.00    +0.000 C 
ENDBRANCH  14  16
ENDBRANCH  13  14
ENDBRANCH  11  13
ENDBRANCH   1  11
BRANCH   3  18
ATOM     18  C   UNL     1       8.271   7.872  18.513  0.00  0.00    +0.000 C 
ATOM     19  C   UNL     1       8.197   9.086  17.947  0.00  0.00    +0.000 C 
BRANCH  19  20
ATOM     20  C   UNL     1       8.858  10.284  18.492  0.00  0.00    +0.000 A 
ATOM     21  C   UNL     1       9.406  10.233  19.780  0.00  0.00    +0.000 A 
ATOM     22  C   UNL     1      10.053  11.346  20.327  0.00  0.00    +0.000 A 
ATOM     23  C   UNL     1      10.166  12.520  19.585  0.00  0.00    +0.000 A 
ATOM     24  C   UNL     1       9.642  12.581  18.298  0.00  0.00    +0.000 A 
ATOM     25  C   UNL     1       8.999  11.468  17.752  0.00  0.00    +0.000 A 
ENDBRANCH  19  20
ENDBRANCH   3  18
TORSDOF 6
ENDMDL
MODEL 2
REMARK VINA RESULT:      -8.2      0.621      1.221
REMARK  Name = 
REMARK  8 active torsions:
REMARK  status: ('A' for Active; 'I' for Inactive)
REMARK    1  A    between atoms: C_1  and  N_2
REMARK    2  A    between atoms: N_2  and  C_3
REMARK    3  A    between atoms: N_2  and  C_4
REMARK    4  A    between atoms: C_4  and  C_5
REMARK    5  A    between atoms: C_5  and  N_6
REMARK    6  A    between atoms: N_6  and  C_7
REMARK    7  A    between atoms: C_9  and  C_10
REMARK    8  A    between atoms: C_11  and  C_12
REMARK                            x       y       z     vdW  Elec       q    Type
REMARK                         _______ _______ _______ _____ _____    ______ ____
ROOT
ATOM      1  C   UNL     1       6.210   4.751  18.280  0.00  0.00    +0.000 A 
ATOM      2  C   UNL     1       6.985   5.764  18.854  0.00  0.00    +0.000 A 
ATOM      3  C   UNL     1       7.660   6.652  18.040  0.00  0.00    +0.000 A 
ATOM      4  N   UNL     1       7.665   6.573  16.698  0.00  0.00    +0.000 NA
ATOM      5  C   UNL     1       6.990   5.566  16.128  0.00  0.00    +0.000 A 
ATOM      6  C   UNL     1       7.038   5.475  14.744  0.00  0.00    +0.000 A 
ATOM      7  C   UNL     1       6.363   4.476  14.044  0.00  0.00    +0.000 A 
ATOM      8  C   UNL     1       5.615   3.540  14.740  0.00  0.00    +0.000 A 
ATOM      9  C   UNL     1       5.555   3.605  16.134  0.00  0.00    +0.000 A 
ATOM     10  C   UNL     1       6.239   4.614  16.862  0.00  0.00    +0.000 A 
ENDROOT
BRANCH   1  11
ATOM     11  N   UNL     1       5.507   3.851  19.104  0.00  0.00    +0.000 N 
ATOM     12  H   UNL     1       5.586   2.873  18.844  0.00  0.00    +0.000 HD
BRANCH  11  13
ATOM     13  C   UNL     1       4.141   4.208  19.508  0.00  0.00    +0.000 C 
BRANCH  13  14
ATOM     14  C   UNL     1       3.119   3.107  19.136  0.00  0.00    +0.000 C 
BRANCH  14  16
ATOM     15  C   UNL     1       0.815   2.413  18.780  0.00  0.00    +0.000 C 
ATOM     16  N   UNL     1       1.696   3.461  19.305  0.00  0.00    +0.000 NA
ATOM     17  C   UNL     1       1.405   3.680  20.726  0.00  0.00    +0.000 C 
ENDBRANCH  14  16
ENDBRANCH  13  14
ENDBRANCH  11  13
ENDBRANCH   1  11
BRANCH   3  18
ATOM     18  C   UNL     1       8.348   7.803  18.619  0.00  0.00    +0.000 C 
ATOM     19  C   UNL     1       8.306   9.029  18.076  0.00  0.00    +0.000 C 
BRANCH  19  20
ATOM     20  C   UNL     1       9.010  10.195  18.636  0.00  0.00    +0.000 A 
ATOM     21  C   UNL     1       9.384  11.240  17.780  0.00  0.00    +0.000 A 
ATOM     22  C   UNL     1      10.042  12.370  18.277  0.00  0.00    +0.000 A 
ATOM     23  C   UNL     1      10.326  12.470  19.638  0.00  0.00    +0.000 A 
ATOM     24  C   UNL     1       9.946  11.448  20.502  0.00  0.00    +0.000 A 
ATOM     25  C   UNL     1       9.286  10.321  20.006  0.00  0.00    +0.000 A 
ENDBRANCH  19  20
ENDBRANCH   3  18
TORSDOF 6
ENDMDL
MODEL 3
REMARK VINA RESULT:      -7.8      4.330      5.382
REMARK  Name = 
REMARK  8 active torsions:
REMARK  status: ('A' for Active; 'I' for Inactive)
REMARK    1  A    between atoms: C_1  and  N_2
REMARK    2  A    between atoms: N_2  and  C_3
REMARK    3  A    between atoms: N_2  and  C_4
REMARK    4  A    between atoms: C_4  and  C_5
REMARK    5  A    between atoms: C_5  and  N_6
REMARK    6  A    between atoms: N_6  and  C_7
REMARK    7  A    between atoms: C_9  and  C_10
REMARK    8  A    between atoms: C_11  and  C_12
REMARK                            x       y       z     vdW  Elec       q    Type
REMARK                         _______ _______ _______ _____ _____    ______ ____
ROOT
ATOM      1  C   UNL     1       4.833   4.358  18.657  0.00  0.00    +0.000 A 
ATOM      2  C   UNL     1       3.972   5.274  19.270  0.00  0.00    +0.000 A 
ATOM      3  C   UNL     1       3.521   6.370  18.560  0.00  0.00    +0.000 A 
ATOM      4  N   UNL     1       3.906   6.649  17.304  0.00  0.00    +0.000 NA
ATOM      5  C   UNL     1       4.789   5.826  16.721  0.00  0.00    +0.000 A 
ATOM      6  C   UNL     1       5.207   6.151  15.439  0.00  0.00    +0.000 A 
ATOM      7  C   UNL     1       6.112   5.359  14.732  0.00  0.00    +0.000 A 
ATOM      8  C   UNL     1       6.615   4.208  15.317  0.00  0.00    +0.000 A 
ATOM      9  C   UNL     1       6.215   3.861  16.609  0.00  0.00    +0.000 A 
ATOM     10  C   UNL     1       5.296   4.658  17.344  0.00  0.00    +0.000 A 
ENDROOT
BRANCH   1  11
ATOM     11  N   UNL     1       5.285   3.231  19.370  0.00  0.00    +0.000 N 
ATOM     12  H   UNL     1       6.028   2.704  18.923  0.00  0.00    +0.000 HD
BRANCH  11  13
ATOM     13  C   UNL     1       4.280   2.356  19.988  0.00  0.00    +0.000 C 
BRANCH  13  14
ATOM     14  C   UNL     1       3.256   1.829  18.954  0.00  0.00    +0.000 C 
BRANCH  14  16
ATOM     15  C   UNL     1       1.662   2.543  20.647  0.00  0.00    +0.000 C 
ATOM     16  N   UNL     1       1.834   2.070  19.270  0.00  0.00    +0.000 NA
ATOM     17  C   UNL     1       1.280   3.058  18.339  0.00  0.00    +0.000 C 
ENDBRANCH  14  16
ENDBRANCH  13  14
ENDBRANCH  11  13
ENDBRANCH   1  11
BRANCH   3  18
ATOM     18  C   UNL     1       2.507   7.250  19.134  0.00  0.00    +0.000 C 
ATOM     19  C   UNL     1       2.056   8.349  18.510  0.00  0.00    +0.000 C 
BRANCH  19  20
ATOM     20  C   UNL     1       1.049   9.258  19.083  0.00  0.00    +0.000 A 
ATOM     21  C   UNL     1       0.961   9.387  20.475  0.00  0.00    +0.000 A 
ATOM     22  C   UNL     1       0.026  10.250  21.055  0.00  0.00    +0.000 A 
ATOM     23  C   UNL     1      -0.826  11.001  20.247  0.00  0.00    +0.000 A 
ATOM     24  C   UNL     1      -0.739  10.896  18.863  0.00  0.00    +0.000 A 
ATOM     25  C   UNL     1       0.198  10.036  18.284  0.00  0.00    +0.000 A 
ENDBRANCH  19  20
ENDBRANCH   3  18
TORSDOF 6
ENDMDL
MODEL 4
REMARK VINA RESULT:      -7.8      0.851      1.509
REMARK  Name = 
REMARK  8 active torsions:
REMARK  status: ('A' for Active; 'I' for Inactive)
REMARK    1  A    between atoms: C_1  and  N_2
REMARK    2  A    between atoms: N_2  and  C_3
REMARK    3  A    between atoms: N_2  and  C_4
REMARK    4  A    between atoms: C_4  and  C_5
REMARK    5  A    between atoms: C_5  and  N_6
REMARK    6  A    between atoms: N_6  and  C_7
REMARK    7  A    between atoms: C_9  and  C_10
REMARK    8  A    between atoms: C_11  and  C_12
REMARK                            x       y       z     vdW  Elec       q    Type
REMARK                         _______ _______ _______ _____ _____    ______ ____
ROOT
ATOM      1  C   UNL     1       6.318   4.724  18.326  0.00  0.00    +0.000 A 
ATOM      2  C   UNL     1       7.084   5.760  18.870  0.00  0.00    +0.000 A 
ATOM      3  C   UNL     1       7.707   6.663  18.031  0.00  0.00    +0.000 A 
ATOM      4  N   UNL     1       7.667   6.580  16.691  0.00  0.00    +0.000 NA
ATOM      5  C   UNL     1       7.001   5.553  16.146  0.00  0.00    +0.000 A 
ATOM      6  C   UNL     1       7.004   5.459  14.762  0.00  0.00    +0.000 A 
ATOM      7  C   UNL     1       6.332   4.440  14.088  0.00  0.00    +0.000 A 
ATOM      8  C   UNL     1       5.634   3.486  14.811  0.00  0.00    +0.000 A 
ATOM      9  C   UNL     1       5.620   3.554  16.206  0.00  0.00    +0.000 A 
ATOM     10  C   UNL     1       6.301   4.584  16.908  0.00  0.00    +0.000 A 
ENDROOT
BRANCH   1  11
ATOM     11  N   UNL     1       5.668   3.809  19.175  0.00  0.00    +0.000 N 
ATOM     12  H   UNL     1       6.209   2.986  19.422  0.00  0.00    +0.000 HD
BRANCH  11  13
ATOM     13  C   UNL     1       4.263   3.484  18.896  0.00  0.00    +0.000 C 
BRANCH  13  14
ATOM     14  C   UNL     1       3.300   4.167  19.897  0.00  0.00    +0.000 C 
BRANCH  14  16
ATOM     15  C   UNL     1       2.809   6.486  19.349  0.00  0.00    +0.000 C 
ATOM     16  N   UNL     1       2.319   5.104  19.315  0.00  0.00    +0.000 NA
ATOM     17  C   UNL     1       2.029   4.721  17.929  0.00  0.00    +0.000 C 
ENDBRANCH  14  16
ENDBRANCH  13  14
ENDBRANCH  11  13
ENDBRANCH   1  11
BRANCH   3  18
ATOM     18  C   UNL     1       8.383   7.834  18.584  0.00  0.00    +0.000 C 
ATOM     19  C   UNL     1       8.243   9.067  18.074  0.00  0.00    +0.000 C 
BRANCH  19  20
ATOM     20  C   UNL     1       8.933  10.254  18.607  0.00  0.00    +0.000 A 
ATOM     21  C   UNL     1       9.160  11.347  17.759  0.00  0.00    +0.000 A 
ATOM     22  C   UNL     1       9.800  12.497  18.231  0.00  0.00    +0.000 A 
ATOM     23  C   UNL     1      10.213  12.569  19.561  0.00  0.00    +0.000 A 
ATOM     24  C   UNL     1       9.980  11.499  20.418  0.00  0.00    +0.000 A 
ATOM     25  C   UNL     1       9.337  10.352  19.947  0.00  0.00    +0.000 A 
ENDBRANCH  19  20
ENDBRANCH   3  18
TORSDOF 6
ENDMDL
MODEL 5
REMARK VINA RESULT:      -7.8      1.340      1.478
REMARK  Name = 
REMARK  8 active torsions:
REMARK  status: ('A' for Active; 'I' for Inactive)
REMARK    1  A    between atoms: C_1  and  N_2
REMARK    2  A    between atoms: N_2  and  C_3
REMARK    3  A    between atoms: N_2  and  C_4
REMARK    4  A    between atoms: C_4  and  C_5
REMARK    5  A    between atoms: C_5  and  N_6
REMARK    6  A    between atoms: N_6  and  C_7
REMARK    7  A    between atoms: C_9  and  C_10
REMARK    8  A    between atoms: C_11  and  C_12
REMARK                            x       y       z     vdW  Elec       q    Type
REMARK                         _______ _______ _______ _____ _____    ______ ____
ROOT
ATOM      1  C   UNL     1       5.124   5.974  17.451  0.00  0.00    +0.000 A 
ATOM      2  C   UNL     1       6.045   6.777  18.131  0.00  0.00    +0.000 A 
ATOM      3  C   UNL     1       7.285   7.019  17.572  0.00  0.00    +0.000 A 
ATOM      4  N   UNL     1       7.695   6.477  16.413  0.00  0.00    +0.000 NA
ATOM      5  C   UNL     1       6.858   5.644  15.780  0.00  0.00    +0.000 A 
ATOM      6  C   UNL     1       7.311   5.061  14.606  0.00  0.00    +0.000 A 
ATOM      7  C   UNL     1       6.520   4.190  13.858  0.00  0.00    +0.000 A 
ATOM      8  C   UNL     1       5.237   3.891  14.289  0.00  0.00    +0.000 A 
ATOM      9  C   UNL     1       4.758   4.459  15.471  0.00  0.00    +0.000 A 
ATOM     10  C   UNL     1       5.552   5.346  16.246  0.00  0.00    +0.000 A 
ENDROOT
BRANCH   1  11
ATOM     11  N   UNL     1       3.853   5.735  18.008  0.00  0.00    +0.000 N 
ATOM     12  H   UNL     1       3.105   6.321  17.650  0.00  0.00    +0.000 HD
BRANCH  11  13
ATOM     13  C   UNL     1       3.761   5.545  19.462  0.00  0.00    +0.000 C 
BRANCH  13  14
ATOM     14  C   UNL     1       2.354   5.067  19.896  0.00  0.00    +0.000 C 
BRANCH  14  16
ATOM     15  C   UNL     1       2.065   3.355  21.599  0.00  0.00    +0.000 C 
ATOM     16  N   UNL     1       2.218   3.622  20.166  0.00  0.00    +0.000 NA
ATOM     17  C   UNL     1       1.059   3.089  19.442  0.00  0.00    +0.000 C 
ENDBRANCH  14  16
ENDBRANCH  13  14
ENDBRANCH  11  13
ENDBRANCH   1  11
BRANCH   3  18
ATOM     18  C   UNL     1       8.197   7.975  18.194  0.00  0.00    +0.000 C 
ATOM     19  C   UNL     1       8.180   9.288  17.920  0.00  0.00    +0.000 C 
BRANCH  19  20
ATOM     20  C   UNL     1       9.105  10.262  18.522  0.00  0.00    +0.000 A 
ATOM     21  C   UNL     1       9.155  10.380  19.917  0.00  0.00    +0.000 A 
ATOM     22  C   UNL     1      10.030  11.285  20.527  0.00  0.00    +0.000 A 
ATOM     23  C   UNL     1      10.872  12.075  19.746  0.00  0.00    +0.000 A 
ATOM     24  C   UNL     1      10.845  11.957  18.360  0.00  0.00    +0.000 A 
ATOM     25  C   UNL     1       9.973  11.051  17.752  0.00  0.00    +0.000 A 
ENDBRANCH  19  20
ENDBRANCH   3  18
TORSDOF 6
ENDMDL
MODEL 6
REMARK VINA RESULT:      -7.7      4.095      5.783
REMARK  Name = 
REMARK  8 active torsions:
REMARK  status: ('A' for Active; 'I' for Inactive)
REMARK    1  A    between atoms: C_1  and  N_2
REMARK    2  A    between atoms: N_2  and  C_3
REMARK    3  A    between atoms: N_2  and  C_4
REMARK    4  A    between atoms: C_4  and  C_5
REMARK    5  A    between atoms: C_5  and  N_6
REMARK    6  A    between atoms: N_6  and  C_7
REMARK    7  A    between atoms: C_9  and  C_10
REMARK    8  A    between atoms: C_11  and  C_12
REMARK                            x       y       z     vdW  Elec       q    Type
REMARK                         _______ _______ _______ _____ _____    ______ ____
ROOT
ATOM      1  C   UNL     1       3.087   4.459  17.331  0.00  0.00    +0.000 A 
ATOM      2  C   UNL     1       2.363   5.422  18.042  0.00  0.00    +0.000 A 
ATOM      3  C   UNL     1       2.908   6.674  18.245  0.00  0.00    +0.000 A 
ATOM      4  N   UNL     1       4.141   7.022  17.840  0.00  0.00    +0.000 NA
ATOM      5  C   UNL     1       4.883   6.092  17.222  0.00  0.00    +0.000 A 
ATOM      6  C   UNL     1       6.168   6.455  16.846  0.00  0.00    +0.000 A 
ATOM      7  C   UNL     1       7.022   5.573  16.185  0.00  0.00    +0.000 A 
ATOM      8  C   UNL     1       6.585   4.293  15.886  0.00  0.00    +0.000 A 
ATOM      9  C   UNL     1       5.297   3.900  16.258  0.00  0.00    +0.000 A 
ATOM     10  C   UNL     1       4.416   4.785  16.935  0.00  0.00    +0.000 A 
ENDROOT
BRANCH   1  11
ATOM     11  N   UNL     1       2.531   3.185  17.107  0.00  0.00    +0.000 N 
ATOM     12  H   UNL     1       1.571   3.182  16.776  0.00  0.00    +0.000 HD
BRANCH  11  13
ATOM     13  C   UNL     1       2.775   2.139  18.109  0.00  0.00    +0.000 C 
BRANCH  13  14
ATOM     14  C   UNL     1       1.613   2.027  19.125  0.00  0.00    +0.000 C 
BRANCH  14  16
ATOM     15  C   UNL     1       3.366   2.663  20.688  0.00  0.00    +0.000 C 
ATOM     16  N   UNL     1       1.933   2.403  20.517  0.00  0.00    +0.000 NA
ATOM     17  C   UNL     1       1.169   3.595  20.897  0.00  0.00    +0.000 C 
ENDBRANCH  14  16
ENDBRANCH  13  14
ENDBRANCH  11  13
ENDBRANCH   1  11
BRANCH   3  18
ATOM     18  C   UNL     1       2.107   7.734  18.852  0.00  0.00    +0.000 C 
ATOM     19  C   UNL     1       1.835   7.785  20.165  0.00  0.00    +0.000 C 
BRANCH  19  20
ATOM     20  C   UNL     1       1.013   8.834  20.790  0.00  0.00    +0.000 A 
ATOM     21  C   UNL     1       0.795   8.795  22.173  0.00  0.00    +0.000 A 
ATOM     22  C   UNL     1       0.030   9.781  22.804  0.00  0.00    +0.000 A 
ATOM     23  C   UNL     1      -0.519  10.823  22.058  0.00  0.00    +0.000 A 
ATOM     24  C   UNL     1      -0.298  10.884  20.686  0.00  0.00    +0.000 A 
ATOM     25  C   UNL     1       0.469   9.900  20.057  0.00  0.00    +0.000 A 
ENDBRANCH  19  20
ENDBRANCH   3  18
TORSDOF 6
ENDMDL
MODEL 7
REMARK VINA RESULT:      -7.7      4.622      7.321
REMARK  Name = 
REMARK  8 active torsions:
REMARK  status: ('A' for Active; 'I' for Inactive)
REMARK    1  A    between atoms: C_1  and  N_2
REMARK    2  A    between atoms: N_2  and  C_3
REMARK    3  A    between atoms: N_2  and  C_4
REMARK    4  A    between atoms: C_4  and  C_5
REMARK    5  A    between atoms: C_5  and  N_6
REMARK    6  A    between atoms: N_6  and  C_7
REMARK    7  A    between atoms: C_9  and  C_10
REMARK    8  A    between atoms: C_11  and  C_12
REMARK                            x       y       z     vdW  Elec       q    Type
REMARK                         _______ _______ _______ _____ _____    ______ ____
ROOT
ATOM      1  C   UNL     1       2.823   6.116  19.306  0.00  0.00    +0.000 A 
ATOM      2  C   UNL     1       3.682   6.228  18.208  0.00  0.00    +0.000 A 
ATOM      3  C   UNL     1       4.043   5.096  17.503  0.00  0.00    +0.000 A 
ATOM      4  N   UNL     1       3.655   3.855  17.844  0.00  0.00    +0.000 NA
ATOM      5  C   UNL     1       2.893   3.715  18.937  0.00  0.00    +0.000 A 
ATOM      6  C   UNL     1       2.535   2.424  19.298  0.00  0.00    +0.000 A 
ATOM      7  C   UNL     1       1.733   2.161  20.409  0.00  0.00    +0.000 A 
ATOM      8  C   UNL     1       1.271   3.214  21.182  0.00  0.00    +0.000 A 
ATOM      9  C   UNL     1       1.621   4.523  20.844  0.00  0.00    +0.000 A 
ATOM     10  C   UNL     1       2.439   4.807  19.718  0.00  0.00    +0.000 A 
ENDROOT
BRANCH   1  11
ATOM     11  N   UNL     1       2.440   7.268  20.019  0.00  0.00    +0.000 N 
ATOM     12  H   UNL     1       1.972   7.094  20.904  0.00  0.00    +0.000 HD
BRANCH  11  13
ATOM     13  C   UNL     1       1.820   8.369  19.271  0.00  0.00    +0.000 C 
BRANCH  13  14
ATOM     14  C   UNL     1       0.948   9.269  20.180  0.00  0.00    +0.000 C 
BRANCH  14  16
ATOM     15  C   UNL     1      -0.865  10.566  19.205  0.00  0.00    +0.000 C 
ATOM     16  N   UNL     1       0.545  10.569  19.607  0.00  0.00    +0.000 NA
ATOM     17  C   UNL     1       0.773  11.635  20.589  0.00  0.00    +0.000 C 
ENDBRANCH  14  16
ENDBRANCH  13  14
ENDBRANCH  11  13
ENDBRANCH   1  11
BRANCH   3  18
ATOM     18  C   UNL     1       4.813   5.214  16.268  0.00  0.00    +0.000 C 
ATOM     19  C   UNL     1       5.227   4.151  15.561  0.00  0.00    +0.000 C 
BRANCH  19  20
ATOM     20  C   UNL     1       6.022   4.251  14.326  0.00  0.00    +0.000 A 
ATOM     21  C   UNL     1       5.637   3.502  13.206  0.00  0.00    +0.000 A 
ATOM     22  C   UNL     1       6.359   3.580  12.011  0.00  0.00    +0.000 A 
ATOM     23  C   UNL     1       7.471   4.416  11.921  0.00  0.00    +0.000 A 
ATOM     24  C   UNL     1       7.855   5.178  13.019  0.00  0.00    +0.000 A 
ATOM     25  C   UNL     1       7.132   5.102  14.211  0.00  0.00    +0.000 A 
ENDBRANCH  19  20
ENDBRANCH   3  18
TORSDOF 6
ENDMDL
MODEL 8
REMARK VINA RESULT:      -7.7      1.347      1.730
REMARK  Name = 
REMARK  8 active torsions:
REMARK  status: ('A' for Active; 'I' for Inactive)
REMARK    1  A    between atoms: C_1  and  N_2
REMARK    2  A    between atoms: N_2  and  C_3
REMARK    3  A    between atoms: N_2  and  C_4
REMARK    4  A    between atoms: C_4  and  C_5
REMARK    5  A    between atoms: C_5  and  N_6
REMARK    6  A    between atoms: N_6  and  C_7
REMARK    7  A    between atoms: C_9  and  C_10
REMARK    8  A    between atoms: C_11  and  C_12
REMARK                            x       y       z     vdW  Elec       q    Type
REMARK                         _______ _______ _______ _____ _____    ______ ____
ROOT
ATOM      1  C   UNL     1       5.084   6.014  17.335  0.00  0.00    +0.000 A 
ATOM      2  C   UNL     1       5.991   6.800  18.053  0.00  0.00    +0.000 A 
ATOM      3  C   UNL     1       7.259   7.014  17.549  0.00  0.00    +0.000 A 
ATOM      4  N   UNL     1       7.708   6.458  16.412  0.00  0.00    +0.000 NA
ATOM      5  C   UNL     1       6.883   5.641  15.744  0.00  0.00    +0.000 A 
ATOM      6  C   UNL     1       7.376   5.044  14.593  0.00  0.00    +0.000 A 
ATOM      7  C   UNL     1       6.600   4.187  13.813  0.00  0.00    +0.000 A 
ATOM      8  C   UNL     1       5.294   3.917  14.187  0.00  0.00    +0.000 A 
ATOM      9  C   UNL     1       4.774   4.500  15.345  0.00  0.00    +0.000 A 
ATOM     10  C   UNL     1       5.552   5.373  16.152  0.00  0.00    +0.000 A 
ENDROOT
BRANCH   1  11
ATOM     11  N   UNL     1       3.784   5.805  17.835  0.00  0.00    +0.000 N 
ATOM     12  H   UNL     1       3.062   6.386  17.423  0.00  0.00    +0.000 HD
BRANCH  11  13
ATOM     13  C   UNL     1       3.618   5.661  19.287  0.00  0.00    +0.000 C 
BRANCH  13  14
ATOM     14  C   UNL     1       2.476   4.680  19.646  0.00  0.00    +0.000 C 
BRANCH  14  16
ATOM     15  C   UNL     1       1.766   2.946  21.197  0.00  0.00    +0.000 C 
ATOM     16  N   UNL     1       2.873   3.469  20.391  0.00  0.00    +0.000 NA
ATOM     17  C   UNL     1       3.327   2.437  19.453  0.00  0.00    +0.000 C 
ENDBRANCH  14  16
ENDBRANCH  13  14
ENDBRANCH  11  13
ENDBRANCH   1  11
BRANCH   3  18
ATOM     18  C   UNL     1       8.163   7.952  18.209  0.00  0.00    +0.000 C 
ATOM     19  C   UNL     1       8.206   9.259  17.910  0.00  0.00    +0.000 C 
BRANCH  19  20
ATOM     20  C   UNL     1       9.125  10.215  18.551  0.00  0.00    +0.000 A 
ATOM     21  C   UNL     1       9.950  11.010  17.745  0.00  0.00    +0.000 A 
ATOM     22  C   UNL     1      10.827  11.938  18.316  0.00  0.00    +0.000 A 
ATOM     23  C   UNL     1      10.880  12.086  19.701  0.00  0.00    +0.000 A 
ATOM     24  C   UNL     1      10.055  11.316  20.513  0.00  0.00    +0.000 A 
ATOM     25  C   UNL     1       9.177  10.391  19.942  0.00  0.00    +0.000 A 
ENDBRANCH  19  20
ENDBRANCH   3  18
TORSDOF 6
ENDMDL
MODEL 9
REMARK VINA RESULT:      -7.7      6.436      9.055
REMARK  Name = 
REMARK  8 active torsions:
REMARK  status: ('A' for Active; 'I' for Inactive)
REMARK    1  A    between atoms: C_1  and  N_2
REMARK    2  A    between atoms: N_2  and  C_3
REMARK    3  A    between atoms: N_2  and  C_4
REMARK    4  A    between atoms: C_4  and  C_5
REMARK    5  A    between atoms: C_5  and  N_6
REMARK    6  A    between atoms: N_6  and  C_7
REMARK    7  A    between atoms: C_9  and  C_10
REMARK    8  A    between atoms: C_11  and  C_12
REMARK                            x       y       z     vdW  Elec       q    Type
REMARK                         _______ _______ _______ _____ _____    ______ ____
ROOT
ATOM      1  C   UNL     1       0.184  10.574  18.832  0.00  0.00    +0.000 A 
ATOM      2  C   UNL     1       1.055   9.817  18.042  0.00  0.00    +0.000 A 
ATOM      3  C   UNL     1       1.738   8.755  18.603  0.00  0.00    +0.000 A 
ATOM      4  N   UNL     1       1.659   8.427  19.903  0.00  0.00    +0.000 NA
ATOM      5  C   UNL     1       0.889   9.184  20.696  0.00  0.00    +0.000 A 
ATOM      6  C   UNL     1       0.851   8.856  22.043  0.00  0.00    +0.000 A 
ATOM      7  C   UNL     1       0.072   9.567  22.956  0.00  0.00    +0.000 A 
ATOM      8  C   UNL     1      -0.693  10.635  22.516  0.00  0.00    +0.000 A 
ATOM      9  C   UNL     1      -0.668  10.991  21.166  0.00  0.00    +0.000 A 
ATOM     10  C   UNL     1       0.122  10.279  20.224  0.00  0.00    +0.000 A 
ENDROOT
BRANCH   1  11
ATOM     11  N   UNL     1      -0.527  11.649  18.262  0.00  0.00    +0.000 N 
ATOM     12  H   UNL     1      -0.258  12.570  18.593  0.00  0.00    +0.000 HD
BRANCH  11  13
ATOM     13  C   UNL     1      -1.982  11.514  18.117  0.00  0.00    +0.000 C 
BRANCH  13  14
ATOM     14  C   UNL     1      -2.377  10.168  17.464  0.00  0.00    +0.000 C 
BRANCH  14  16
ATOM     15  C   UNL     1      -4.384  11.319  16.711  0.00  0.00    +0.000 C 
ATOM     16  N   UNL     1      -3.437  10.234  16.437  0.00  0.00    +0.000 NA
ATOM     17  C   UNL     1      -2.834  10.430  15.115  0.00  0.00    +0.000 C 
ENDBRANCH  14  16
ENDBRANCH  13  14
ENDBRANCH  11  13
ENDBRANCH   1  11
BRANCH   3  18
ATOM     18  C   UNL     1       2.531   7.864  17.760  0.00  0.00    +0.000 C 
ATOM     19  C   UNL     1       3.177   6.790  18.238  0.00  0.00    +0.000 C 
BRANCH  19  20
ATOM     20  C   UNL     1       3.998   5.893  17.406  0.00  0.00    +0.000 A 
ATOM     21  C   UNL     1       4.900   6.450  16.491  0.00  0.00    +0.000 A 
ATOM     22  C   UNL     1       5.706   5.631  15.693  0.00  0.00    +0.000 A 
ATOM     23  C   UNL     1       5.622   4.244  15.809  0.00  0.00    +0.000 A 
ATOM     24  C   UNL     1       4.742   3.677  16.726  0.00  0.00    +0.000 A 
ATOM     25  C   UNL     1       3.941   4.496  17.525  0.00  0.00    +0.000 A 
ENDBRANCH  19  20
ENDBRANCH   3  18
TORSDOF 6
ENDMDL
