MODEL 1
REMARK VINA RESULT:      -8.3      0.000      0.000
REMARK  Name = 
REMARK  11 active torsions:
REMARK  status: ('A' for Active; 'I' for Inactive)
REMARK    1  A    between atoms: C_2  and  C_3
REMARK    2  A    between atoms: C_7  and  C_8
REMARK    3  A    between atoms: C_8  and  C_9
REMARK    4  A    between atoms: C_9  and  O_11
REMARK    5  A    between atoms: O_11  and  C_12
REMARK    6  A    between atoms: C_12  and  C_13
REMARK    7  A    between atoms: N_15  and  C_16
REMARK    8  A    between atoms: C_17  and  C_18
REMARK    9  A    between atoms: N_20  and  C_21
REMARK   10  A    between atoms: C_27  and  C_28
REMARK   11  A    between atoms: C_29  and  C_30
REMARK                            x       y       z     vdW  Elec       q    Type
REMARK                         _______ _______ _______ _____ _____    ______ ____
ROOT
ATOM      1  C   UNL     1      -0.242   9.499  22.923  0.00  0.00    +0.000 C 
ENDROOT
BRANCH   1   2
ATOM      2  C   UNL     1       0.934   9.175  22.000  0.00  0.00    +0.000 C 
ATOM      3  O   UNL     1       2.086   9.496  22.285  0.00  0.00    +0.000 OA
ATOM      4  N   UNL     1       0.543   8.571  20.821  0.00  0.00    +0.000 N 
ATOM      5  H   UNL     1      -0.427   8.702  20.538  0.00  0.00    +0.000 HD
BRANCH   4   6
ATOM      6  C   UNL     1       1.434   8.171  19.846  0.00  0.00    +0.000 A 
ATOM      7  C   UNL     1       1.973   8.860  18.736  0.00  0.00    +0.000 A 
ATOM      8  C   UNL     1       1.733  10.246  18.259  0.00  0.00    +0.000 C 
ATOM      9  N   UNL     1       2.923   8.132  18.140  0.00  0.00    +0.000 NA
ATOM     10  N   UNL     1       2.834   6.902  18.708  0.00  0.00    +0.000 N 
ATOM     11  C   UNL     1       2.022   6.922  19.833  0.00  0.00    +0.000 A 
ATOM     12  C   UNL     1       1.817   5.797  20.782  0.00  0.00    +0.000 C 
BRANCH  10  13
ATOM     13  C   UNL     1       3.499   5.815  18.080  0.00  0.00    +0.000 A 
ATOM     14  C   UNL     1       4.837   5.972  17.691  0.00  0.00    +0.000 A 
ATOM     15  C   UNL     1       5.491   4.949  17.004  0.00  0.00    +0.000 A 
ATOM     16  C   UNL     1       4.805   3.780  16.677  0.00  0.00    +0.000 A 
ATOM     17  C   UNL     1       3.471   3.624  17.055  0.00  0.00    +0.000 A 
ATOM     18  C   UNL     1       2.815   4.636  17.759  0.00  0.00    +0.000 A 
ENDBRANCH  10  13
ENDBRANCH   4   6
ENDBRANCH   1   2
BRANCH   1  19
ATOM     19  O   UNL     1      -0.330  10.896  23.229  0.00  0.00    +0.000 OA
BRANCH  19  20
ATOM     20  C   UNL     1      -1.512  11.499  22.904  0.00  0.00    +0.000 C 
ATOM     21  O   UNL     1      -2.572  11.272  23.478  0.00  0.00    +0.000 OA
BRANCH  20  22
ATOM     22  C   UNL     1      -1.298  12.541  21.828  0.00  0.00    +0.000 C 
BRANCH  22  27
ATOM     23  C   UNL     1      -3.033  10.886  16.981  0.00  0.00    +0.000 A 
ATOM     24  C   UNL     1      -1.781  10.640  17.546  0.00  0.00    +0.000 A 
ATOM     25  C   UNL     1      -1.451  11.147  18.812  0.00  0.00    +0.000 A 
ATOM     26  C   UNL     1      -2.394  11.921  19.524  0.00  0.00    +0.000 A 
ATOM     27  C   UNL     1      -2.397  12.565  20.809  0.00  0.00    +0.000 A 
ATOM     28  C   UNL     1      -3.633  13.182  20.947  0.00  0.00    +0.000 A 
ATOM     29  C   UNL     1      -4.215  13.989  22.052  0.00  0.00    +0.000 C 
ATOM     30  N   UNL     1      -4.360  12.927  19.810  0.00  0.00    +0.000 N 
ATOM     31  C   UNL     1      -3.636  12.157  18.932  0.00  0.00    +0.000 A 
ATOM     32  C   UNL     1      -3.986  11.651  17.668  0.00  0.00    +0.000 A 
ATOM     33  H   UNL     1      -5.303  13.242  19.640  0.00  0.00    +0.000 HD
BRANCH  23  35
ATOM     34  C   UNL     1      -3.565   9.938  14.579  0.00  0.00    +0.000 C 
ATOM     35  C   UNL     1      -3.333  10.350  15.685  0.00  0.00    +0.000 C 
ENDBRANCH  23  35
ENDBRANCH  22  27
ENDBRANCH  20  22
ENDBRANCH  19  20
ENDBRANCH   1  19
TORSDOF 8
ENDMDL
MODEL 2
REMARK VINA RESULT:      -8.2      7.639     11.270
REMARK  Name = 
REMARK  11 active torsions:
REMARK  status: ('A' for Active; 'I' for Inactive)
REMARK    1  A    between atoms: C_2  and  C_3
REMARK    2  A    between atoms: C_7  and  C_8
REMARK    3  A    between atoms: C_8  and  C_9
REMARK    4  A    between atoms: C_9  and  O_11
REMARK    5  A    between atoms: O_11  and  C_12
REMARK    6  A    between atoms: C_12  and  C_13
REMARK    7  A    between atoms: N_15  and  C_16
REMARK    8  A    between atoms: C_17  and  C_18
REMARK    9  A    between atoms: N_20  and  C_21
REMARK   10  A    between atoms: C_27  and  C_28
REMARK   11  A    between atoms: C_29  and  C_30
REMARK                            x       y       z     vdW  Elec       q    Type
REMARK                         _______ _______ _______ _____ _____    ______ ____
ROOT
ATOM      1  C   UNL     1       8.385   8.781  18.093  0.00  0.00    +0.000 C 
ENDROOT
BRANCH   1   2
ATOM      2  C   UNL     1       8.953  10.027  18.774  0.00  0.00    +0.000 C 
ATOM      3  O   UNL     1       9.090  10.091  19.994  0.00  0.00    +0.000 OA
ATOM      4  N   UNL     1       9.210  11.055  17.888  0.00  0.00    +0.000 N 
ATOM      5  H   UNL     1       8.716  11.028  16.997  0.00  0.00    +0.000 HD
BRANCH   4   6
ATOM      6  C   UNL     1       9.745  12.268  18.275  0.00  0.00    +0.000 A 
ATOM      7  C   UNL     1      11.007  12.601  18.818  0.00  0.00    +0.000 A 
ATOM      8  C   UNL     1      12.163  11.732  19.159  0.00  0.00    +0.000 C 
ATOM      9  N   UNL     1      11.153  13.927  18.901  0.00  0.00    +0.000 NA
ATOM     10  N   UNL     1       9.922  14.436  18.640  0.00  0.00    +0.000 N 
ATOM     11  C   UNL     1       9.069  13.464  18.138  0.00  0.00    +0.000 A 
ATOM     12  C   UNL     1       7.700  13.693  17.608  0.00  0.00    +0.000 C 
BRANCH  10  13
ATOM     13  C   UNL     1       9.672  15.799  18.952  0.00  0.00    +0.000 A 
ATOM     14  C   UNL     1       9.704  16.205  20.294  0.00  0.00    +0.000 A 
ATOM     15  C   UNL     1       9.387  17.519  20.636  0.00  0.00    +0.000 A 
ATOM     16  C   UNL     1       9.009  18.425  19.646  0.00  0.00    +0.000 A 
ATOM     17  C   UNL     1       8.967  18.023  18.310  0.00  0.00    +0.000 A 
ATOM     18  C   UNL     1       9.301  16.713  17.959  0.00  0.00    +0.000 A 
ENDBRANCH  10  13
ENDBRANCH   4   6
ENDBRANCH   1   2
BRANCH   1  19
ATOM     19  O   UNL     1       8.536   7.602  18.893  0.00  0.00    +0.000 OA
BRANCH  19  20
ATOM     20  C   UNL     1       7.890   6.489  18.435  0.00  0.00    +0.000 C 
ATOM     21  O   UNL     1       8.033   5.372  18.921  0.00  0.00    +0.000 OA
BRANCH  20  22
ATOM     22  C   UNL     1       6.917   6.854  17.336  0.00  0.00    +0.000 C 
BRANCH  22  27
ATOM     23  C   UNL     1       2.570   3.839  18.457  0.00  0.00    +0.000 A 
ATOM     24  C   UNL     1       3.099   4.862  19.245  0.00  0.00    +0.000 A 
ATOM     25  C   UNL     1       4.250   5.557  18.843  0.00  0.00    +0.000 A 
ATOM     26  C   UNL     1       4.887   5.214  17.629  0.00  0.00    +0.000 A 
ATOM     27  C   UNL     1       6.039   5.710  16.926  0.00  0.00    +0.000 A 
ATOM     28  C   UNL     1       6.160   4.953  15.769  0.00  0.00    +0.000 A 
ATOM     29  C   UNL     1       7.147   5.003  14.657  0.00  0.00    +0.000 C 
ATOM     30  N   UNL     1       5.133   4.042  15.752  0.00  0.00    +0.000 N 
ATOM     31  C   UNL     1       4.339   4.183  16.865  0.00  0.00    +0.000 A 
ATOM     32  C   UNL     1       3.183   3.481  17.249  0.00  0.00    +0.000 A 
ATOM     33  H   UNL     1       4.965   3.370  15.019  0.00  0.00    +0.000 HD
BRANCH  23  35
ATOM     34  C   UNL     1       0.394   2.566  19.229  0.00  0.00    +0.000 C 
ATOM     35  C   UNL     1       1.391   3.154  18.901  0.00  0.00    +0.000 C 
ENDBRANCH  23  35
ENDBRANCH  22  27
ENDBRANCH  20  22
ENDBRANCH  19  20
ENDBRANCH   1  19
TORSDOF 8
ENDMDL
MODEL 3
REMARK VINA RESULT:      -8.0      0.929      1.298
REMARK  Name = 
REMARK  11 active torsions:
REMARK  status: ('A' for Active; 'I' for Inactive)
REMARK    1  A    between atoms: C_2  and  C_3
REMARK    2  A    between atoms: C_7  and  C_8
REMARK    3  A    between atoms: C_8  and  C_9
REMARK    4  A    between atoms: C_9  and  O_11
REMARK    5  A    between atoms: O_11  and  C_12
REMARK    6  A    between atoms: C_12  and  C_13
REMARK    7  A    between atoms: N_15  and  C_16
REMARK    8  A    between atoms: C_17  and  C_18
REMARK    9  A    between atoms: N_20  and  C_21
REMARK   10  A    between atoms: C_27  and  C_28
REMARK   11  A    between atoms: C_29  and  C_30
REMARK                            x       y       z     vdW  Elec       q    Type
REMARK                         _______ _______ _______ _____ _____    ______ ____
ROOT
ATOM      1  C   UNL     1      -0.617  10.523  22.599  0.00  0.00    +0.000 C 
ENDROOT
BRANCH   1   2
ATOM      2  C   UNL     1       0.503  10.269  21.589  0.00  0.00    +0.000 C 
ATOM      3  O   UNL     1       1.485  11.005  21.515  0.00  0.00    +0.000 OA
ATOM      4  N   UNL     1       0.245   9.198  20.756  0.00  0.00    +0.000 N 
ATOM      5  H   UNL     1      -0.730   8.917  20.658  0.00  0.00    +0.000 HD
BRANCH   4   6
ATOM      6  C   UNL     1       1.124   8.771  19.781  0.00  0.00    +0.000 A 
ATOM      7  C   UNL     1       1.629   9.421  18.631  0.00  0.00    +0.000 A 
ATOM      8  C   UNL     1       1.356  10.781  18.101  0.00  0.00    +0.000 C 
ATOM      9  N   UNL     1       2.580   8.683  18.048  0.00  0.00    +0.000 NA
ATOM     10  N   UNL     1       2.523   7.478  18.669  0.00  0.00    +0.000 N 
ATOM     11  C   UNL     1       1.732   7.532  19.808  0.00  0.00    +0.000 A 
ATOM     12  C   UNL     1       1.565   6.446  20.808  0.00  0.00    +0.000 C 
BRANCH  10  13
ATOM     13  C   UNL     1       3.193   6.376  18.075  0.00  0.00    +0.000 A 
ATOM     14  C   UNL     1       2.510   5.159  17.939  0.00  0.00    +0.000 A 
ATOM     15  C   UNL     1       3.167   4.039  17.429  0.00  0.00    +0.000 A 
ATOM     16  C   UNL     1       4.515   4.122  17.081  0.00  0.00    +0.000 A 
ATOM     17  C   UNL     1       5.201   5.329  17.221  0.00  0.00    +0.000 A 
ATOM     18  C   UNL     1       4.544   6.458  17.714  0.00  0.00    +0.000 A 
ENDBRANCH  10  13
ENDBRANCH   4   6
ENDBRANCH   1   2
BRANCH   1  19
ATOM     19  O   UNL     1      -0.995  11.903  22.663  0.00  0.00    +0.000 OA
BRANCH  19  20
ATOM     20  C   UNL     1      -2.327  12.146  22.841  0.00  0.00    +0.000 C 
ATOM     21  O   UNL     1      -3.015  11.576  23.681  0.00  0.00    +0.000 OA
BRANCH  20  22
ATOM     22  C   UNL     1      -2.789  13.268  21.938  0.00  0.00    +0.000 C 
BRANCH  22  27
ATOM     23  C   UNL     1      -3.205  11.124  16.992  0.00  0.00    +0.000 A 
ATOM     24  C   UNL     1      -2.026  11.476  17.650  0.00  0.00    +0.000 A 
ATOM     25  C   UNL     1      -2.060  12.045  18.932  0.00  0.00    +0.000 A 
ATOM     26  C   UNL     1      -3.303  12.269  19.565  0.00  0.00    +0.000 A 
ATOM     27  C   UNL     1      -3.697  12.804  20.841  0.00  0.00    +0.000 A 
ATOM     28  C   UNL     1      -5.084  12.768  20.881  0.00  0.00    +0.000 A 
ATOM     29  C   UNL     1      -6.051  13.180  21.932  0.00  0.00    +0.000 C 
ATOM     30  N   UNL     1      -5.526  12.232  19.696  0.00  0.00    +0.000 N 
ATOM     31  C   UNL     1      -4.467  11.913  18.881  0.00  0.00    +0.000 A 
ATOM     32  C   UNL     1      -4.450  11.336  17.599  0.00  0.00    +0.000 A 
ATOM     33  H   UNL     1      -6.493  12.074  19.454  0.00  0.00    +0.000 HD
BRANCH  23  35
ATOM     34  C   UNL     1      -3.030  10.089  14.572  0.00  0.00    +0.000 C 
ATOM     35  C   UNL     1      -3.128  10.544  15.682  0.00  0.00    +0.000 C 
ENDBRANCH  23  35
ENDBRANCH  22  27
ENDBRANCH  20  22
ENDBRANCH  19  20
ENDBRANCH   1  19
TORSDOF 8
ENDMDL
MODEL 4
REMARK VINA RESULT:      -8.0      1.041      1.458
REMARK  Name = 
REMARK  11 active torsions:
REMARK  status: ('A' for Active; 'I' for Inactive)
REMARK    1  A    between atoms: C_2  and  C_3
REMARK    2  A    between atoms: C_7  and  C_8
REMARK    3  A    between atoms: C_8  and  C_9
REMARK    4  A    between atoms: C_9  and  O_11
REMARK    5  A    between atoms: O_11  and  C_12
REMARK    6  A    between atoms: C_12  and  C_13
REMARK    7  A    between atoms: N_15  and  C_16
REMARK    8  A    between atoms: C_17  and  C_18
REMARK    9  A    between atoms: N_20  and  C_21
REMARK   10  A    between atoms: C_27  and  C_28
REMARK   11  A    between atoms: C_29  and  C_30
REMARK                            x       y       z     vdW  Elec       q    Type
REMARK                         _______ _______ _______ _____ _____    ______ ____
ROOT
ATOM      1  C   UNL     1       0.230  10.075  22.519  0.00  0.00    +0.000 C 
ENDROOT
BRANCH   1   2
ATOM      2  C   UNL     1       0.351   9.275  21.221  0.00  0.00    +0.000 C 
ATOM      3  O   UNL     1      -0.585   9.183  20.429  0.00  0.00    +0.000 OA
ATOM      4  N   UNL     1       1.567   8.632  21.096  0.00  0.00    +0.000 N 
ATOM      5  H   UNL     1       2.091   8.471  21.954  0.00  0.00    +0.000 HD
BRANCH   4   6
ATOM      6  C   UNL     1       1.907   7.868  19.997  0.00  0.00    +0.000 A 
ATOM      7  C   UNL     1       2.065   8.212  18.635  0.00  0.00    +0.000 A 
ATOM      8  C   UNL     1       1.897   9.520  17.950  0.00  0.00    +0.000 C 
ATOM      9  N   UNL     1       2.553   7.180  17.938  0.00  0.00    +0.000 NA
ATOM     10  N   UNL     1       2.488   6.120  18.784  0.00  0.00    +0.000 N 
ATOM     11  C   UNL     1       2.213   6.525  20.082  0.00  0.00    +0.000 A 
ATOM     12  C   UNL     1       2.215   5.655  21.288  0.00  0.00    +0.000 C 
BRANCH  10  13
ATOM     13  C   UNL     1       2.643   4.815  18.248  0.00  0.00    +0.000 A 
ATOM     14  C   UNL     1       1.577   3.909  18.346  0.00  0.00    +0.000 A 
ATOM     15  C   UNL     1       1.728   2.597  17.898  0.00  0.00    +0.000 A 
ATOM     16  C   UNL     1       2.951   2.176  17.377  0.00  0.00    +0.000 A 
ATOM     17  C   UNL     1       4.017   3.071  17.285  0.00  0.00    +0.000 A 
ATOM     18  C   UNL     1       3.867   4.391  17.715  0.00  0.00    +0.000 A 
ENDBRANCH  10  13
ENDBRANCH   4   6
ENDBRANCH   1   2
BRANCH   1  19
ATOM     19  O   UNL     1      -0.047  11.461  22.284  0.00  0.00    +0.000 OA
BRANCH  19  20
ATOM     20  C   UNL     1      -1.338  11.852  22.500  0.00  0.00    +0.000 C 
ATOM     21  O   UNL     1      -2.052  11.383  23.379  0.00  0.00    +0.000 OA
BRANCH  20  22
ATOM     22  C   UNL     1      -1.707  12.996  21.582  0.00  0.00    +0.000 C 
BRANCH  22  27
ATOM     23  C   UNL     1      -3.082  11.082  16.715  0.00  0.00    +0.000 A 
ATOM     24  C   UNL     1      -1.787  11.307  17.186  0.00  0.00    +0.000 A 
ATOM     25  C   UNL     1      -1.570  11.829  18.470  0.00  0.00    +0.000 A 
ATOM     26  C   UNL     1      -2.673  12.135  19.297  0.00  0.00    +0.000 A 
ATOM     27  C   UNL     1      -2.813  12.652  20.632  0.00  0.00    +0.000 A 
ATOM     28  C   UNL     1      -4.175  12.734  20.891  0.00  0.00    +0.000 A 
ATOM     29  C   UNL     1      -4.925  13.187  22.092  0.00  0.00    +0.000 C 
ATOM     30  N   UNL     1      -4.843  12.283  19.778  0.00  0.00    +0.000 N 
ATOM     31  C   UNL     1      -3.957  11.905  18.798  0.00  0.00    +0.000 A 
ATOM     32  C   UNL     1      -4.192  11.377  17.517  0.00  0.00    +0.000 A 
ATOM     33  H   UNL     1      -5.845  12.217  19.690  0.00  0.00    +0.000 HD
BRANCH  23  35
ATOM     34  C   UNL     1      -3.440  10.063  14.310  0.00  0.00    +0.000 C 
ATOM     35  C   UNL     1      -3.262  10.547  15.397  0.00  0.00    +0.000 C 
ENDBRANCH  23  35
ENDBRANCH  22  27
ENDBRANCH  20  22
ENDBRANCH  19  20
ENDBRANCH   1  19
TORSDOF 8
ENDMDL
MODEL 5
REMARK VINA RESULT:      -7.9      7.296      9.968
REMARK  Name = 
REMARK  11 active torsions:
REMARK  status: ('A' for Active; 'I' for Inactive)
REMARK    1  A    between atoms: C_2  and  C_3
REMARK    2  A    between atoms: C_7  and  C_8
REMARK    3  A    between atoms: C_8  and  C_9
REMARK    4  A    between atoms: C_9  and  O_11
REMARK    5  A    between atoms: O_11  and  C_12
REMARK    6  A    between atoms: C_12  and  C_13
REMARK    7  A    between atoms: N_15  and  C_16
REMARK    8  A    between atoms: C_17  and  C_18
REMARK    9  A    between atoms: N_20  and  C_21
REMARK   10  A    between atoms: C_27  and  C_28
REMARK   11  A    between atoms: C_29  and  C_30
REMARK                            x       y       z     vdW  Elec       q    Type
REMARK                         _______ _______ _______ _____ _____    ______ ____
ROOT
ATOM      1  C   UNL     1       7.989   9.097  17.672  0.00  0.00    +0.000 C 
ENDROOT
BRANCH   1   2
ATOM      2  C   UNL     1       7.473   7.662  17.788  0.00  0.00    +0.000 C 
ATOM      3  O   UNL     1       7.953   6.866  18.593  0.00  0.00    +0.000 OA
ATOM      4  N   UNL     1       6.494   7.364  16.860  0.00  0.00    +0.000 N 
ATOM      5  H   UNL     1       6.455   7.953  16.029  0.00  0.00    +0.000 HD
BRANCH   4   6
ATOM      6  C   UNL     1       5.869   6.135  16.790  0.00  0.00    +0.000 A 
ATOM      7  C   UNL     1       6.049   5.046  15.907  0.00  0.00    +0.000 A 
ATOM      8  C   UNL     1       6.971   4.889  14.753  0.00  0.00    +0.000 C 
ATOM      9  N   UNL     1       5.330   3.990  16.303  0.00  0.00    +0.000 NA
ATOM     10  N   UNL     1       4.520   4.462  17.285  0.00  0.00    +0.000 N 
ATOM     11  C   UNL     1       4.904   5.732  17.690  0.00  0.00    +0.000 A 
ATOM     12  C   UNL     1       4.340   6.490  18.838  0.00  0.00    +0.000 C 
BRANCH  10  13
ATOM     13  C   UNL     1       3.422   3.663  17.699  0.00  0.00    +0.000 A 
ATOM     14  C   UNL     1       2.146   4.243  17.759  0.00  0.00    +0.000 A 
ATOM     15  C   UNL     1       1.062   3.505  18.235  0.00  0.00    +0.000 A 
ATOM     16  C   UNL     1       1.252   2.198  18.680  0.00  0.00    +0.000 A 
ATOM     17  C   UNL     1       2.521   1.619  18.630  0.00  0.00    +0.000 A 
ATOM     18  C   UNL     1       3.607   2.346  18.137  0.00  0.00    +0.000 A 
ENDBRANCH  10  13
ENDBRANCH   4   6
ENDBRANCH   1   2
BRANCH   1  19
ATOM     19  O   UNL     1       9.038   9.380  18.605  0.00  0.00    +0.000 OA
BRANCH  19  20
ATOM     20  C   UNL     1       9.301  10.704  18.817  0.00  0.00    +0.000 C 
ATOM     21  O   UNL     1       8.811  11.609  18.151  0.00  0.00    +0.000 OA
BRANCH  20  22
ATOM     22  C   UNL     1      10.182  10.882  20.034  0.00  0.00    +0.000 C 
BRANCH  22  27
ATOM     23  C   UNL     1       7.627  13.638  23.922  0.00  0.00    +0.000 A 
ATOM     24  C   UNL     1       7.426  12.300  23.580  0.00  0.00    +0.000 A 
ATOM     25  C   UNL     1       8.147  11.709  22.531  0.00  0.00    +0.000 A 
ATOM     26  C   UNL     1       9.085  12.478  21.807  0.00  0.00    +0.000 A 
ATOM     27  C   UNL     1       9.981  12.200  20.716  0.00  0.00    +0.000 A 
ATOM     28  C   UNL     1      10.657  13.381  20.442  0.00  0.00    +0.000 A 
ATOM     29  C   UNL     1      11.700  13.708  19.433  0.00  0.00    +0.000 C 
ATOM     30  N   UNL     1      10.211  14.337  21.320  0.00  0.00    +0.000 N 
ATOM     31  C   UNL     1       9.262  13.815  22.167  0.00  0.00    +0.000 A 
ATOM     32  C   UNL     1       8.553  14.421  23.219  0.00  0.00    +0.000 A 
ATOM     33  H   UNL     1      10.541  15.290  21.360  0.00  0.00    +0.000 HD
BRANCH  23  35
ATOM     34  C   UNL     1       6.200  14.655  25.892  0.00  0.00    +0.000 C 
ATOM     35  C   UNL     1       6.872  14.205  25.001  0.00  0.00    +0.000 C 
ENDBRANCH  23  35
ENDBRANCH  22  27
ENDBRANCH  20  22
ENDBRANCH  19  20
ENDBRANCH   1  19
TORSDOF 8
ENDMDL
MODEL 6
REMARK VINA RESULT:      -7.9      2.415      9.608
REMARK  Name = 
REMARK  11 active torsions:
REMARK  status: ('A' for Active; 'I' for Inactive)
REMARK    1  A    between atoms: C_2  and  C_3
REMARK    2  A    between atoms: C_7  and  C_8
REMARK    3  A    between atoms: C_8  and  C_9
REMARK    4  A    between atoms: C_9  and  O_11
REMARK    5  A    between atoms: O_11  and  C_12
REMARK    6  A    between atoms: C_12  and  C_13
REMARK    7  A    between atoms: N_15  and  C_16
REMARK    8  A    between atoms: C_17  and  C_18
REMARK    9  A    between atoms: N_20  and  C_21
REMARK   10  A    between atoms: C_27  and  C_28
REMARK   11  A    between atoms: C_29  and  C_30
REMARK                            x       y       z     vdW  Elec       q    Type
REMARK                         _______ _______ _______ _____ _____    ______ ____
ROOT
ATOM      1  C   UNL     1       2.341   8.520  18.361  0.00  0.00    +0.000 C 
ENDROOT
BRANCH   1   2
ATOM      2  C   UNL     1       1.215   9.329  19.006  0.00  0.00    +0.000 C 
ATOM      3  O   UNL     1       0.925   9.199  20.194  0.00  0.00    +0.000 OA
ATOM      4  N   UNL     1       0.545  10.133  18.106  0.00  0.00    +0.000 N 
ATOM      5  H   UNL     1       0.616   9.878  17.122  0.00  0.00    +0.000 HD
BRANCH   4   6
ATOM      6  C   UNL     1      -0.495  10.966  18.467  0.00  0.00    +0.000 A 
ATOM      7  C   UNL     1      -0.521  12.134  19.264  0.00  0.00    +0.000 A 
ATOM      8  C   UNL     1       0.578  12.828  19.983  0.00  0.00    +0.000 C 
ATOM      9  N   UNL     1      -1.727  12.710  19.224  0.00  0.00    +0.000 NA
ATOM     10  N   UNL     1      -2.530  11.806  18.606  0.00  0.00    +0.000 N 
ATOM     11  C   UNL     1      -1.790  10.786  18.025  0.00  0.00    +0.000 A 
ATOM     12  C   UNL     1      -2.323   9.712  17.147  0.00  0.00    +0.000 C 
BRANCH  10  13
ATOM     13  C   UNL     1      -3.936  11.985  18.681  0.00  0.00    +0.000 A 
ATOM     14  C   UNL     1      -4.503  12.404  19.894  0.00  0.00    +0.000 A 
ATOM     15  C   UNL     1      -5.887  12.514  20.020  0.00  0.00    +0.000 A 
ATOM     16  C   UNL     1      -6.713  12.180  18.947  0.00  0.00    +0.000 A 
ATOM     17  C   UNL     1      -6.154  11.756  17.741  0.00  0.00    +0.000 A 
ATOM     18  C   UNL     1      -4.768  11.660  17.602  0.00  0.00    +0.000 A 
ENDBRANCH  10  13
ENDBRANCH   4   6
ENDBRANCH   1   2
BRANCH   1  19
ATOM     19  O   UNL     1       2.068   7.114  18.345  0.00  0.00    +0.000 OA
BRANCH  19  20
ATOM     20  C   UNL     1       2.518   6.411  19.427  0.00  0.00    +0.000 C 
ATOM     21  O   UNL     1       1.789   6.007  20.326  0.00  0.00    +0.000 OA
BRANCH  20  22
ATOM     22  C   UNL     1       3.997   6.124  19.296  0.00  0.00    +0.000 C 
BRANCH  22  27
ATOM     23  C   UNL     1       5.814   4.261  14.556  0.00  0.00    +0.000 A 
ATOM     24  C   UNL     1       5.645   5.599  14.914  0.00  0.00    +0.000 A 
ATOM     25  C   UNL     1       5.143   5.946  16.178  0.00  0.00    +0.000 A 
ATOM     26  C   UNL     1       4.800   4.931  17.098  0.00  0.00    +0.000 A 
ATOM     27  C   UNL     1       4.289   4.927  18.443  0.00  0.00    +0.000 A 
ATOM     28  C   UNL     1       4.156   3.597  18.818  0.00  0.00    +0.000 A 
ATOM     29  C   UNL     1       3.683   2.971  20.081  0.00  0.00    +0.000 C 
ATOM     30  N   UNL     1       4.570   2.818  17.765  0.00  0.00    +0.000 N 
ATOM     31  C   UNL     1       4.975   3.601  16.710  0.00  0.00    +0.000 A 
ATOM     32  C   UNL     1       5.482   3.236  15.452  0.00  0.00    +0.000 A 
ATOM     33  H   UNL     1       4.595   1.810  17.762  0.00  0.00    +0.000 HD
BRANCH  23  35
ATOM     34  C   UNL     1       6.760   3.636  12.174  0.00  0.00    +0.000 C 
ATOM     35  C   UNL     1       6.331   3.946  13.255  0.00  0.00    +0.000 C 
ENDBRANCH  23  35
ENDBRANCH  22  27
ENDBRANCH  20  22
ENDBRANCH  19  20
ENDBRANCH   1  19
TORSDOF 8
ENDMDL
MODEL 7
REMARK VINA RESULT:      -7.9      2.091      4.281
REMARK  Name = 
REMARK  11 active torsions:
REMARK  status: ('A' for Active; 'I' for Inactive)
REMARK    1  A    between atoms: C_2  and  C_3
REMARK    2  A    between atoms: C_7  and  C_8
REMARK    3  A    between atoms: C_8  and  C_9
REMARK    4  A    between atoms: C_9  and  O_11
REMARK    5  A    between atoms: O_11  and  C_12
REMARK    6  A    between atoms: C_12  and  C_13
REMARK    7  A    between atoms: N_15  and  C_16
REMARK    8  A    between atoms: C_17  and  C_18
REMARK    9  A    between atoms: N_20  and  C_21
REMARK   10  A    between atoms: C_27  and  C_28
REMARK   11  A    between atoms: C_29  and  C_30
REMARK                            x       y       z     vdW  Elec       q    Type
REMARK                         _______ _______ _______ _____ _____    ______ ____
ROOT
ATOM      1  C   UNL     1      -0.233   8.270  21.590  0.00  0.00    +0.000 C 
ENDROOT
BRANCH   1   2
ATOM      2  C   UNL     1       1.105   7.631  21.213  0.00  0.00    +0.000 C 
ATOM      3  O   UNL     1       2.175   8.192  21.441  0.00  0.00    +0.000 OA
ATOM      4  N   UNL     1       0.960   6.431  20.545  0.00  0.00    +0.000 N 
ATOM      5  H   UNL     1       0.064   6.265  20.090  0.00  0.00    +0.000 HD
BRANCH   4   6
ATOM      6  C   UNL     1       2.031   5.667  20.126  0.00  0.00    +0.000 A 
ATOM      7  C   UNL     1       2.545   4.440  20.604  0.00  0.00    +0.000 A 
ATOM      8  C   UNL     1       2.093   3.585  21.731  0.00  0.00    +0.000 C 
ATOM      9  N   UNL     1       3.509   3.983  19.797  0.00  0.00    +0.000 NA
ATOM     10  N   UNL     1       3.776   5.008  18.949  0.00  0.00    +0.000 N 
ATOM     11  C   UNL     1       2.815   6.005  19.042  0.00  0.00    +0.000 A 
ATOM     12  C   UNL     1       2.708   7.199  18.163  0.00  0.00    +0.000 C 
BRANCH  10  13
ATOM     13  C   UNL     1       4.963   4.953  18.170  0.00  0.00    +0.000 A 
ATOM     14  C   UNL     1       4.870   4.589  16.819  0.00  0.00    +0.000 A 
ATOM     15  C   UNL     1       6.026   4.452  16.050  0.00  0.00    +0.000 A 
ATOM     16  C   UNL     1       7.277   4.647  16.632  0.00  0.00    +0.000 A 
ATOM     17  C   UNL     1       7.374   5.000  17.979  0.00  0.00    +0.000 A 
ATOM     18  C   UNL     1       6.220   5.158  18.750  0.00  0.00    +0.000 A 
ENDBRANCH  10  13
ENDBRANCH   4   6
ENDBRANCH   1   2
BRANCH   1  19
ATOM     19  O   UNL     1      -0.294   9.659  21.245  0.00  0.00    +0.000 OA
BRANCH  19  20
ATOM     20  C   UNL     1      -0.246  10.532  22.294  0.00  0.00    +0.000 C 
ATOM     21  O   UNL     1      -0.053  10.190  23.456  0.00  0.00    +0.000 OA
BRANCH  20  22
ATOM     22  C   UNL     1      -0.358  11.959  21.804  0.00  0.00    +0.000 C 
BRANCH  22  27
ATOM     23  C   UNL     1      -5.435  13.142  23.238  0.00  0.00    +0.000 A 
ATOM     24  C   UNL     1      -4.394  12.773  24.091  0.00  0.00    +0.000 A 
ATOM     25  C   UNL     1      -3.121  12.472  23.582  0.00  0.00    +0.000 A 
ATOM     26  C   UNL     1      -2.890  12.539  22.191  0.00  0.00    +0.000 A 
ATOM     27  C   UNL     1      -1.741  12.317  21.353  0.00  0.00    +0.000 A 
ATOM     28  C   UNL     1      -2.148  12.542  20.046  0.00  0.00    +0.000 A 
ATOM     29  C   UNL     1      -1.410  12.471  18.757  0.00  0.00    +0.000 C 
ATOM     30  N   UNL     1      -3.477  12.891  20.071  0.00  0.00    +0.000 N 
ATOM     31  C   UNL     1      -3.951  12.906  21.361  0.00  0.00    +0.000 A 
ATOM     32  C   UNL     1      -5.230  13.217  21.854  0.00  0.00    +0.000 A 
ATOM     33  H   UNL     1      -4.032  13.125  19.262  0.00  0.00    +0.000 HD
BRANCH  23  35
ATOM     34  C   UNL     1      -7.798  13.657  24.291  0.00  0.00    +0.000 C 
ATOM     35  C   UNL     1      -6.722  13.443  23.796  0.00  0.00    +0.000 C 
ENDBRANCH  23  35
ENDBRANCH  22  27
ENDBRANCH  20  22
ENDBRANCH  19  20
ENDBRANCH   1  19
TORSDOF 8
ENDMDL
MODEL 8
REMARK VINA RESULT:      -7.8      1.404      2.348
REMARK  Name = 
REMARK  11 active torsions:
REMARK  status: ('A' for Active; 'I' for Inactive)
REMARK    1  A    between atoms: C_2  and  C_3
REMARK    2  A    between atoms: C_7  and  C_8
REMARK    3  A    between atoms: C_8  and  C_9
REMARK    4  A    between atoms: C_9  and  O_11
REMARK    5  A    between atoms: O_11  and  C_12
REMARK    6  A    between atoms: C_12  and  C_13
REMARK    7  A    between atoms: N_15  and  C_16
REMARK    8  A    between atoms: C_17  and  C_18
REMARK    9  A    between atoms: N_20  and  C_21
REMARK   10  A    between atoms: C_27  and  C_28
REMARK   11  A    between atoms: C_29  and  C_30
REMARK                            x       y       z     vdW  Elec       q    Type
REMARK                         _______ _______ _______ _____ _____    ______ ____
ROOT
ATOM      1  C   UNL     1      -0.061   8.442  21.571  0.00  0.00    +0.000 C 
ENDROOT
BRANCH   1   2
ATOM      2  C   UNL     1       1.240   7.710  21.235  0.00  0.00    +0.000 C 
ATOM      3  O   UNL     1       2.338   8.171  21.540  0.00  0.00    +0.000 OA
ATOM      4  N   UNL     1       1.035   6.553  20.510  0.00  0.00    +0.000 N 
ATOM      5  H   UNL     1       0.153   6.479  20.004  0.00  0.00    +0.000 HD
BRANCH   4   6
ATOM      6  C   UNL     1       2.061   5.720  20.112  0.00  0.00    +0.000 A 
ATOM      7  C   UNL     1       2.480   4.460  20.598  0.00  0.00    +0.000 A 
ATOM      8  C   UNL     1       1.947   3.635  21.712  0.00  0.00    +0.000 C 
ATOM      9  N   UNL     1       3.430   3.941  19.812  0.00  0.00    +0.000 NA
ATOM     10  N   UNL     1       3.785   4.947  18.974  0.00  0.00    +0.000 N 
ATOM     11  C   UNL     1       2.891   6.006  19.047  0.00  0.00    +0.000 A 
ATOM     12  C   UNL     1       2.884   7.206  18.170  0.00  0.00    +0.000 C 
BRANCH  10  13
ATOM     13  C   UNL     1       4.982   4.813  18.222  0.00  0.00    +0.000 A 
ATOM     14  C   UNL     1       6.190   5.249  18.787  0.00  0.00    +0.000 A 
ATOM     15  C   UNL     1       7.369   5.201  18.043  0.00  0.00    +0.000 A 
ATOM     16  C   UNL     1       7.343   4.746  16.725  0.00  0.00    +0.000 A 
ATOM     17  C   UNL     1       6.142   4.319  16.156  0.00  0.00    +0.000 A 
ATOM     18  C   UNL     1       4.961   4.348  16.902  0.00  0.00    +0.000 A 
ENDBRANCH  10  13
ENDBRANCH   4   6
ENDBRANCH   1   2
BRANCH   1  19
ATOM     19  O   UNL     1       0.009   9.844  21.282  0.00  0.00    +0.000 OA
BRANCH  19  20
ATOM     20  C   UNL     1      -0.728  10.654  22.099  0.00  0.00    +0.000 C 
ATOM     21  O   UNL     1      -1.147  10.310  23.199  0.00  0.00    +0.000 OA
BRANCH  20  22
ATOM     22  C   UNL     1      -0.853  12.038  21.502  0.00  0.00    +0.000 C 
BRANCH  22  27
ATOM     23  C   UNL     1      -2.814  10.734  16.635  0.00  0.00    +0.000 A 
ATOM     24  C   UNL     1      -1.551  10.416  17.136  0.00  0.00    +0.000 A 
ATOM     25  C   UNL     1      -1.159  10.835  18.416  0.00  0.00    +0.000 A 
ATOM     26  C   UNL     1      -2.051  11.592  19.209  0.00  0.00    +0.000 A 
ATOM     27  C   UNL     1      -1.987  12.157  20.530  0.00  0.00    +0.000 A 
ATOM     28  C   UNL     1      -3.196  12.801  20.751  0.00  0.00    +0.000 A 
ATOM     29  C   UNL     1      -3.712  13.556  21.924  0.00  0.00    +0.000 C 
ATOM     30  N   UNL     1      -3.972  12.637  19.629  0.00  0.00    +0.000 N 
ATOM     31  C   UNL     1      -3.306  11.900  18.680  0.00  0.00    +0.000 A 
ATOM     32  C   UNL     1      -3.717  11.483  17.402  0.00  0.00    +0.000 A 
ATOM     33  H   UNL     1      -4.911  12.989  19.515  0.00  0.00    +0.000 HD
BRANCH  23  35
ATOM     34  C   UNL     1      -3.524   9.935  14.224  0.00  0.00    +0.000 C 
ATOM     35  C   UNL     1      -3.178  10.286  15.322  0.00  0.00    +0.000 C 
ENDBRANCH  23  35
ENDBRANCH  22  27
ENDBRANCH  20  22
ENDBRANCH  19  20
ENDBRANCH   1  19
TORSDOF 8
ENDMDL
MODEL 9
REMARK VINA RESULT:      -7.8      7.284     10.517
REMARK  Name = 
REMARK  11 active torsions:
REMARK  status: ('A' for Active; 'I' for Inactive)
REMARK    1  A    between atoms: C_2  and  C_3
REMARK    2  A    between atoms: C_7  and  C_8
REMARK    3  A    between atoms: C_8  and  C_9
REMARK    4  A    between atoms: C_9  and  O_11
REMARK    5  A    between atoms: O_11  and  C_12
REMARK    6  A    between atoms: C_12  and  C_13
REMARK    7  A    between atoms: N_15  and  C_16
REMARK    8  A    between atoms: C_17  and  C_18
REMARK    9  A    between atoms: N_20  and  C_21
REMARK   10  A    between atoms: C_27  and  C_28
REMARK   11  A    between atoms: C_29  and  C_30
REMARK                            x       y       z     vdW  Elec       q    Type
REMARK                         _______ _______ _______ _____ _____    ______ ____
ROOT
ATOM      1  C   UNL     1       8.100   8.512  17.525  0.00  0.00    +0.000 C 
ENDROOT
BRANCH   1   2
ATOM      2  C   UNL     1       7.423   7.145  17.640  0.00  0.00    +0.000 C 
ATOM      3  O   UNL     1       7.909   6.237  18.312  0.00  0.00    +0.000 OA
ATOM      4  N   UNL     1       6.285   7.041  16.864  0.00  0.00    +0.000 N 
ATOM      5  H   UNL     1       6.199   7.692  16.085  0.00  0.00    +0.000 HD
BRANCH   4   6
ATOM      6  C   UNL     1       5.500   5.906  16.825  0.00  0.00    +0.000 A 
ATOM      7  C   UNL     1       5.383   4.885  15.854  0.00  0.00    +0.000 A 
ATOM      8  C   UNL     1       6.070   4.722  14.548  0.00  0.00    +0.000 C 
ATOM      9  N   UNL     1       4.607   3.892  16.300  0.00  0.00    +0.000 NA
ATOM     10  N   UNL     1       4.042   4.369  17.439  0.00  0.00    +0.000 N 
ATOM     11  C   UNL     1       4.653   5.543  17.854  0.00  0.00    +0.000 A 
ATOM     12  C   UNL     1       4.395   6.259  19.130  0.00  0.00    +0.000 C 
BRANCH  10  13
ATOM     13  C   UNL     1       2.932   3.673  17.988  0.00  0.00    +0.000 A 
ATOM     14  C   UNL     1       3.142   2.419  18.580  0.00  0.00    +0.000 A 
ATOM     15  C   UNL     1       2.060   1.680  19.058  0.00  0.00    +0.000 A 
ATOM     16  C   UNL     1       0.764   2.175  18.922  0.00  0.00    +0.000 A 
ATOM     17  C   UNL     1       0.550   3.419  18.326  0.00  0.00    +0.000 A 
ATOM     18  C   UNL     1       1.630   4.172  17.862  0.00  0.00    +0.000 A 
ENDBRANCH  10  13
ENDBRANCH   4   6
ENDBRANCH   1   2
BRANCH   1  19
ATOM     19  O   UNL     1       8.598   8.984  18.782  0.00  0.00    +0.000 OA
BRANCH  19  20
ATOM     20  C   UNL     1       8.996  10.291  18.808  0.00  0.00    +0.000 C 
ATOM     21  O   UNL     1       8.602  11.137  18.014  0.00  0.00    +0.000 OA
BRANCH  20  22
ATOM     22  C   UNL     1       9.892  10.550  19.999  0.00  0.00    +0.000 C 
BRANCH  22  27
ATOM     23  C   UNL     1       9.577  15.221  22.704  0.00  0.00    +0.000 A 
ATOM     24  C   UNL     1       8.858  14.055  22.970  0.00  0.00    +0.000 A 
ATOM     25  C   UNL     1       9.022  12.912  22.173  0.00  0.00    +0.000 A 
ATOM     26  C   UNL     1       9.922  12.940  21.085  0.00  0.00    +0.000 A 
ATOM     27  C   UNL     1      10.336  11.978  20.100  0.00  0.00    +0.000 A 
ATOM     28  C   UNL     1      11.261  12.612  19.282  0.00  0.00    +0.000 A 
ATOM     29  C   UNL     1      12.030  12.129  18.104  0.00  0.00    +0.000 C 
ATOM     30  N   UNL     1      11.418  13.897  19.740  0.00  0.00    +0.000 N 
ATOM     31  C   UNL     1      10.624  14.122  20.839  0.00  0.00    +0.000 A 
ATOM     32  C   UNL     1      10.476  15.274  21.630  0.00  0.00    +0.000 A 
ATOM     33  H   UNL     1      12.041  14.583  19.343  0.00  0.00    +0.000 HD
BRANCH  23  35
ATOM     34  C   UNL     1       9.259  17.350  24.228  0.00  0.00    +0.000 C 
ATOM     35  C   UNL     1       9.382  16.368  23.542  0.00  0.00    +0.000 C 
ENDBRANCH  23  35
ENDBRANCH  22  27
ENDBRANCH  20  22
ENDBRANCH  19  20
ENDBRANCH   1  19
TORSDOF 8
ENDMDL
