MODEL 1
REMARK VINA RESULT:      -9.0      0.000      0.000
REMARK  Name = 
REMARK  5 active torsions:
REMARK  status: ('A' for Active; 'I' for Inactive)
REMARK    1  A    between atoms: C_2  and  C_3
REMARK    2  A    between atoms: C_3  and  N_4
REMARK    3  A    between atoms: N_14  and  C_15
REMARK    4  A    between atoms: C_15  and  C_16
REMARK    5  A    between atoms: N_26  and  C_27
REMARK                            x       y       z     vdW  Elec       q    Type
REMARK                         _______ _______ _______ _____ _____    ______ ____
ROOT
ATOM      1  N   UNL     1       2.224   8.492  18.586  0.00  0.00    +0.000 N 
ATOM      2  N   UNL     1       2.210   7.758  19.780  0.00  0.00    +0.000 NA
ATOM      3  C   UNL     1       1.508   8.193  20.788  0.00  0.00    +0.000 A 
ATOM      4  C   UNL     1       0.682   9.362  20.663  0.00  0.00    +0.000 A 
ATOM      5  C   UNL     1      -0.172  10.032  21.574  0.00  0.00    +0.000 A 
ATOM      6  C   UNL     1      -0.481   9.862  22.937  0.00  0.00    +0.000 A 
ATOM      7  C   UNL     1      -1.385  10.737  23.549  0.00  0.00    +0.000 A 
ATOM      8  C   UNL     1      -1.985  11.760  22.821  0.00  0.00    +0.000 A 
ATOM      9  C   UNL     1      -1.698  11.938  21.469  0.00  0.00    +0.000 A 
ATOM     10  C   UNL     1      -0.787  11.062  20.857  0.00  0.00    +0.000 A 
ATOM     11  N   UNL     1      -0.322  11.001  19.547  0.00  0.00    +0.000 N 
ATOM     12  C   UNL     1       0.666  10.051  19.470  0.00  0.00    +0.000 A 
ATOM     13  C   UNL     1       1.548   9.713  18.385  0.00  0.00    +0.000 A 
ATOM     14  O   UNL     1       1.678  10.394  17.372  0.00  0.00    +0.000 OA
ENDROOT
BRANCH   1  15
ATOM     15  C   UNL     1       2.997   7.944  17.479  0.00  0.00    +0.000 C 
BRANCH  15  17
ATOM     16  O   UNL     1       4.807   6.419  17.974  0.00  0.00    +0.000 OA
ATOM     17  C   UNL     1       3.596   6.573  17.824  0.00  0.00    +0.000 C 
ATOM     18  N   UNL     1       2.682   5.553  18.013  0.00  0.00    +0.000 N 
ATOM     19  H   UNL     1       1.712   5.840  18.089  0.00  0.00    +0.000 HD
BRANCH  18  20
ATOM     20  C   UNL     1       3.047   4.194  18.410  0.00  0.00    +0.000 C 
ATOM     21  C   UNL     1       3.265   4.091  19.921  0.00  0.00    +0.000 C 
ATOM     22  C   UNL     1       1.978   4.181  20.735  0.00  0.00    +0.000 C 
ATOM     23  C   UNL     1       1.340   2.819  20.992  0.00  0.00    +0.000 C 
ATOM     24  C   UNL     1       0.772   2.115  19.765  0.00  0.00    +0.000 C 
ATOM     25  C   UNL     1       1.757   1.920  18.617  0.00  0.00    +0.000 C 
ATOM     26  C   UNL     1       2.015   3.207  17.838  0.00  0.00    +0.000 C 
ENDBRANCH  18  20
ENDBRANCH  15  17
ENDBRANCH   1  15
BRANCH  11  27
ATOM     27  C   UNL     1      -0.769  11.859  18.450  0.00  0.00    +0.000 C 
BRANCH  27  28
ATOM     28  C   UNL     1      -1.979  11.331  17.719  0.00  0.00    +0.000 A 
ATOM     29  C   UNL     1      -1.847  10.473  16.618  0.00  0.00    +0.000 A 
ATOM     30  C   UNL     1      -2.966  10.106  15.861  0.00  0.00    +0.000 A 
ATOM     31  C   UNL     1      -4.239  10.538  16.224  0.00  0.00    +0.000 A 
ATOM     32  C   UNL     1      -4.391  11.355  17.338  0.00  0.00    +0.000 A 
ATOM     33  C   UNL     1      -3.268  11.749  18.066  0.00  0.00    +0.000 A 
ATOM     34  F   UNL     1      -3.447  12.590  19.093  0.00  0.00    +0.000 F 
ENDBRANCH  27  28
ENDBRANCH  11  27
TORSDOF 5
ENDMDL
MODEL 2
REMARK VINA RESULT:      -8.9      0.857      1.181
REMARK  Name = 
REMARK  5 active torsions:
REMARK  status: ('A' for Active; 'I' for Inactive)
REMARK    1  A    between atoms: C_2  and  C_3
REMARK    2  A    between atoms: C_3  and  N_4
REMARK    3  A    between atoms: N_14  and  C_15
REMARK    4  A    between atoms: C_15  and  C_16
REMARK    5  A    between atoms: N_26  and  C_27
REMARK                            x       y       z     vdW  Elec       q    Type
REMARK                         _______ _______ _______ _____ _____    ______ ____
ROOT
ATOM      1  N   UNL     1       2.372   8.368  18.561  0.00  0.00    +0.000 N 
ATOM      2  N   UNL     1       2.354   7.620  19.745  0.00  0.00    +0.000 NA
ATOM      3  C   UNL     1       1.657   8.047  20.760  0.00  0.00    +0.000 A 
ATOM      4  C   UNL     1       0.840   9.225  20.651  0.00  0.00    +0.000 A 
ATOM      5  C   UNL     1      -0.007   9.889  21.572  0.00  0.00    +0.000 A 
ATOM      6  C   UNL     1      -0.315   9.705  22.933  0.00  0.00    +0.000 A 
ATOM      7  C   UNL     1      -1.211  10.579  23.558  0.00  0.00    +0.000 A 
ATOM      8  C   UNL     1      -1.804  11.616  22.844  0.00  0.00    +0.000 A 
ATOM      9  C   UNL     1      -1.518  11.808  21.493  0.00  0.00    +0.000 A 
ATOM     10  C   UNL     1      -0.615  10.934  20.869  0.00  0.00    +0.000 A 
ATOM     11  N   UNL     1      -0.152  10.885  19.557  0.00  0.00    +0.000 N 
ATOM     12  C   UNL     1       0.828   9.928  19.467  0.00  0.00    +0.000 A 
ATOM     13  C   UNL     1       1.706   9.597  18.376  0.00  0.00    +0.000 A 
ATOM     14  O   UNL     1       1.840  10.289  17.372  0.00  0.00    +0.000 OA
ENDROOT
BRANCH   1  15
ATOM     15  C   UNL     1       3.140   7.828  17.446  0.00  0.00    +0.000 C 
BRANCH  15  17
ATOM     16  O   UNL     1       4.932   6.273  17.909  0.00  0.00    +0.000 OA
ATOM     17  C   UNL     1       3.722   6.445  17.770  0.00  0.00    +0.000 C 
ATOM     18  N   UNL     1       2.796   5.436  17.955  0.00  0.00    +0.000 N 
ATOM     19  H   UNL     1       1.830   5.735  18.042  0.00  0.00    +0.000 HD
BRANCH  18  20
ATOM     20  C   UNL     1       3.145   4.068  18.333  0.00  0.00    +0.000 C 
ATOM     21  C   UNL     1       3.440   3.958  19.831  0.00  0.00    +0.000 C 
ATOM     22  C   UNL     1       2.200   4.081  20.711  0.00  0.00    +0.000 C 
ATOM     23  C   UNL     1       1.541   2.736  21.003  0.00  0.00    +0.000 C 
ATOM     24  C   UNL     1       0.891   2.048  19.808  0.00  0.00    +0.000 C 
ATOM     25  C   UNL     1       1.808   1.828  18.609  0.00  0.00    +0.000 C 
ATOM     26  C   UNL     1       2.059   3.109  17.818  0.00  0.00    +0.000 C 
ENDBRANCH  18  20
ENDBRANCH  15  17
ENDBRANCH   1  15
BRANCH  11  27
ATOM     27  C   UNL     1      -0.594  11.761  18.472  0.00  0.00    +0.000 C 
BRANCH  27  28
ATOM     28  C   UNL     1      -1.965  11.423  17.939  0.00  0.00    +0.000 A 
ATOM     29  C   UNL     1      -3.095  12.161  18.319  0.00  0.00    +0.000 A 
ATOM     30  C   UNL     1      -4.378  11.751  17.933  0.00  0.00    +0.000 A 
ATOM     31  C   UNL     1      -4.549  10.636  17.117  0.00  0.00    +0.000 A 
ATOM     32  C   UNL     1      -3.435   9.918  16.698  0.00  0.00    +0.000 A 
ATOM     33  C   UNL     1      -2.162  10.308  17.117  0.00  0.00    +0.000 A 
ATOM     34  F   UNL     1      -1.119   9.554  16.748  0.00  0.00    +0.000 F 
ENDBRANCH  27  28
ENDBRANCH  11  27
TORSDOF 5
ENDMDL
MODEL 3
REMARK VINA RESULT:      -8.8      2.882      8.657
REMARK  Name = 
REMARK  5 active torsions:
REMARK  status: ('A' for Active; 'I' for Inactive)
REMARK    1  A    between atoms: C_2  and  C_3
REMARK    2  A    between atoms: C_3  and  N_4
REMARK    3  A    between atoms: N_14  and  C_15
REMARK    4  A    between atoms: C_15  and  C_16
REMARK    5  A    between atoms: N_26  and  C_27
REMARK                            x       y       z     vdW  Elec       q    Type
REMARK                         _______ _______ _______ _____ _____    ______ ____
ROOT
ATOM      1  N   UNL     1       1.804   8.657  19.052  0.00  0.00    +0.000 N 
ATOM      2  N   UNL     1       1.237   8.419  20.310  0.00  0.00    +0.000 NA
ATOM      3  C   UNL     1       1.331   7.232  20.839  0.00  0.00    +0.000 A 
ATOM      4  C   UNL     1       2.081   6.192  20.189  0.00  0.00    +0.000 A 
ATOM      5  C   UNL     1       2.348   4.845  20.540  0.00  0.00    +0.000 A 
ATOM      6  C   UNL     1       1.939   4.003  21.590  0.00  0.00    +0.000 A 
ATOM      7  C   UNL     1       2.395   2.681  21.627  0.00  0.00    +0.000 A 
ATOM      8  C   UNL     1       3.254   2.200  20.643  0.00  0.00    +0.000 A 
ATOM      9  C   UNL     1       3.677   3.022  19.600  0.00  0.00    +0.000 A 
ATOM     10  C   UNL     1       3.215   4.347  19.562  0.00  0.00    +0.000 A 
ATOM     11  N   UNL     1       3.469   5.374  18.659  0.00  0.00    +0.000 N 
ATOM     12  C   UNL     1       2.674   6.449  18.974  0.00  0.00    +0.000 A 
ATOM     13  C   UNL     1       2.461   7.685  18.269  0.00  0.00    +0.000 A 
ATOM     14  O   UNL     1       2.839   7.891  17.120  0.00  0.00    +0.000 OA
ENDROOT
BRANCH   1  15
ATOM     15  C   UNL     1       1.701  10.011  18.521  0.00  0.00    +0.000 C 
BRANCH  15  17
ATOM     16  O   UNL     1      -0.631  10.269  17.935  0.00  0.00    +0.000 OA
ATOM     17  C   UNL     1       0.287  10.584  18.692  0.00  0.00    +0.000 C 
ATOM     18  N   UNL     1       0.108  11.418  19.779  0.00  0.00    +0.000 N 
ATOM     19  H   UNL     1       0.864  11.426  20.457  0.00  0.00    +0.000 HD
BRANCH  18  20
ATOM     20  C   UNL     1      -1.175  12.012  20.150  0.00  0.00    +0.000 C 
ATOM     21  C   UNL     1      -1.595  11.601  21.564  0.00  0.00    +0.000 C 
ATOM     22  C   UNL     1      -0.765  12.255  22.665  0.00  0.00    +0.000 C 
ATOM     23  C   UNL     1      -1.355  13.577  23.149  0.00  0.00    +0.000 C 
ATOM     24  C   UNL     1      -1.321  14.721  22.143  0.00  0.00    +0.000 C 
ATOM     25  C   UNL     1      -1.979  14.422  20.800  0.00  0.00    +0.000 C 
ATOM     26  C   UNL     1      -1.118  13.530  19.910  0.00  0.00    +0.000 C 
ENDBRANCH  18  20
ENDBRANCH  15  17
ENDBRANCH   1  15
BRANCH  11  27
ATOM     27  C   UNL     1       4.384   5.293  17.521  0.00  0.00    +0.000 C 
BRANCH  27  28
ATOM     28  C   UNL     1       5.759   5.847  17.805  0.00  0.00    +0.000 A 
ATOM     29  C   UNL     1       6.519   5.384  18.889  0.00  0.00    +0.000 A 
ATOM     30  C   UNL     1       7.728   6.005  19.228  0.00  0.00    +0.000 A 
ATOM     31  C   UNL     1       8.226   7.054  18.459  0.00  0.00    +0.000 A 
ATOM     32  C   UNL     1       7.503   7.496  17.357  0.00  0.00    +0.000 A 
ATOM     33  C   UNL     1       6.281   6.900  17.046  0.00  0.00    +0.000 A 
ATOM     34  F   UNL     1       5.582   7.396  16.017  0.00  0.00    +0.000 F 
ENDBRANCH  27  28
ENDBRANCH  11  27
TORSDOF 5
ENDMDL
MODEL 4
REMARK VINA RESULT:      -8.8      3.242      8.759
REMARK  Name = 
REMARK  5 active torsions:
REMARK  status: ('A' for Active; 'I' for Inactive)
REMARK    1  A    between atoms: C_2  and  C_3
REMARK    2  A    between atoms: C_3  and  N_4
REMARK    3  A    between atoms: N_14  and  C_15
REMARK    4  A    between atoms: C_15  and  C_16
REMARK    5  A    between atoms: N_26  and  C_27
REMARK                            x       y       z     vdW  Elec       q    Type
REMARK                         _______ _______ _______ _____ _____    ______ ____
ROOT
ATOM      1  N   UNL     1       1.372   9.381  19.545  0.00  0.00    +0.000 N 
ATOM      2  N   UNL     1       0.945   8.931  20.800  0.00  0.00    +0.000 NA
ATOM      3  C   UNL     1       1.130   7.683  21.128  0.00  0.00    +0.000 A 
ATOM      4  C   UNL     1       1.843   6.789  20.256  0.00  0.00    +0.000 A 
ATOM      5  C   UNL     1       2.188   5.419  20.367  0.00  0.00    +0.000 A 
ATOM      6  C   UNL     1       1.916   4.411  21.309  0.00  0.00    +0.000 A 
ATOM      7  C   UNL     1       2.415   3.121  21.098  0.00  0.00    +0.000 A 
ATOM      8  C   UNL     1       3.183   2.834  19.973  0.00  0.00    +0.000 A 
ATOM      9  C   UNL     1       3.471   3.823  19.033  0.00  0.00    +0.000 A 
ATOM     10  C   UNL     1       2.965   5.115  19.245  0.00  0.00    +0.000 A 
ATOM     11  N   UNL     1       3.091   6.278  18.491  0.00  0.00    +0.000 N 
ATOM     12  C   UNL     1       2.299   7.254  19.043  0.00  0.00    +0.000 A 
ATOM     13  C   UNL     1       1.975   8.570  18.561  0.00  0.00    +0.000 A 
ATOM     14  O   UNL     1       2.225   8.965  17.427  0.00  0.00    +0.000 OA
ENDROOT
BRANCH   1  15
ATOM     15  C   UNL     1       1.171  10.793  19.242  0.00  0.00    +0.000 C 
BRANCH  15  17
ATOM     16  O   UNL     1       1.805  12.233  21.079  0.00  0.00    +0.000 OA
ATOM     17  C   UNL     1       0.904  11.617  20.511  0.00  0.00    +0.000 C 
ATOM     18  N   UNL     1      -0.413  11.665  20.924  0.00  0.00    +0.000 N 
ATOM     19  H   UNL     1      -1.097  11.315  20.260  0.00  0.00    +0.000 HD
BRANCH  18  20
ATOM     20  C   UNL     1      -0.881  12.446  22.068  0.00  0.00    +0.000 C 
ATOM     21  C   UNL     1      -1.360  13.836  21.641  0.00  0.00    +0.000 C 
ATOM     22  C   UNL     1      -2.679  13.822  20.876  0.00  0.00    +0.000 C 
ATOM     23  C   UNL     1      -3.896  13.963  21.786  0.00  0.00    +0.000 C 
ATOM     24  C   UNL     1      -4.169  12.783  22.709  0.00  0.00    +0.000 C 
ATOM     25  C   UNL     1      -3.004  12.380  23.608  0.00  0.00    +0.000 C 
ATOM     26  C   UNL     1      -1.915  11.621  22.853  0.00  0.00    +0.000 C 
ENDBRANCH  18  20
ENDBRANCH  15  17
ENDBRANCH   1  15
BRANCH  11  27
ATOM     27  C   UNL     1       3.886   6.411  17.270  0.00  0.00    +0.000 C 
BRANCH  27  28
ATOM     28  C   UNL     1       5.230   5.727  17.342  0.00  0.00    +0.000 A 
ATOM     29  C   UNL     1       6.157   6.049  18.343  0.00  0.00    +0.000 A 
ATOM     30  C   UNL     1       7.451   5.514  18.315  0.00  0.00    +0.000 A 
ATOM     31  C   UNL     1       7.821   4.606  17.325  0.00  0.00    +0.000 A 
ATOM     32  C   UNL     1       6.899   4.246  16.350  0.00  0.00    +0.000 A 
ATOM     33  C   UNL     1       5.623   4.811  16.361  0.00  0.00    +0.000 A 
ATOM     34  F   UNL     1       4.784   4.490  15.367  0.00  0.00    +0.000 F 
ENDBRANCH  27  28
ENDBRANCH  11  27
TORSDOF 5
ENDMDL
MODEL 5
REMARK VINA RESULT:      -8.6      3.029      8.590
REMARK  Name = 
REMARK  5 active torsions:
REMARK  status: ('A' for Active; 'I' for Inactive)
REMARK    1  A    between atoms: C_2  and  C_3
REMARK    2  A    between atoms: C_3  and  N_4
REMARK    3  A    between atoms: N_14  and  C_15
REMARK    4  A    between atoms: C_15  and  C_16
REMARK    5  A    between atoms: N_26  and  C_27
REMARK                            x       y       z     vdW  Elec       q    Type
REMARK                         _______ _______ _______ _____ _____    ______ ____
ROOT
ATOM      1  N   UNL     1       1.496   8.952  19.483  0.00  0.00    +0.000 N 
ATOM      2  N   UNL     1       0.990   8.590  20.738  0.00  0.00    +0.000 NA
ATOM      3  C   UNL     1       1.118   7.360  21.148  0.00  0.00    +0.000 A 
ATOM      4  C   UNL     1       1.848   6.395  20.370  0.00  0.00    +0.000 A 
ATOM      5  C   UNL     1       2.144   5.025  20.580  0.00  0.00    +0.000 A 
ATOM      6  C   UNL     1       1.791   4.083  21.564  0.00  0.00    +0.000 A 
ATOM      7  C   UNL     1       2.261   2.770  21.456  0.00  0.00    +0.000 A 
ATOM      8  C   UNL     1       3.078   2.395  20.394  0.00  0.00    +0.000 A 
ATOM      9  C   UNL     1       3.445   3.316  19.414  0.00  0.00    +0.000 A 
ATOM     10  C   UNL     1       2.969   4.633  19.521  0.00  0.00    +0.000 A 
ATOM     11  N   UNL     1       3.171   5.744  18.709  0.00  0.00    +0.000 N 
ATOM     12  C   UNL     1       2.382   6.773  19.159  0.00  0.00    +0.000 A 
ATOM     13  C   UNL     1       2.125   8.066  18.584  0.00  0.00    +0.000 A 
ATOM     14  O   UNL     1       2.447   8.384  17.443  0.00  0.00    +0.000 OA
ENDROOT
BRANCH   1  15
ATOM     15  C   UNL     1       1.355  10.348  19.088  0.00  0.00    +0.000 C 
BRANCH  15  17
ATOM     16  O   UNL     1       2.026  11.903  20.813  0.00  0.00    +0.000 OA
ATOM     17  C   UNL     1       1.112  11.262  20.297  0.00  0.00    +0.000 C 
ATOM     18  N   UNL     1      -0.201  11.359  20.717  0.00  0.00    +0.000 N 
ATOM     19  H   UNL     1      -0.895  10.973  20.085  0.00  0.00    +0.000 HD
BRANCH  18  20
ATOM     20  C   UNL     1      -0.647  12.225  21.807  0.00  0.00    +0.000 C 
ATOM     21  C   UNL     1      -1.148  13.574  21.283  0.00  0.00    +0.000 C 
ATOM     22  C   UNL     1      -2.486  13.490  20.555  0.00  0.00    +0.000 C 
ATOM     23  C   UNL     1      -3.682  13.695  21.482  0.00  0.00    +0.000 C 
ATOM     24  C   UNL     1      -3.921  12.590  22.503  0.00  0.00    +0.000 C 
ATOM     25  C   UNL     1      -2.730  12.268  23.400  0.00  0.00    +0.000 C 
ATOM     26  C   UNL     1      -1.654  11.459  22.681  0.00  0.00    +0.000 C 
ENDBRANCH  18  20
ENDBRANCH  15  17
ENDBRANCH   1  15
BRANCH  11  27
ATOM     27  C   UNL     1       4.034   5.781  17.528  0.00  0.00    +0.000 C 
BRANCH  27  28
ATOM     28  C   UNL     1       5.484   6.055  17.843  0.00  0.00    +0.000 A 
ATOM     29  C   UNL     1       6.126   5.425  18.920  0.00  0.00    +0.000 A 
ATOM     30  C   UNL     1       7.425   5.794  19.290  0.00  0.00    +0.000 A 
ATOM     31  C   UNL     1       8.126   6.750  18.559  0.00  0.00    +0.000 A 
ATOM     32  C   UNL     1       7.518   7.352  17.463  0.00  0.00    +0.000 A 
ATOM     33  C   UNL     1       6.209   7.010  17.122  0.00  0.00    +0.000 A 
ATOM     34  F   UNL     1       5.634   7.659  16.102  0.00  0.00    +0.000 F 
ENDBRANCH  27  28
ENDBRANCH  11  27
TORSDOF 5
ENDMDL
MODEL 6
REMARK VINA RESULT:      -8.6      0.894      1.055
REMARK  Name = 
REMARK  5 active torsions:
REMARK  status: ('A' for Active; 'I' for Inactive)
REMARK    1  A    between atoms: C_2  and  C_3
REMARK    2  A    between atoms: C_3  and  N_4
REMARK    3  A    between atoms: N_14  and  C_15
REMARK    4  A    between atoms: C_15  and  C_16
REMARK    5  A    between atoms: N_26  and  C_27
REMARK                            x       y       z     vdW  Elec       q    Type
REMARK                         _______ _______ _______ _____ _____    ______ ____
ROOT
ATOM      1  N   UNL     1       1.903   8.476  19.249  0.00  0.00    +0.000 N 
ATOM      2  N   UNL     1       1.773   7.942  20.537  0.00  0.00    +0.000 NA
ATOM      3  C   UNL     1       1.018   8.550  21.407  0.00  0.00    +0.000 A 
ATOM      4  C   UNL     1       0.251   9.708  21.037  0.00  0.00    +0.000 A 
ATOM      5  C   UNL     1      -0.640  10.537  21.764  0.00  0.00    +0.000 A 
ATOM      6  C   UNL     1      -1.053  10.594  23.108  0.00  0.00    +0.000 A 
ATOM      7  C   UNL     1      -1.964  11.580  23.504  0.00  0.00    +0.000 A 
ATOM      8  C   UNL     1      -2.467  12.491  22.581  0.00  0.00    +0.000 A 
ATOM      9  C   UNL     1      -2.076  12.444  21.244  0.00  0.00    +0.000 A 
ATOM     10  C   UNL     1      -1.159  11.458  20.849  0.00  0.00    +0.000 A 
ATOM     11  N   UNL     1      -0.603  11.177  19.605  0.00  0.00    +0.000 N 
ATOM     12  C   UNL     1       0.349  10.199  19.755  0.00  0.00    +0.000 A 
ATOM     13  C   UNL     1       1.293   9.669  18.807  0.00  0.00    +0.000 A 
ATOM     14  O   UNL     1       1.524  10.176  17.714  0.00  0.00    +0.000 OA
ENDROOT
BRANCH   1  15
ATOM     15  C   UNL     1       2.733   7.738  18.304  0.00  0.00    +0.000 C 
BRANCH  15  17
ATOM     16  O   UNL     1       2.024   5.478  17.816  0.00  0.00    +0.000 OA
ATOM     17  C   UNL     1       2.670   6.224  18.551  0.00  0.00    +0.000 C 
ATOM     18  N   UNL     1       3.433   5.760  19.606  0.00  0.00    +0.000 N 
ATOM     19  H   UNL     1       4.096   6.422  19.995  0.00  0.00    +0.000 HD
BRANCH  18  20
ATOM     20  C   UNL     1       3.558   4.348  19.963  0.00  0.00    +0.000 C 
ATOM     21  C   UNL     1       2.480   3.924  20.963  0.00  0.00    +0.000 C 
ATOM     22  C   UNL     1       1.082   3.836  20.358  0.00  0.00    +0.000 C 
ATOM     23  C   UNL     1       0.757   2.450  19.809  0.00  0.00    +0.000 C 
ATOM     24  C   UNL     1       1.552   2.024  18.580  0.00  0.00    +0.000 C 
ATOM     25  C   UNL     1       3.068   2.080  18.738  0.00  0.00    +0.000 C 
ATOM     26  C   UNL     1       3.613   3.505  18.677  0.00  0.00    +0.000 C 
ENDBRANCH  18  20
ENDBRANCH  15  17
ENDBRANCH   1  15
BRANCH  11  27
ATOM     27  C   UNL     1      -0.934  11.863  18.356  0.00  0.00    +0.000 C 
BRANCH  27  28
ATOM     28  C   UNL     1      -2.067  11.221  17.593  0.00  0.00    +0.000 A 
ATOM     29  C   UNL     1      -1.822  10.275  16.587  0.00  0.00    +0.000 A 
ATOM     30  C   UNL     1      -2.868   9.796  15.789  0.00  0.00    +0.000 A 
ATOM     31  C   UNL     1      -4.180  10.205  16.019  0.00  0.00    +0.000 A 
ATOM     32  C   UNL     1      -4.443  11.111  17.040  0.00  0.00    +0.000 A 
ATOM     33  C   UNL     1      -3.392  11.615  17.807  0.00  0.00    +0.000 A 
ATOM     34  F   UNL     1      -3.677  12.535  18.737  0.00  0.00    +0.000 F 
ENDBRANCH  27  28
ENDBRANCH  11  27
TORSDOF 5
ENDMDL
MODEL 7
REMARK VINA RESULT:      -8.6      3.087      8.725
REMARK  Name = 
REMARK  5 active torsions:
REMARK  status: ('A' for Active; 'I' for Inactive)
REMARK    1  A    between atoms: C_2  and  C_3
REMARK    2  A    between atoms: C_3  and  N_4
REMARK    3  A    between atoms: N_14  and  C_15
REMARK    4  A    between atoms: C_15  and  C_16
REMARK    5  A    between atoms: N_26  and  C_27
REMARK                            x       y       z     vdW  Elec       q    Type
REMARK                         _______ _______ _______ _____ _____    ______ ____
ROOT
ATOM      1  N   UNL     1       1.652   8.858  19.230  0.00  0.00    +0.000 N 
ATOM      2  N   UNL     1       1.076   8.534  20.465  0.00  0.00    +0.000 NA
ATOM      3  C   UNL     1       1.180   7.316  20.917  0.00  0.00    +0.000 A 
ATOM      4  C   UNL     1       1.950   6.330  20.211  0.00  0.00    +0.000 A 
ATOM      5  C   UNL     1       2.233   4.967  20.477  0.00  0.00    +0.000 A 
ATOM      6  C   UNL     1       1.824   4.054  21.467  0.00  0.00    +0.000 A 
ATOM      7  C   UNL     1       2.297   2.738  21.425  0.00  0.00    +0.000 A 
ATOM      8  C   UNL     1       3.172   2.332  20.422  0.00  0.00    +0.000 A 
ATOM      9  C   UNL     1       3.595   3.224  19.437  0.00  0.00    +0.000 A 
ATOM     10  C   UNL     1       3.115   4.543  19.479  0.00  0.00    +0.000 A 
ATOM     11  N   UNL     1       3.364   5.630  18.646  0.00  0.00    +0.000 N 
ATOM     12  C   UNL     1       2.552   6.671  19.020  0.00  0.00    +0.000 A 
ATOM     13  C   UNL     1       2.329   7.947  18.393  0.00  0.00    +0.000 A 
ATOM     14  O   UNL     1       2.715   8.231  17.264  0.00  0.00    +0.000 OA
ENDROOT
BRANCH   1  15
ATOM     15  C   UNL     1       1.536  10.242  18.786  0.00  0.00    +0.000 C 
BRANCH  15  17
ATOM     16  O   UNL     1      -0.766  10.546  18.109  0.00  0.00    +0.000 OA
ATOM     17  C   UNL     1       0.105  10.775  18.948  0.00  0.00    +0.000 C 
ATOM     18  N   UNL     1      -0.145  11.467  20.118  0.00  0.00    +0.000 N 
ATOM     19  H   UNL     1       0.573  11.399  20.832  0.00  0.00    +0.000 HD
BRANCH  18  20
ATOM     20  C   UNL     1      -1.457  11.996  20.488  0.00  0.00    +0.000 C 
ATOM     21  C   UNL     1      -1.766  11.745  21.967  0.00  0.00    +0.000 C 
ATOM     22  C   UNL     1      -0.944  12.607  22.920  0.00  0.00    +0.000 C 
ATOM     23  C   UNL     1      -1.625  13.929  23.265  0.00  0.00    +0.000 C 
ATOM     24  C   UNL     1      -1.746  14.927  22.120  0.00  0.00    +0.000 C 
ATOM     25  C   UNL     1      -2.441  14.397  20.870  0.00  0.00    +0.000 C 
ATOM     26  C   UNL     1      -1.550  13.468  20.051  0.00  0.00    +0.000 C 
ENDBRANCH  18  20
ENDBRANCH  15  17
ENDBRANCH   1  15
BRANCH  11  27
ATOM     27  C   UNL     1       4.291   5.632  17.515  0.00  0.00    +0.000 C 
BRANCH  27  28
ATOM     28  C   UNL     1       5.633   6.248  17.830  0.00  0.00    +0.000 A 
ATOM     29  C   UNL     1       6.069   7.412  17.181  0.00  0.00    +0.000 A 
ATOM     30  C   UNL     1       7.370   7.892  17.375  0.00  0.00    +0.000 A 
ATOM     31  C   UNL     1       8.235   7.255  18.261  0.00  0.00    +0.000 A 
ATOM     32  C   UNL     1       7.803   6.123  18.943  0.00  0.00    +0.000 A 
ATOM     33  C   UNL     1       6.518   5.627  18.717  0.00  0.00    +0.000 A 
ATOM     34  F   UNL     1       6.161   4.498  19.342  0.00  0.00    +0.000 F 
ENDBRANCH  27  28
ENDBRANCH  11  27
TORSDOF 5
ENDMDL
MODEL 8
REMARK VINA RESULT:      -8.5      1.755      2.823
REMARK  Name = 
REMARK  5 active torsions:
REMARK  status: ('A' for Active; 'I' for Inactive)
REMARK    1  A    between atoms: C_2  and  C_3
REMARK    2  A    between atoms: C_3  and  N_4
REMARK    3  A    between atoms: N_14  and  C_15
REMARK    4  A    between atoms: C_15  and  C_16
REMARK    5  A    between atoms: N_26  and  C_27
REMARK                            x       y       z     vdW  Elec       q    Type
REMARK                         _______ _______ _______ _____ _____    ______ ____
ROOT
ATOM      1  N   UNL     1       2.357   8.438  18.506  0.00  0.00    +0.000 N 
ATOM      2  N   UNL     1       2.143   7.643  19.640  0.00  0.00    +0.000 NA
ATOM      3  C   UNL     1       1.425   8.111  20.621  0.00  0.00    +0.000 A 
ATOM      4  C   UNL     1       0.780   9.391  20.519  0.00  0.00    +0.000 A 
ATOM      5  C   UNL     1      -0.048  10.119  21.410  0.00  0.00    +0.000 A 
ATOM      6  C   UNL     1      -0.490   9.913  22.730  0.00  0.00    +0.000 A 
ATOM      7  C   UNL     1      -1.314  10.868  23.335  0.00  0.00    +0.000 A 
ATOM      8  C   UNL     1      -1.706  12.008  22.639  0.00  0.00    +0.000 A 
ATOM      9  C   UNL     1      -1.285  12.225  21.327  0.00  0.00    +0.000 A 
ATOM     10  C   UNL     1      -0.454  11.268  20.724  0.00  0.00    +0.000 A 
ATOM     11  N   UNL     1       0.106  11.220  19.451  0.00  0.00    +0.000 N 
ATOM     12  C   UNL     1       0.958  10.146  19.381  0.00  0.00    +0.000 A 
ATOM     13  C   UNL     1       1.873   9.753  18.343  0.00  0.00    +0.000 A 
ATOM     14  O   UNL     1       2.180  10.467  17.394  0.00  0.00    +0.000 OA
ENDROOT
BRANCH   1  15
ATOM     15  C   UNL     1       3.138   7.854  17.423  0.00  0.00    +0.000 C 
BRANCH  15  17
ATOM     16  O   UNL     1       4.872   6.279  18.025  0.00  0.00    +0.000 OA
ATOM     17  C   UNL     1       3.678   6.464  17.793  0.00  0.00    +0.000 C 
ATOM     18  N   UNL     1       2.729   5.467  17.907  0.00  0.00    +0.000 N 
ATOM     19  H   UNL     1       1.762   5.778  17.919  0.00  0.00    +0.000 HD
BRANCH  18  20
ATOM     20  C   UNL     1       3.031   4.095  18.313  0.00  0.00    +0.000 C 
ATOM     21  C   UNL     1       3.603   4.043  19.732  0.00  0.00    +0.000 C 
ATOM     22  C   UNL     1       2.573   4.334  20.819  0.00  0.00    +0.000 C 
ATOM     23  C   UNL     1       1.875   3.076  21.329  0.00  0.00    +0.000 C 
ATOM     24  C   UNL     1       0.950   2.386  20.333  0.00  0.00    +0.000 C 
ATOM     25  C   UNL     1       1.595   2.012  19.002  0.00  0.00    +0.000 C 
ATOM     26  C   UNL     1       1.790   3.216  18.085  0.00  0.00    +0.000 C 
ENDBRANCH  18  20
ENDBRANCH  15  17
ENDBRANCH   1  15
BRANCH  11  27
ATOM     27  C   UNL     1      -0.127  12.198  18.388  0.00  0.00    +0.000 C 
BRANCH  27  28
ATOM     28  C   UNL     1       0.693  13.457  18.531  0.00  0.00    +0.000 A 
ATOM     29  C   UNL     1       2.070  13.462  18.268  0.00  0.00    +0.000 A 
ATOM     30  C   UNL     1       2.845  14.596  18.541  0.00  0.00    +0.000 A 
ATOM     31  C   UNL     1       2.251  15.760  19.024  0.00  0.00    +0.000 A 
ATOM     32  C   UNL     1       0.879  15.783  19.250  0.00  0.00    +0.000 A 
ATOM     33  C   UNL     1       0.118  14.638  19.012  0.00  0.00    +0.000 A 
ATOM     34  F   UNL     1      -1.188  14.679  19.305  0.00  0.00    +0.000 F 
ENDBRANCH  27  28
ENDBRANCH  11  27
TORSDOF 5
ENDMDL
MODEL 9
REMARK VINA RESULT:      -8.4      3.237      8.634
REMARK  Name = 
REMARK  5 active torsions:
REMARK  status: ('A' for Active; 'I' for Inactive)
REMARK    1  A    between atoms: C_2  and  C_3
REMARK    2  A    between atoms: C_3  and  N_4
REMARK    3  A    between atoms: N_14  and  C_15
REMARK    4  A    between atoms: C_15  and  C_16
REMARK    5  A    between atoms: N_26  and  C_27
REMARK                            x       y       z     vdW  Elec       q    Type
REMARK                         _______ _______ _______ _____ _____    ______ ____
ROOT
ATOM      1  N   UNL     1       1.498   8.963  19.480  0.00  0.00    +0.000 N 
ATOM      2  N   UNL     1       0.985   8.567  20.721  0.00  0.00    +0.000 NA
ATOM      3  C   UNL     1       1.133   7.332  21.108  0.00  0.00    +0.000 A 
ATOM      4  C   UNL     1       1.890   6.397  20.321  0.00  0.00    +0.000 A 
ATOM      5  C   UNL     1       2.210   5.029  20.507  0.00  0.00    +0.000 A 
ATOM      6  C   UNL     1       1.865   4.061  21.468  0.00  0.00    +0.000 A 
ATOM      7  C   UNL     1       2.361   2.759  21.339  0.00  0.00    +0.000 A 
ATOM      8  C   UNL     1       3.197   2.421  20.279  0.00  0.00    +0.000 A 
ATOM      9  C   UNL     1       3.557   3.369  19.322  0.00  0.00    +0.000 A 
ATOM     10  C   UNL     1       3.055   4.674  19.450  0.00  0.00    +0.000 A 
ATOM     11  N   UNL     1       3.244   5.804  18.661  0.00  0.00    +0.000 N 
ATOM     12  C   UNL     1       2.430   6.809  19.123  0.00  0.00    +0.000 A 
ATOM     13  C   UNL     1       2.154   8.108  18.570  0.00  0.00    +0.000 A 
ATOM     14  O   UNL     1       2.482   8.455  17.440  0.00  0.00    +0.000 OA
ENDROOT
BRANCH   1  15
ATOM     15  C   UNL     1       1.335  10.364  19.110  0.00  0.00    +0.000 C 
BRANCH  15  17
ATOM     16  O   UNL     1       2.016  11.866  20.879  0.00  0.00    +0.000 OA
ATOM     17  C   UNL     1       1.095  11.254  20.338  0.00  0.00    +0.000 C 
ATOM     18  N   UNL     1      -0.220  11.367  20.746  0.00  0.00    +0.000 N 
ATOM     19  H   UNL     1      -0.915  11.009  20.098  0.00  0.00    +0.000 HD
BRANCH  18  20
ATOM     20  C   UNL     1      -0.662  12.215  21.852  0.00  0.00    +0.000 C 
ATOM     21  C   UNL     1      -1.115  13.591  21.356  0.00  0.00    +0.000 C 
ATOM     22  C   UNL     1      -2.441  13.566  20.603  0.00  0.00    +0.000 C 
ATOM     23  C   UNL     1      -3.647  13.780  21.513  0.00  0.00    +0.000 C 
ATOM     24  C   UNL     1      -3.936  12.655  22.499  0.00  0.00    +0.000 C 
ATOM     25  C   UNL     1      -2.773  12.274  23.408  0.00  0.00    +0.000 C 
ATOM     26  C   UNL     1      -1.706  11.455  22.686  0.00  0.00    +0.000 C 
ENDBRANCH  18  20
ENDBRANCH  15  17
ENDBRANCH   1  15
BRANCH  11  27
ATOM     27  C   UNL     1       4.118   5.882  17.492  0.00  0.00    +0.000 C 
BRANCH  27  28
ATOM     28  C   UNL     1       5.493   6.427  17.795  0.00  0.00    +0.000 A 
ATOM     29  C   UNL     1       5.920   7.656  17.272  0.00  0.00    +0.000 A 
ATOM     30  C   UNL     1       7.243   8.081  17.441  0.00  0.00    +0.000 A 
ATOM     31  C   UNL     1       8.143   7.319  18.182  0.00  0.00    +0.000 A 
ATOM     32  C   UNL     1       7.723   6.118  18.742  0.00  0.00    +0.000 A 
ATOM     33  C   UNL     1       6.414   5.680  18.538  0.00  0.00    +0.000 A 
ATOM     34  F   UNL     1       6.065   4.487  19.037  0.00  0.00    +0.000 F 
ENDBRANCH  27  28
ENDBRANCH  11  27
TORSDOF 5
ENDMDL
