MODEL 1
REMARK VINA RESULT:      -7.8      0.000      0.000
REMARK  Name = 
REMARK  10 active torsions:
REMARK  status: ('A' for Active; 'I' for Inactive)
REMARK    1  A    between atoms: C_1  and  C_2
REMARK    2  A    between atoms: C_7  and  C_8
REMARK    3  A    between atoms: C_9  and  C_10
REMARK    4  A    between atoms: C_10  and  C_11
REMARK    5  A    between atoms: C_11  and  C_12
REMARK    6  A    between atoms: C_12  and  C_13
REMARK    7  A    between atoms: C_12  and  C_14
REMARK    8  A    between atoms: C_15  and  C_16
REMARK    9  A    between atoms: C_18  and  C_19
REMARK   10  A    between atoms: N_21  and  C_22
REMARK                            x       y       z     vdW  Elec       q    Type
REMARK                         _______ _______ _______ _____ _____    ______ ____
ROOT
ATOM      1  C   UNL     1       0.686  11.904  18.185  0.00  0.00    +0.000 C 
ATOM      2  C   UNL     1       0.688  10.792  19.177  0.00  0.00    +0.000 A 
ATOM      3  N   UNL     1       1.467   9.677  18.894  0.00  0.00    +0.000 NA
ATOM      4  C   UNL     1       1.316   8.777  19.843  0.00  0.00    +0.000 A 
ATOM      5  N   UNL     1       1.901   7.497  19.811  0.00  0.00    +0.000 N 
ATOM      6  N   UNL     1       1.620   6.608  20.801  0.00  0.00    +0.000 NA
ATOM      7  C   UNL     1       2.206   5.470  20.429  0.00  0.00    +0.000 A 
ATOM      8  C   UNL     1       2.044   4.245  21.254  0.00  0.00    +0.000 C 
ATOM      9  C   UNL     1       2.927   5.609  19.216  0.00  0.00    +0.000 A 
ATOM     10  C   UNL     1       2.741   6.936  18.855  0.00  0.00    +0.000 A 
ATOM     11  C   UNL     1       3.252   7.705  17.688  0.00  0.00    +0.000 C 
ATOM     12  S   UNL     1       0.311   9.229  21.145  0.00  0.00    +0.000 S 
ATOM     13  C   UNL     1      -0.027  10.727  20.368  0.00  0.00    +0.000 A 
ENDROOT
BRANCH  13  14
ATOM     14  C   UNL     1      -0.955  11.711  20.925  0.00  0.00    +0.000 C 
ATOM     15  O   UNL     1      -1.723  12.340  20.203  0.00  0.00    +0.000 OA
ATOM     16  N   UNL     1      -0.869  11.881  22.299  0.00  0.00    +0.000 N 
ATOM     17  H   UNL     1      -0.113  11.382  22.754  0.00  0.00    +0.000 HD
BRANCH  16  18
ATOM     18  C   UNL     1      -1.656  12.717  23.119  0.00  0.00    +0.000 A 
ATOM     19  C   UNL     1      -1.246  13.976  23.567  0.00  0.00    +0.000 A 
ATOM     20  C   UNL     1      -2.078  14.747  24.388  0.00  0.00    +0.000 A 
ATOM     21  C   UNL     1      -3.325  14.262  24.774  0.00  0.00    +0.000 A 
ATOM     22  C   UNL     1      -3.743  13.015  24.320  0.00  0.00    +0.000 A 
ATOM     23 CL   UNL     1      -5.278  12.404  24.803  0.00  0.00    +0.000 Cl
ATOM     24  C   UNL     1      -2.923  12.249  23.487  0.00  0.00    +0.000 A 
ENDBRANCH  16  18
ENDBRANCH  13  14
BRANCH   9  25
ATOM     25  C   UNL     1       3.679   4.530  18.498  0.00  0.00    +0.000 C 
BRANCH  25  26
ATOM     26  C   UNL     1       2.791   3.845  17.452  0.00  0.00    +0.000 C 
BRANCH  26  27
ATOM     27  C   UNL     1       2.454   2.371  17.744  0.00  0.00    +0.000 C 
ATOM     28  C   UNL     1       3.526   1.666  18.577  0.00  0.00    +0.000 C 
ATOM     29  C   UNL     1       1.113   2.306  18.483  0.00  0.00    +0.000 C 
ENDBRANCH  26  27
ENDBRANCH  25  26
ENDBRANCH   9  25
TORSDOF 5
ENDMDL
MODEL 2
REMARK VINA RESULT:      -7.7      1.084      1.850
REMARK  Name = 
REMARK  10 active torsions:
REMARK  status: ('A' for Active; 'I' for Inactive)
REMARK    1  A    between atoms: C_1  and  C_2
REMARK    2  A    between atoms: C_7  and  C_8
REMARK    3  A    between atoms: C_9  and  C_10
REMARK    4  A    between atoms: C_10  and  C_11
REMARK    5  A    between atoms: C_11  and  C_12
REMARK    6  A    between atoms: C_12  and  C_13
REMARK    7  A    between atoms: C_12  and  C_14
REMARK    8  A    between atoms: C_15  and  C_16
REMARK    9  A    between atoms: C_18  and  C_19
REMARK   10  A    between atoms: N_21  and  C_22
REMARK                            x       y       z     vdW  Elec       q    Type
REMARK                         _______ _______ _______ _____ _____    ______ ____
ROOT
ATOM      1  C   UNL     1       0.848  11.678  18.339  0.00  0.00    +0.000 C 
ATOM      2  C   UNL     1       0.786  10.534  19.292  0.00  0.00    +0.000 A 
ATOM      3  N   UNL     1       1.584   9.429  19.025  0.00  0.00    +0.000 NA
ATOM      4  C   UNL     1       1.371   8.498  19.931  0.00  0.00    +0.000 A 
ATOM      5  N   UNL     1       1.959   7.219  19.896  0.00  0.00    +0.000 N 
ATOM      6  N   UNL     1       1.613   6.298  20.836  0.00  0.00    +0.000 NA
ATOM      7  C   UNL     1       2.224   5.172  20.466  0.00  0.00    +0.000 A 
ATOM      8  C   UNL     1       2.010   3.921  21.237  0.00  0.00    +0.000 C 
ATOM      9  C   UNL     1       3.026   5.351  19.309  0.00  0.00    +0.000 A 
ATOM     10  C   UNL     1       2.862   6.689  18.981  0.00  0.00    +0.000 A 
ATOM     11  C   UNL     1       3.449   7.496  17.877  0.00  0.00    +0.000 C 
ATOM     12  S   UNL     1       0.280   8.907  21.177  0.00  0.00    +0.000 S 
ATOM     13  C   UNL     1      -0.007  10.430  20.429  0.00  0.00    +0.000 A 
ENDROOT
BRANCH  13  14
ATOM     14  C   UNL     1      -0.972  11.396  20.955  0.00  0.00    +0.000 C 
ATOM     15  O   UNL     1      -1.839  11.883  20.237  0.00  0.00    +0.000 OA
ATOM     16  N   UNL     1      -0.802  11.720  22.293  0.00  0.00    +0.000 N 
ATOM     17  H   UNL     1       0.024  11.332  22.735  0.00  0.00    +0.000 HD
BRANCH  16  18
ATOM     18  C   UNL     1      -1.596  12.578  23.084  0.00  0.00    +0.000 A 
ATOM     19  C   UNL     1      -1.204  13.863  23.469  0.00  0.00    +0.000 A 
ATOM     20  C   UNL     1      -2.041  14.656  24.264  0.00  0.00    +0.000 A 
ATOM     21  C   UNL     1      -3.274  14.166  24.686  0.00  0.00    +0.000 A 
ATOM     22  C   UNL     1      -3.674  12.893  24.295  0.00  0.00    +0.000 A 
ATOM     23 CL   UNL     1      -5.192  12.277  24.823  0.00  0.00    +0.000 Cl
ATOM     24  C   UNL     1      -2.849  12.104  23.488  0.00  0.00    +0.000 A 
ENDBRANCH  16  18
ENDBRANCH  13  14
BRANCH   9  25
ATOM     25  C   UNL     1       3.825   4.296  18.608  0.00  0.00    +0.000 C 
BRANCH  25  26
ATOM     26  C   UNL     1       5.325   4.478  18.869  0.00  0.00    +0.000 C 
BRANCH  26  27
ATOM     27  C   UNL     1       6.190   4.677  17.611  0.00  0.00    +0.000 C 
ATOM     28  C   UNL     1       5.373   4.675  16.318  0.00  0.00    +0.000 C 
ATOM     29  C   UNL     1       6.943   6.006  17.732  0.00  0.00    +0.000 C 
ENDBRANCH  26  27
ENDBRANCH  25  26
ENDBRANCH   9  25
TORSDOF 5
ENDMDL
MODEL 3
REMARK VINA RESULT:      -7.6      1.387      1.400
REMARK  Name = 
REMARK  10 active torsions:
REMARK  status: ('A' for Active; 'I' for Inactive)
REMARK    1  A    between atoms: C_1  and  C_2
REMARK    2  A    between atoms: C_7  and  C_8
REMARK    3  A    between atoms: C_9  and  C_10
REMARK    4  A    between atoms: C_10  and  C_11
REMARK    5  A    between atoms: C_11  and  C_12
REMARK    6  A    between atoms: C_12  and  C_13
REMARK    7  A    between atoms: C_12  and  C_14
REMARK    8  A    between atoms: C_15  and  C_16
REMARK    9  A    between atoms: C_18  and  C_19
REMARK   10  A    between atoms: N_21  and  C_22
REMARK                            x       y       z     vdW  Elec       q    Type
REMARK                         _______ _______ _______ _____ _____    ______ ____
ROOT
ATOM      1  C   UNL     1       0.331  12.363  19.056  0.00  0.00    +0.000 C 
ATOM      2  C   UNL     1       0.455  11.160  19.925  0.00  0.00    +0.000 A 
ATOM      3  N   UNL     1       1.157  10.071  19.423  0.00  0.00    +0.000 NA
ATOM      4  C   UNL     1       1.127   9.083  20.293  0.00  0.00    +0.000 A 
ATOM      5  N   UNL     1       1.671   7.807  20.051  0.00  0.00    +0.000 N 
ATOM      6  N   UNL     1       1.519   6.828  20.983  0.00  0.00    +0.000 NA
ATOM      7  C   UNL     1       2.016   5.726  20.419  0.00  0.00    +0.000 A 
ATOM      8  C   UNL     1       1.950   4.428  21.138  0.00  0.00    +0.000 C 
ATOM      9  C   UNL     1       2.552   5.978  19.131  0.00  0.00    +0.000 A 
ATOM     10  C   UNL     1       2.346   7.335  18.931  0.00  0.00    +0.000 A 
ATOM     11  C   UNL     1       2.696   8.210  17.780  0.00  0.00    +0.000 C 
ATOM     12  S   UNL     1       0.338   9.414  21.769  0.00  0.00    +0.000 S 
ATOM     13  C   UNL     1      -0.076  10.984  21.198  0.00  0.00    +0.000 A 
ENDROOT
BRANCH  13  14
ATOM     14  C   UNL     1      -0.888  11.917  21.980  0.00  0.00    +0.000 C 
ATOM     15  O   UNL     1      -0.508  12.332  23.070  0.00  0.00    +0.000 OA
ATOM     16  N   UNL     1      -2.104  12.256  21.403  0.00  0.00    +0.000 N 
ATOM     17  H   UNL     1      -2.341  11.751  20.557  0.00  0.00    +0.000 HD
BRANCH  16  18
ATOM     18  C   UNL     1      -3.073  13.158  21.892  0.00  0.00    +0.000 A 
ATOM     19  C   UNL     1      -3.019  14.540  21.692  0.00  0.00    +0.000 A 
ATOM     20  C   UNL     1      -4.013  15.376  22.217  0.00  0.00    +0.000 A 
ATOM     21  C   UNL     1      -5.065  14.835  22.951  0.00  0.00    +0.000 A 
ATOM     22  C   UNL     1      -5.130  13.459  23.142  0.00  0.00    +0.000 A 
ATOM     23 CL   UNL     1      -6.421  12.786  24.059  0.00  0.00    +0.000 Cl
ATOM     24  C   UNL     1      -4.149  12.619  22.606  0.00  0.00    +0.000 A 
ENDBRANCH  16  18
ENDBRANCH  13  14
BRANCH   9  25
ATOM     25  C   UNL     1       3.163   4.968  18.208  0.00  0.00    +0.000 C 
BRANCH  25  26
ATOM     26  C   UNL     1       2.080   4.169  17.473  0.00  0.00    +0.000 C 
BRANCH  26  27
ATOM     27  C   UNL     1       2.126   2.646  17.694  0.00  0.00    +0.000 C 
ATOM     28  C   UNL     1       3.515   2.141  18.086  0.00  0.00    +0.000 C 
ATOM     29  C   UNL     1       1.122   2.273  18.790  0.00  0.00    +0.000 C 
ENDBRANCH  26  27
ENDBRANCH  25  26
ENDBRANCH   9  25
TORSDOF 5
ENDMDL
MODEL 4
REMARK VINA RESULT:      -7.5      3.520      4.555
REMARK  Name = 
REMARK  10 active torsions:
REMARK  status: ('A' for Active; 'I' for Inactive)
REMARK    1  A    between atoms: C_1  and  C_2
REMARK    2  A    between atoms: C_7  and  C_8
REMARK    3  A    between atoms: C_9  and  C_10
REMARK    4  A    between atoms: C_10  and  C_11
REMARK    5  A    between atoms: C_11  and  C_12
REMARK    6  A    between atoms: C_12  and  C_13
REMARK    7  A    between atoms: C_12  and  C_14
REMARK    8  A    between atoms: C_15  and  C_16
REMARK    9  A    between atoms: C_18  and  C_19
REMARK   10  A    between atoms: N_21  and  C_22
REMARK                            x       y       z     vdW  Elec       q    Type
REMARK                         _______ _______ _______ _____ _____    ______ ____
ROOT
ATOM      1  C   UNL     1      -0.097  10.261  21.547  0.00  0.00    +0.000 C 
ATOM      2  C   UNL     1       0.677   9.907  20.324  0.00  0.00    +0.000 A 
ATOM      3  N   UNL     1       1.155   8.607  20.216  0.00  0.00    +0.000 NA
ATOM      4  C   UNL     1       1.853   8.482  19.107  0.00  0.00    +0.000 A 
ATOM      5  N   UNL     1       2.547   7.311  18.745  0.00  0.00    +0.000 N 
ATOM      6  N   UNL     1       3.307   7.305  17.617  0.00  0.00    +0.000 NA
ATOM      7  C   UNL     1       3.927   6.125  17.616  0.00  0.00    +0.000 A 
ATOM      8  C   UNL     1       4.907   5.800  16.548  0.00  0.00    +0.000 C 
ATOM      9  C   UNL     1       3.540   5.315  18.715  0.00  0.00    +0.000 A 
ATOM     10  C   UNL     1       2.625   6.092  19.410  0.00  0.00    +0.000 A 
ATOM     11  C   UNL     1       1.850   5.804  20.647  0.00  0.00    +0.000 C 
ATOM     12  S   UNL     1       1.917   9.861  18.106  0.00  0.00    +0.000 S 
ATOM     13  C   UNL     1       1.001  10.747  19.263  0.00  0.00    +0.000 A 
ENDROOT
BRANCH  13  14
ATOM     14  C   UNL     1       0.682  12.164  19.097  0.00  0.00    +0.000 C 
ATOM     15  O   UNL     1      -0.395  12.523  18.633  0.00  0.00    +0.000 OA
ATOM     16  N   UNL     1       1.693  13.037  19.475  0.00  0.00    +0.000 N 
ATOM     17  H   UNL     1       2.571  12.603  19.732  0.00  0.00    +0.000 HD
BRANCH  16  18
ATOM     18  C   UNL     1       1.664  14.448  19.472  0.00  0.00    +0.000 A 
ATOM     19  C   UNL     1       1.151  15.218  20.519  0.00  0.00    +0.000 A 
ATOM     20  C   UNL     1       1.147  16.616  20.442  0.00  0.00    +0.000 A 
ATOM     21  C   UNL     1       1.650  17.255  19.312  0.00  0.00    +0.000 A 
ATOM     22  C   UNL     1       2.174  16.494  18.272  0.00  0.00    +0.000 A 
ATOM     23 CL   UNL     1       2.787  17.278  16.868  0.00  0.00    +0.000 Cl
ATOM     24  C   UNL     1       2.195  15.099  18.352  0.00  0.00    +0.000 A 
ENDBRANCH  16  18
ENDBRANCH  13  14
BRANCH   9  25
ATOM     25  C   UNL     1       4.059   3.947  19.038  0.00  0.00    +0.000 C 
BRANCH  25  26
ATOM     26  C   UNL     1       3.248   2.867  18.311  0.00  0.00    +0.000 C 
BRANCH  26  27
ATOM     27  C   UNL     1       2.215   2.128  19.180  0.00  0.00    +0.000 C 
ATOM     28  C   UNL     1       2.417   2.361  20.679  0.00  0.00    +0.000 C 
ATOM     29  C   UNL     1       0.809   2.590  18.781  0.00  0.00    +0.000 C 
ENDBRANCH  26  27
ENDBRANCH  25  26
ENDBRANCH   9  25
TORSDOF 5
ENDMDL
MODEL 5
REMARK VINA RESULT:      -7.5      1.177      1.485
REMARK  Name = 
REMARK  10 active torsions:
REMARK  status: ('A' for Active; 'I' for Inactive)
REMARK    1  A    between atoms: C_1  and  C_2
REMARK    2  A    between atoms: C_7  and  C_8
REMARK    3  A    between atoms: C_9  and  C_10
REMARK    4  A    between atoms: C_10  and  C_11
REMARK    5  A    between atoms: C_11  and  C_12
REMARK    6  A    between atoms: C_12  and  C_13
REMARK    7  A    between atoms: C_12  and  C_14
REMARK    8  A    between atoms: C_15  and  C_16
REMARK    9  A    between atoms: C_18  and  C_19
REMARK   10  A    between atoms: N_21  and  C_22
REMARK                            x       y       z     vdW  Elec       q    Type
REMARK                         _______ _______ _______ _____ _____    ______ ____
ROOT
ATOM      1  C   UNL     1       0.217  12.148  18.346  0.00  0.00    +0.000 C 
ATOM      2  C   UNL     1       0.306  11.018  19.312  0.00  0.00    +0.000 A 
ATOM      3  N   UNL     1       1.122   9.945  18.977  0.00  0.00    +0.000 NA
ATOM      4  C   UNL     1       1.046   9.020  19.911  0.00  0.00    +0.000 A 
ATOM      5  N   UNL     1       1.686   7.768  19.830  0.00  0.00    +0.000 N 
ATOM      6  N   UNL     1       1.481   6.847  20.810  0.00  0.00    +0.000 NA
ATOM      7  C   UNL     1       2.102   5.744  20.391  0.00  0.00    +0.000 A 
ATOM      8  C   UNL     1       2.026   4.497  21.195  0.00  0.00    +0.000 C 
ATOM      9  C   UNL     1       2.772   5.941  19.156  0.00  0.00    +0.000 A 
ATOM     10  C   UNL     1       2.514   7.265  18.832  0.00  0.00    +0.000 A 
ATOM     11  C   UNL     1       2.946   8.079  17.665  0.00  0.00    +0.000 C 
ATOM     12  S   UNL     1       0.071   9.399  21.258  0.00  0.00    +0.000 S 
ATOM     13  C   UNL     1      -0.361  10.896  20.527  0.00  0.00    +0.000 A 
ENDROOT
BRANCH  13  14
ATOM     14  C   UNL     1      -1.311  11.826  21.138  0.00  0.00    +0.000 C 
ATOM     15  O   UNL     1      -2.254  12.283  20.500  0.00  0.00    +0.000 OA
ATOM     16  N   UNL     1      -1.038  12.153  22.459  0.00  0.00    +0.000 N 
ATOM     17  H   UNL     1      -0.164  11.794  22.826  0.00  0.00    +0.000 HD
BRANCH  16  18
ATOM     18  C   UNL     1      -1.790  12.982  23.319  0.00  0.00    +0.000 A 
ATOM     19  C   UNL     1      -3.088  12.687  23.743  0.00  0.00    +0.000 A 
ATOM     20  C   UNL     1      -3.778  13.563  24.591  0.00  0.00    +0.000 A 
ATOM     21  C   UNL     1      -3.176  14.745  25.015  0.00  0.00    +0.000 A 
ATOM     22  C   UNL     1      -1.879  15.036  24.605  0.00  0.00    +0.000 A 
ATOM     23 CL   UNL     1      -1.134  16.501  25.117  0.00  0.00    +0.000 Cl
ATOM     24  C   UNL     1      -1.181  14.157  23.773  0.00  0.00    +0.000 A 
ENDBRANCH  16  18
ENDBRANCH  13  14
BRANCH   9  25
ATOM     25  C   UNL     1       3.543   4.911  18.388  0.00  0.00    +0.000 C 
BRANCH  25  26
ATOM     26  C   UNL     1       2.606   4.043  17.539  0.00  0.00    +0.000 C 
BRANCH  26  27
ATOM     27  C   UNL     1       2.569   2.553  17.922  0.00  0.00    +0.000 C 
ATOM     28  C   UNL     1       3.715   2.145  18.850  0.00  0.00    +0.000 C 
ATOM     29  C   UNL     1       1.231   2.248  18.604  0.00  0.00    +0.000 C 
ENDBRANCH  26  27
ENDBRANCH  25  26
ENDBRANCH   9  25
TORSDOF 5
ENDMDL
MODEL 6
REMARK VINA RESULT:      -7.4      1.783      1.994
REMARK  Name = 
REMARK  10 active torsions:
REMARK  status: ('A' for Active; 'I' for Inactive)
REMARK    1  A    between atoms: C_1  and  C_2
REMARK    2  A    between atoms: C_7  and  C_8
REMARK    3  A    between atoms: C_9  and  C_10
REMARK    4  A    between atoms: C_10  and  C_11
REMARK    5  A    between atoms: C_11  and  C_12
REMARK    6  A    between atoms: C_12  and  C_13
REMARK    7  A    between atoms: C_12  and  C_14
REMARK    8  A    between atoms: C_15  and  C_16
REMARK    9  A    between atoms: C_18  and  C_19
REMARK   10  A    between atoms: N_21  and  C_22
REMARK                            x       y       z     vdW  Elec       q    Type
REMARK                         _______ _______ _______ _____ _____    ______ ____
ROOT
ATOM      1  C   UNL     1       0.499  12.056  18.948  0.00  0.00    +0.000 C 
ATOM      2  C   UNL     1       0.594  10.864  19.836  0.00  0.00    +0.000 A 
ATOM      3  N   UNL     1       1.316   9.771  19.374  0.00  0.00    +0.000 NA
ATOM      4  C   UNL     1       1.257   8.794  20.255  0.00  0.00    +0.000 A 
ATOM      5  N   UNL     1       1.812   7.517  20.049  0.00  0.00    +0.000 N 
ATOM      6  N   UNL     1       1.629   6.548  20.986  0.00  0.00    +0.000 NA
ATOM      7  C   UNL     1       2.149   5.442  20.455  0.00  0.00    +0.000 A 
ATOM      8  C   UNL     1       2.060   4.152  21.187  0.00  0.00    +0.000 C 
ATOM      9  C   UNL     1       2.732   5.679  19.183  0.00  0.00    +0.000 A 
ATOM     10  C   UNL     1       2.529   7.033  18.959  0.00  0.00    +0.000 A 
ATOM     11  C   UNL     1       2.919   7.895  17.811  0.00  0.00    +0.000 C 
ATOM     12  S   UNL     1       0.413   9.141  21.696  0.00  0.00    +0.000 S 
ATOM     13  C   UNL     1       0.017  10.703  21.091  0.00  0.00    +0.000 A 
ENDROOT
BRANCH  13  14
ATOM     14  C   UNL     1      -0.826  11.642  21.831  0.00  0.00    +0.000 C 
ATOM     15  O   UNL     1      -0.571  11.947  22.992  0.00  0.00    +0.000 OA
ATOM     16  N   UNL     1      -1.921  12.121  21.127  0.00  0.00    +0.000 N 
ATOM     17  H   UNL     1      -2.075  11.698  20.219  0.00  0.00    +0.000 HD
BRANCH  16  18
ATOM     18  C   UNL     1      -2.881  13.064  21.554  0.00  0.00    +0.000 A 
ATOM     19  C   UNL     1      -4.145  12.721  22.040  0.00  0.00    +0.000 A 
ATOM     20  C   UNL     1      -5.050  13.713  22.437  0.00  0.00    +0.000 A 
ATOM     21  C   UNL     1      -4.699  15.058  22.345  0.00  0.00    +0.000 A 
ATOM     22  C   UNL     1      -3.437  15.404  21.874  0.00  0.00    +0.000 A 
ATOM     23 CL   UNL     1      -3.001  17.064  21.747  0.00  0.00    +0.000 Cl
ATOM     24  C   UNL     1      -2.524  14.417  21.492  0.00  0.00    +0.000 A 
ENDBRANCH  16  18
ENDBRANCH  13  14
BRANCH   9  25
ATOM     25  C   UNL     1       3.378   4.659  18.296  0.00  0.00    +0.000 C 
BRANCH  25  26
ATOM     26  C   UNL     1       2.331   3.926  17.448  0.00  0.00    +0.000 C 
BRANCH  26  27
ATOM     27  C   UNL     1       2.173   2.426  17.757  0.00  0.00    +0.000 C 
ATOM     28  C   UNL     1       3.435   1.802  18.354  0.00  0.00    +0.000 C 
ATOM     29  C   UNL     1       1.005   2.242  18.733  0.00  0.00    +0.000 C 
ENDBRANCH  26  27
ENDBRANCH  25  26
ENDBRANCH   9  25
TORSDOF 5
ENDMDL
MODEL 7
REMARK VINA RESULT:      -7.4      1.507      2.323
REMARK  Name = 
REMARK  10 active torsions:
REMARK  status: ('A' for Active; 'I' for Inactive)
REMARK    1  A    between atoms: C_1  and  C_2
REMARK    2  A    between atoms: C_7  and  C_8
REMARK    3  A    between atoms: C_9  and  C_10
REMARK    4  A    between atoms: C_10  and  C_11
REMARK    5  A    between atoms: C_11  and  C_12
REMARK    6  A    between atoms: C_12  and  C_13
REMARK    7  A    between atoms: C_12  and  C_14
REMARK    8  A    between atoms: C_15  and  C_16
REMARK    9  A    between atoms: C_18  and  C_19
REMARK   10  A    between atoms: N_21  and  C_22
REMARK                            x       y       z     vdW  Elec       q    Type
REMARK                         _______ _______ _______ _____ _____    ______ ____
ROOT
ATOM      1  C   UNL     1       0.892  11.725  18.376  0.00  0.00    +0.000 C 
ATOM      2  C   UNL     1       0.804  10.563  19.304  0.00  0.00    +0.000 A 
ATOM      3  N   UNL     1       1.605   9.460  19.035  0.00  0.00    +0.000 NA
ATOM      4  C   UNL     1       1.367   8.513  19.918  0.00  0.00    +0.000 A 
ATOM      5  N   UNL     1       1.952   7.233  19.872  0.00  0.00    +0.000 N 
ATOM      6  N   UNL     1       1.581   6.295  20.784  0.00  0.00    +0.000 NA
ATOM      7  C   UNL     1       2.197   5.174  20.407  0.00  0.00    +0.000 A 
ATOM      8  C   UNL     1       1.961   3.909  21.149  0.00  0.00    +0.000 C 
ATOM      9  C   UNL     1       3.027   5.373  19.274  0.00  0.00    +0.000 A 
ATOM     10  C   UNL     1       2.875   6.717  18.968  0.00  0.00    +0.000 A 
ATOM     11  C   UNL     1       3.491   7.543  17.894  0.00  0.00    +0.000 C 
ATOM     12  S   UNL     1       0.248   8.901  21.145  0.00  0.00    +0.000 S 
ATOM     13  C   UNL     1      -0.017  10.440  20.420  0.00  0.00    +0.000 A 
ENDROOT
BRANCH  13  14
ATOM     14  C   UNL     1      -0.991  11.398  20.941  0.00  0.00    +0.000 C 
ATOM     15  O   UNL     1      -1.811  11.936  20.203  0.00  0.00    +0.000 OA
ATOM     16  N   UNL     1      -0.887  11.655  22.301  0.00  0.00    +0.000 N 
ATOM     17  H   UNL     1      -0.092  11.230  22.765  0.00  0.00    +0.000 HD
BRANCH  16  18
ATOM     18  C   UNL     1      -1.706  12.491  23.090  0.00  0.00    +0.000 A 
ATOM     19  C   UNL     1      -2.994  12.146  23.508  0.00  0.00    +0.000 A 
ATOM     20  C   UNL     1      -3.753  13.032  24.283  0.00  0.00    +0.000 A 
ATOM     21  C   UNL     1      -3.231  14.273  24.639  0.00  0.00    +0.000 A 
ATOM     22  C   UNL     1      -1.945  14.616  24.235  0.00  0.00    +0.000 A 
ATOM     23 CL   UNL     1      -1.299  16.153  24.662  0.00  0.00    +0.000 Cl
ATOM     24  C   UNL     1      -1.177  13.728  23.476  0.00  0.00    +0.000 A 
ENDBRANCH  16  18
ENDBRANCH  13  14
BRANCH   9  25
ATOM     25  C   UNL     1       3.840   4.329  18.572  0.00  0.00    +0.000 C 
BRANCH  25  26
ATOM     26  C   UNL     1       5.337   4.526  18.839  0.00  0.00    +0.000 C 
BRANCH  26  27
ATOM     27  C   UNL     1       6.203   4.737  17.584  0.00  0.00    +0.000 C 
ATOM     28  C   UNL     1       5.381   4.818  16.296  0.00  0.00    +0.000 C 
ATOM     29  C   UNL     1       7.012   6.028  17.751  0.00  0.00    +0.000 C 
ENDBRANCH  26  27
ENDBRANCH  25  26
ENDBRANCH   9  25
TORSDOF 5
ENDMDL
MODEL 8
REMARK VINA RESULT:      -7.4      2.906      3.806
REMARK  Name = 
REMARK  10 active torsions:
REMARK  status: ('A' for Active; 'I' for Inactive)
REMARK    1  A    between atoms: C_1  and  C_2
REMARK    2  A    between atoms: C_7  and  C_8
REMARK    3  A    between atoms: C_9  and  C_10
REMARK    4  A    between atoms: C_10  and  C_11
REMARK    5  A    between atoms: C_11  and  C_12
REMARK    6  A    between atoms: C_12  and  C_13
REMARK    7  A    between atoms: C_12  and  C_14
REMARK    8  A    between atoms: C_15  and  C_16
REMARK    9  A    between atoms: C_18  and  C_19
REMARK   10  A    between atoms: N_21  and  C_22
REMARK                            x       y       z     vdW  Elec       q    Type
REMARK                         _______ _______ _______ _____ _____    ______ ____
ROOT
ATOM      1  C   UNL     1      -0.377   9.429  22.873  0.00  0.00    +0.000 C 
ATOM      2  C   UNL     1       0.328   9.505  21.562  0.00  0.00    +0.000 A 
ATOM      3  N   UNL     1       0.864   8.330  21.049  0.00  0.00    +0.000 NA
ATOM      4  C   UNL     1       1.490   8.585  19.919  0.00  0.00    +0.000 A 
ATOM      5  N   UNL     1       2.216   7.623  19.191  0.00  0.00    +0.000 N 
ATOM      6  N   UNL     1       2.896   8.002  18.076  0.00  0.00    +0.000 NA
ATOM      7  C   UNL     1       3.575   6.920  17.693  0.00  0.00    +0.000 A 
ATOM      8  C   UNL     1       4.495   6.991  16.529  0.00  0.00    +0.000 C 
ATOM      9  C   UNL     1       3.306   5.798  18.519  0.00  0.00    +0.000 A 
ATOM     10  C   UNL     1       2.402   6.271  19.458  0.00  0.00    +0.000 A 
ATOM     11  C   UNL     1       1.728   5.579  20.590  0.00  0.00    +0.000 C 
ATOM     12  S   UNL     1       1.415  10.198  19.372  0.00  0.00    +0.000 S 
ATOM     13  C   UNL     1       0.536  10.639  20.785  0.00  0.00    +0.000 A 
ENDROOT
BRANCH  13  14
ATOM     14  C   UNL     1       0.135  12.018  21.064  0.00  0.00    +0.000 C 
ATOM     15  O   UNL     1       0.195  12.480  22.199  0.00  0.00    +0.000 OA
ATOM     16  N   UNL     1      -0.332  12.723  19.964  0.00  0.00    +0.000 N 
ATOM     17  H   UNL     1      -0.437  12.183  19.112  0.00  0.00    +0.000 HD
BRANCH  16  18
ATOM     18  C   UNL     1      -0.746  14.071  19.911  0.00  0.00    +0.000 A 
ATOM     19  C   UNL     1      -1.810  14.587  20.656  0.00  0.00    +0.000 A 
ATOM     20  C   UNL     1      -2.171  15.936  20.545  0.00  0.00    +0.000 A 
ATOM     21  C   UNL     1      -1.474  16.777  19.682  0.00  0.00    +0.000 A 
ATOM     22  C   UNL     1      -0.406  16.271  18.948  0.00  0.00    +0.000 A 
ATOM     23 CL   UNL     1       0.452  17.303  17.870  0.00  0.00    +0.000 Cl
ATOM     24  C   UNL     1      -0.032  14.930  19.068  0.00  0.00    +0.000 A 
ENDBRANCH  16  18
ENDBRANCH  13  14
BRANCH   9  25
ATOM     25  C   UNL     1       3.914   4.434  18.393  0.00  0.00    +0.000 C 
BRANCH  25  26
ATOM     26  C   UNL     1       3.221   3.623  17.292  0.00  0.00    +0.000 C 
BRANCH  26  27
ATOM     27  C   UNL     1       2.560   2.314  17.762  0.00  0.00    +0.000 C 
ATOM     28  C   UNL     1       3.473   1.468  18.652  0.00  0.00    +0.000 C 
ATOM     29  C   UNL     1       1.277   2.654  18.530  0.00  0.00    +0.000 C 
ENDBRANCH  26  27
ENDBRANCH  25  26
ENDBRANCH   9  25
TORSDOF 5
ENDMDL
MODEL 9
REMARK VINA RESULT:      -7.4      1.688      2.309
REMARK  Name = 
REMARK  10 active torsions:
REMARK  status: ('A' for Active; 'I' for Inactive)
REMARK    1  A    between atoms: C_1  and  C_2
REMARK    2  A    between atoms: C_7  and  C_8
REMARK    3  A    between atoms: C_9  and  C_10
REMARK    4  A    between atoms: C_10  and  C_11
REMARK    5  A    between atoms: C_11  and  C_12
REMARK    6  A    between atoms: C_12  and  C_13
REMARK    7  A    between atoms: C_12  and  C_14
REMARK    8  A    between atoms: C_15  and  C_16
REMARK    9  A    between atoms: C_18  and  C_19
REMARK   10  A    between atoms: N_21  and  C_22
REMARK                            x       y       z     vdW  Elec       q    Type
REMARK                         _______ _______ _______ _____ _____    ______ ____
ROOT
ATOM      1  C   UNL     1       0.727  12.200  18.873  0.00  0.00    +0.000 C 
ATOM      2  C   UNL     1       0.772  11.002  19.757  0.00  0.00    +0.000 A 
ATOM      3  N   UNL     1       1.423   9.872  19.280  0.00  0.00    +0.000 NA
ATOM      4  C   UNL     1       1.326   8.898  20.160  0.00  0.00    +0.000 A 
ATOM      5  N   UNL     1       1.805   7.592  19.942  0.00  0.00    +0.000 N 
ATOM      6  N   UNL     1       1.586   6.633  20.881  0.00  0.00    +0.000 NA
ATOM      7  C   UNL     1       2.033   5.500  20.339  0.00  0.00    +0.000 A 
ATOM      8  C   UNL     1       1.886   4.216  21.071  0.00  0.00    +0.000 C 
ATOM      9  C   UNL     1       2.603   5.708  19.057  0.00  0.00    +0.000 A 
ATOM     10  C   UNL     1       2.473   7.071  18.838  0.00  0.00    +0.000 A 
ATOM     11  C   UNL     1       2.888   7.913  17.684  0.00  0.00    +0.000 C 
ATOM     12  S   UNL     1       0.531   9.287  21.618  0.00  0.00    +0.000 S 
ATOM     13  C   UNL     1       0.211  10.870  21.023  0.00  0.00    +0.000 A 
ENDROOT
BRANCH  13  14
ATOM     14  C   UNL     1      -0.563  11.854  21.780  0.00  0.00    +0.000 C 
ATOM     15  O   UNL     1      -0.012  12.772  22.380  0.00  0.00    +0.000 OA
ATOM     16  N   UNL     1      -1.934  11.643  21.779  0.00  0.00    +0.000 N 
ATOM     17  H   UNL     1      -2.243  10.783  21.340  0.00  0.00    +0.000 HD
BRANCH  16  18
ATOM     18  C   UNL     1      -2.934  12.440  22.377  0.00  0.00    +0.000 A 
ATOM     19  C   UNL     1      -3.269  12.379  23.732  0.00  0.00    +0.000 A 
ATOM     20  C   UNL     1      -4.280  13.194  24.255  0.00  0.00    +0.000 A 
ATOM     21  C   UNL     1      -4.970  14.072  23.423  0.00  0.00    +0.000 A 
ATOM     22  C   UNL     1      -4.632  14.145  22.076  0.00  0.00    +0.000 A 
ATOM     23 CL   UNL     1      -5.490  15.220  21.040  0.00  0.00    +0.000 Cl
ATOM     24  C   UNL     1      -3.612  13.346  21.553  0.00  0.00    +0.000 A 
ENDBRANCH  16  18
ENDBRANCH  13  14
BRANCH   9  25
ATOM     25  C   UNL     1       3.175   4.655  18.156  0.00  0.00    +0.000 C 
BRANCH  25  26
ATOM     26  C   UNL     1       4.630   4.346  18.526  0.00  0.00    +0.000 C 
BRANCH  26  27
ATOM     27  C   UNL     1       5.674   4.748  17.468  0.00  0.00    +0.000 C 
ATOM     28  C   UNL     1       5.108   4.767  16.046  0.00  0.00    +0.000 C 
ATOM     29  C   UNL     1       6.221   6.137  17.814  0.00  0.00    +0.000 C 
ENDBRANCH  26  27
ENDBRANCH  25  26
ENDBRANCH   9  25
TORSDOF 5
ENDMDL
