MODEL 1
REMARK VINA RESULT:      -7.1      0.000      0.000
REMARK  Name = 
REMARK  3 active torsions:
REMARK  status: ('A' for Active; 'I' for Inactive)
REMARK    1  A    between atoms: C_2  and  C_3
REMARK    2  A    between atoms: C_10  and  O_11
REMARK    3  A    between atoms: C_12  and  N_13
REMARK                            x       y       z     vdW  Elec       q    Type
REMARK                         _______ _______ _______ _____ _____    ______ ____
ROOT
ATOM      1  O   UNL     1       5.380   6.638  14.902  0.00  0.00    +0.000 OA
ATOM      2  C   UNL     1       5.713   5.513  15.274  0.00  0.00    +0.000 C 
ATOM      3  N   UNL     1       5.528   5.120  16.583  0.00  0.00    +0.000 N 
ATOM      4  C   UNL     1       4.768   5.971  17.488  0.00  0.00    +0.000 C 
ATOM      5  C   UNL     1       4.596   5.144  18.763  0.00  0.00    +0.000 C 
ATOM      6  C   UNL     1       4.710   3.670  18.305  0.00  0.00    +0.000 C 
ATOM      7  C   UNL     1       5.751   3.800  17.167  0.00  0.00    +0.000 C 
ENDROOT
BRANCH   6   8
ATOM      8  N   UNL     1       3.520   2.918  17.871  0.00  0.00    +0.000 NA
ATOM      9  C   UNL     1       2.342   3.636  17.367  0.00  0.00    +0.000 C 
ATOM     10  C   UNL     1       1.277   3.939  18.429  0.00  0.00    +0.000 C 
ATOM     11  O   UNL     1       0.871   2.742  19.101  0.00  0.00    +0.000 OA
ATOM     12  C   UNL     1       1.995   2.129  19.745  0.00  0.00    +0.000 C 
ATOM     13  C   UNL     1       3.118   1.803  18.745  0.00  0.00    +0.000 C 
ENDBRANCH   6   8
BRANCH   2  14
ATOM     14  C   UNL     1       6.254   4.478  14.296  0.00  0.00    +0.000 C 
ATOM     15  C   UNL     1       5.171   3.930  13.366  0.00  0.00    +0.000 C 
ATOM     16  C   UNL     1       5.970   3.242  12.271  0.00  0.00    +0.000 C 
ATOM     17  C   UNL     1       7.211   4.109  12.089  0.00  0.00    +0.000 C 
ATOM     18  C   UNL     1       7.288   5.022  13.313  0.00  0.00    +0.000 C 
ENDBRANCH   2  14
BRANCH   5  19
ATOM     19  O   UNL     1       5.662   5.440  19.685  0.00  0.00    +0.000 OA
ATOM     20  H   UNL     1       6.247   4.664  19.733  0.00  0.00    +0.000 HD
ENDBRANCH   5  19
TORSDOF 3
ENDMDL
MODEL 2
REMARK VINA RESULT:      -7.0      2.670      6.336
REMARK  Name = 
REMARK  3 active torsions:
REMARK  status: ('A' for Active; 'I' for Inactive)
REMARK    1  A    between atoms: C_2  and  C_3
REMARK    2  A    between atoms: C_10  and  O_11
REMARK    3  A    between atoms: C_12  and  N_13
REMARK                            x       y       z     vdW  Elec       q    Type
REMARK                         _______ _______ _______ _____ _____    ______ ____
ROOT
ATOM      1  O   UNL     1       0.979   4.818  20.408  0.00  0.00    +0.000 OA
ATOM      2  C   UNL     1       2.064   5.349  20.172  0.00  0.00    +0.000 C 
ATOM      3  N   UNL     1       3.168   4.587  19.855  0.00  0.00    +0.000 N 
ATOM      4  C   UNL     1       3.011   3.159  19.616  0.00  0.00    +0.000 C 
ATOM      5  C   UNL     1       4.372   2.688  19.102  0.00  0.00    +0.000 C 
ATOM      6  C   UNL     1       5.028   3.949  18.487  0.00  0.00    +0.000 C 
ATOM      7  C   UNL     1       4.489   5.047  19.435  0.00  0.00    +0.000 C 
ENDROOT
BRANCH   6   8
ATOM      8  N   UNL     1       4.816   4.298  17.072  0.00  0.00    +0.000 NA
ATOM      9  C   UNL     1       5.692   3.734  16.037  0.00  0.00    +0.000 C 
ATOM     10  C   UNL     1       6.891   4.617  15.666  0.00  0.00    +0.000 C 
ATOM     11  O   UNL     1       6.461   5.927  15.283  0.00  0.00    +0.000 OA
ATOM     12  C   UNL     1       5.752   6.551  16.360  0.00  0.00    +0.000 C 
ATOM     13  C   UNL     1       4.536   5.718  16.802  0.00  0.00    +0.000 C 
ENDBRANCH   6   8
BRANCH   2  14
ATOM     14  C   UNL     1       2.216   6.865  20.130  0.00  0.00    +0.000 C 
ATOM     15  C   UNL     1       1.941   7.441  18.740  0.00  0.00    +0.000 C 
ATOM     16  C   UNL     1       1.773   8.927  19.008  0.00  0.00    +0.000 C 
ATOM     17  C   UNL     1       1.079   9.004  20.364  0.00  0.00    +0.000 C 
ATOM     18  C   UNL     1       1.218   7.622  21.003  0.00  0.00    +0.000 C 
ENDBRANCH   2  14
BRANCH   5  19
ATOM     19  O   UNL     1       5.175   2.222  20.203  0.00  0.00    +0.000 OA
ATOM     20  H   UNL     1       5.583   2.995  20.630  0.00  0.00    +0.000 HD
ENDBRANCH   5  19
TORSDOF 3
ENDMDL
MODEL 3
REMARK VINA RESULT:      -7.0      2.686      5.957
REMARK  Name = 
REMARK  3 active torsions:
REMARK  status: ('A' for Active; 'I' for Inactive)
REMARK    1  A    between atoms: C_2  and  C_3
REMARK    2  A    between atoms: C_10  and  O_11
REMARK    3  A    between atoms: C_12  and  N_13
REMARK                            x       y       z     vdW  Elec       q    Type
REMARK                         _______ _______ _______ _____ _____    ______ ____
ROOT
ATOM      1  O   UNL     1       1.545   5.423  17.774  0.00  0.00    +0.000 OA
ATOM      2  C   UNL     1       2.473   5.908  18.423  0.00  0.00    +0.000 C 
ATOM      3  N   UNL     1       3.588   5.156  18.727  0.00  0.00    +0.000 N 
ATOM      4  C   UNL     1       3.757   3.843  18.120  0.00  0.00    +0.000 C 
ATOM      5  C   UNL     1       5.168   3.401  18.513  0.00  0.00    +0.000 C 
ATOM      6  C   UNL     1       5.942   4.715  18.778  0.00  0.00    +0.000 C 
ATOM      7  C   UNL     1       4.820   5.596  19.377  0.00  0.00    +0.000 C 
ENDROOT
BRANCH   6   8
ATOM      8  N   UNL     1       6.655   5.406  17.690  0.00  0.00    +0.000 NA
ATOM      9  C   UNL     1       6.121   6.659  17.142  0.00  0.00    +0.000 C 
ATOM     10  C   UNL     1       5.223   6.485  15.910  0.00  0.00    +0.000 C 
ATOM     11  O   UNL     1       5.900   5.751  14.884  0.00  0.00    +0.000 OA
ATOM     12  C   UNL     1       6.271   4.454  15.365  0.00  0.00    +0.000 C 
ATOM     13  C   UNL     1       7.166   4.541  16.614  0.00  0.00    +0.000 C 
ENDBRANCH   6   8
BRANCH   2  14
ATOM     14  C   UNL     1       2.472   7.373  18.841  0.00  0.00    +0.000 C 
ATOM     15  C   UNL     1       1.807   8.277  17.802  0.00  0.00    +0.000 C 
ATOM     16  C   UNL     1       1.578   9.571  18.564  0.00  0.00    +0.000 C 
ATOM     17  C   UNL     1       1.243   9.134  19.987  0.00  0.00    +0.000 C 
ATOM     18  C   UNL     1       1.661   7.668  20.101  0.00  0.00    +0.000 C 
ENDBRANCH   2  14
BRANCH   5  19
ATOM     19  O   UNL     1       5.117   2.625  19.724  0.00  0.00    +0.000 OA
ATOM     20  H   UNL     1       5.930   2.095  19.780  0.00  0.00    +0.000 HD
ENDBRANCH   5  19
TORSDOF 3
ENDMDL
MODEL 4
REMARK VINA RESULT:      -6.8      1.665      2.177
REMARK  Name = 
REMARK  3 active torsions:
REMARK  status: ('A' for Active; 'I' for Inactive)
REMARK    1  A    between atoms: C_2  and  C_3
REMARK    2  A    between atoms: C_10  and  O_11
REMARK    3  A    between atoms: C_12  and  N_13
REMARK                            x       y       z     vdW  Elec       q    Type
REMARK                         _______ _______ _______ _____ _____    ______ ____
ROOT
ATOM      1  O   UNL     1       7.460   5.485  13.626  0.00  0.00    +0.000 OA
ATOM      2  C   UNL     1       6.811   4.580  14.151  0.00  0.00    +0.000 C 
ATOM      3  N   UNL     1       6.665   4.522  15.521  0.00  0.00    +0.000 N 
ATOM      4  C   UNL     1       7.121   5.636  16.341  0.00  0.00    +0.000 C 
ATOM      5  C   UNL     1       6.622   5.322  17.752  0.00  0.00    +0.000 C 
ATOM      6  C   UNL     1       5.399   4.394  17.550  0.00  0.00    +0.000 C 
ATOM      7  C   UNL     1       5.842   3.599  16.299  0.00  0.00    +0.000 C 
ENDROOT
BRANCH   6   8
ATOM      8  N   UNL     1       4.045   4.952  17.390  0.00  0.00    +0.000 NA
ATOM      9  C   UNL     1       3.693   6.222  18.040  0.00  0.00    +0.000 C 
ATOM     10  C   UNL     1       3.040   6.072  19.420  0.00  0.00    +0.000 C 
ATOM     11  O   UNL     1       1.891   5.220  19.353  0.00  0.00    +0.000 OA
ATOM     12  C   UNL     1       2.264   3.920  18.881  0.00  0.00    +0.000 C 
ATOM     13  C   UNL     1       2.941   3.984  17.501  0.00  0.00    +0.000 C 
ENDBRANCH   6   8
BRANCH   2  14
ATOM     14  C   UNL     1       6.072   3.543  13.316  0.00  0.00    +0.000 C 
ATOM     15  C   UNL     1       4.827   4.118  12.638  0.00  0.00    +0.000 C 
ATOM     16  C   UNL     1       4.483   3.067  11.596  0.00  0.00    +0.000 C 
ATOM     17  C   UNL     1       5.830   2.541  11.111  0.00  0.00    +0.000 C 
ATOM     18  C   UNL     1       6.870   3.002  12.132  0.00  0.00    +0.000 C 
ENDBRANCH   2  14
BRANCH   5  19
ATOM     19  O   UNL     1       7.641   4.614  18.484  0.00  0.00    +0.000 OA
ATOM     20  H   UNL     1       8.450   4.601  17.943  0.00  0.00    +0.000 HD
ENDBRANCH   5  19
TORSDOF 3
ENDMDL
MODEL 5
REMARK VINA RESULT:      -6.6      1.514      1.819
REMARK  Name = 
REMARK  3 active torsions:
REMARK  status: ('A' for Active; 'I' for Inactive)
REMARK    1  A    between atoms: C_2  and  C_3
REMARK    2  A    between atoms: C_10  and  O_11
REMARK    3  A    between atoms: C_12  and  N_13
REMARK                            x       y       z     vdW  Elec       q    Type
REMARK                         _______ _______ _______ _____ _____    ______ ____
ROOT
ATOM      1  O   UNL     1       7.768   6.162  15.263  0.00  0.00    +0.000 OA
ATOM      2  C   UNL     1       7.111   5.195  15.649  0.00  0.00    +0.000 C 
ATOM      3  N   UNL     1       6.763   5.064  16.977  0.00  0.00    +0.000 N 
ATOM      4  C   UNL     1       7.012   6.166  17.897  0.00  0.00    +0.000 C 
ATOM      5  C   UNL     1       6.329   5.757  19.203  0.00  0.00    +0.000 C 
ATOM      6  C   UNL     1       5.217   4.765  18.782  0.00  0.00    +0.000 C 
ATOM      7  C   UNL     1       5.898   4.057  17.586  0.00  0.00    +0.000 C 
ENDROOT
BRANCH   6   8
ATOM      8  N   UNL     1       3.868   5.243  18.436  0.00  0.00    +0.000 NA
ATOM      9  C   UNL     1       3.033   5.889  19.457  0.00  0.00    +0.000 C 
ATOM     10  C   UNL     1       2.079   4.940  20.194  0.00  0.00    +0.000 C 
ATOM     11  O   UNL     1       1.254   4.225  19.269  0.00  0.00    +0.000 OA
ATOM     12  C   UNL     1       2.065   3.452  18.376  0.00  0.00    +0.000 C 
ATOM     13  C   UNL     1       3.064   4.332  17.604  0.00  0.00    +0.000 C 
ENDBRANCH   6   8
BRANCH   2  14
ATOM     14  C   UNL     1       6.579   4.152  14.674  0.00  0.00    +0.000 C 
ATOM     15  C   UNL     1       5.140   4.436  14.242  0.00  0.00    +0.000 C 
ATOM     16  C   UNL     1       4.958   3.539  13.030  0.00  0.00    +0.000 C 
ATOM     17  C   UNL     1       6.314   3.544  12.332  0.00  0.00    +0.000 C 
ATOM     18  C   UNL     1       7.319   4.104  13.339  0.00  0.00    +0.000 C 
ENDBRANCH   2  14
BRANCH   5  19
ATOM     19  O   UNL     1       7.272   5.082  20.056  0.00  0.00    +0.000 OA
ATOM     20  H   UNL     1       7.233   5.493  20.937  0.00  0.00    +0.000 HD
ENDBRANCH   5  19
TORSDOF 3
ENDMDL
MODEL 6
REMARK VINA RESULT:      -6.6      3.225      4.810
REMARK  Name = 
REMARK  3 active torsions:
REMARK  status: ('A' for Active; 'I' for Inactive)
REMARK    1  A    between atoms: C_2  and  C_3
REMARK    2  A    between atoms: C_10  and  O_11
REMARK    3  A    between atoms: C_12  and  N_13
REMARK                            x       y       z     vdW  Elec       q    Type
REMARK                         _______ _______ _______ _____ _____    ______ ____
ROOT
ATOM      1  O   UNL     1       5.608   3.647  19.381  0.00  0.00    +0.000 OA
ATOM      2  C   UNL     1       4.866   4.250  18.606  0.00  0.00    +0.000 C 
ATOM      3  N   UNL     1       3.585   4.595  18.982  0.00  0.00    +0.000 N 
ATOM      4  C   UNL     1       3.168   4.413  20.366  0.00  0.00    +0.000 C 
ATOM      5  C   UNL     1       1.794   5.077  20.460  0.00  0.00    +0.000 C 
ATOM      6  C   UNL     1       1.778   6.130  19.324  0.00  0.00    +0.000 C 
ATOM      7  C   UNL     1       2.618   5.406  18.245  0.00  0.00    +0.000 C 
ENDROOT
BRANCH   6   8
ATOM      8  N   UNL     1       2.258   7.503  19.558  0.00  0.00    +0.000 NA
ATOM      9  C   UNL     1       1.674   8.311  20.637  0.00  0.00    +0.000 C 
ATOM     10  C   UNL     1       0.513   9.213  20.200  0.00  0.00    +0.000 C 
ATOM     11  O   UNL     1       0.904  10.058  19.112  0.00  0.00    +0.000 OA
ATOM     12  C   UNL     1       1.311   9.265  17.991  0.00  0.00    +0.000 C 
ATOM     13  C   UNL     1       2.469   8.318  18.351  0.00  0.00    +0.000 C 
ENDBRANCH   6   8
BRANCH   2  14
ATOM     14  C   UNL     1       5.352   4.718  17.240  0.00  0.00    +0.000 C 
ATOM     15  C   UNL     1       6.877   4.718  17.131  0.00  0.00    +0.000 C 
ATOM     16  C   UNL     1       7.118   4.836  15.636  0.00  0.00    +0.000 C 
ATOM     17  C   UNL     1       5.990   4.036  14.993  0.00  0.00    +0.000 C 
ATOM     18  C   UNL     1       4.939   3.815  16.081  0.00  0.00    +0.000 C 
ENDBRANCH   2  14
BRANCH   5  19
ATOM     19  O   UNL     1       0.762   4.102  20.219  0.00  0.00    +0.000 OA
ATOM     20  H   UNL     1      -0.094   4.563  20.198  0.00  0.00    +0.000 HD
ENDBRANCH   5  19
TORSDOF 3
ENDMDL
MODEL 7
REMARK VINA RESULT:      -6.6      3.113      3.891
REMARK  Name = 
REMARK  3 active torsions:
REMARK  status: ('A' for Active; 'I' for Inactive)
REMARK    1  A    between atoms: C_2  and  C_3
REMARK    2  A    between atoms: C_10  and  O_11
REMARK    3  A    between atoms: C_12  and  N_13
REMARK                            x       y       z     vdW  Elec       q    Type
REMARK                         _______ _______ _______ _____ _____    ______ ____
ROOT
ATOM      1  O   UNL     1       6.442   4.728  19.998  0.00  0.00    +0.000 OA
ATOM      2  C   UNL     1       5.951   4.612  18.875  0.00  0.00    +0.000 C 
ATOM      3  N   UNL     1       5.110   3.560  18.578  0.00  0.00    +0.000 N 
ATOM      4  C   UNL     1       4.649   2.685  19.647  0.00  0.00    +0.000 C 
ATOM      5  C   UNL     1       3.598   1.783  18.999  0.00  0.00    +0.000 C 
ATOM      6  C   UNL     1       3.067   2.589  17.788  0.00  0.00    +0.000 C 
ATOM      7  C   UNL     1       4.352   3.332  17.350  0.00  0.00    +0.000 C 
ENDROOT
BRANCH   6   8
ATOM      8  N   UNL     1       1.927   3.511  17.933  0.00  0.00    +0.000 NA
ATOM      9  C   UNL     1       2.165   4.947  18.125  0.00  0.00    +0.000 C 
ATOM     10  C   UNL     1       2.207   5.396  19.592  0.00  0.00    +0.000 C 
ATOM     11  O   UNL     1       1.017   5.000  20.281  0.00  0.00    +0.000 OA
ATOM     12  C   UNL     1       0.873   3.576  20.245  0.00  0.00    +0.000 C 
ATOM     13  C   UNL     1       0.836   3.041  18.803  0.00  0.00    +0.000 C 
ENDBRANCH   6   8
BRANCH   2  14
ATOM     14  C   UNL     1       6.175   5.663  17.795  0.00  0.00    +0.000 C 
ATOM     15  C   UNL     1       5.145   6.792  17.857  0.00  0.00    +0.000 C 
ATOM     16  C   UNL     1       5.764   7.873  16.986  0.00  0.00    +0.000 C 
ATOM     17  C   UNL     1       7.264   7.767  17.237  0.00  0.00    +0.000 C 
ATOM     18  C   UNL     1       7.497   6.417  17.916  0.00  0.00    +0.000 C 
ENDBRANCH   2  14
BRANCH   5  19
ATOM     19  O   UNL     1       4.216   0.570  18.530  0.00  0.00    +0.000 OA
ATOM     20  H   UNL     1       4.105  -0.112  19.214  0.00  0.00    +0.000 HD
ENDBRANCH   5  19
TORSDOF 3
ENDMDL
MODEL 8
REMARK VINA RESULT:      -6.6      0.942      1.064
REMARK  Name = 
REMARK  3 active torsions:
REMARK  status: ('A' for Active; 'I' for Inactive)
REMARK    1  A    between atoms: C_2  and  C_3
REMARK    2  A    between atoms: C_10  and  O_11
REMARK    3  A    between atoms: C_12  and  N_13
REMARK                            x       y       z     vdW  Elec       q    Type
REMARK                         _______ _______ _______ _____ _____    ______ ____
ROOT
ATOM      1  O   UNL     1       5.273   6.603  15.153  0.00  0.00    +0.000 OA
ATOM      2  C   UNL     1       5.726   5.518  15.518  0.00  0.00    +0.000 C 
ATOM      3  N   UNL     1       5.854   5.222  16.859  0.00  0.00    +0.000 N 
ATOM      4  C   UNL     1       5.278   6.120  17.851  0.00  0.00    +0.000 C 
ATOM      5  C   UNL     1       5.428   5.388  19.186  0.00  0.00    +0.000 C 
ATOM      6  C   UNL     1       5.499   3.886  18.815  0.00  0.00    +0.000 C 
ATOM      7  C   UNL     1       6.255   3.955  17.467  0.00  0.00    +0.000 C 
ENDROOT
BRANCH   6   8
ATOM      8  N   UNL     1       4.275   3.073  18.712  0.00  0.00    +0.000 NA
ATOM      9  C   UNL     1       3.602   2.921  17.416  0.00  0.00    +0.000 C 
ATOM     10  C   UNL     1       2.479   3.934  17.158  0.00  0.00    +0.000 C 
ATOM     11  O   UNL     1       1.515   3.908  18.216  0.00  0.00    +0.000 OA
ATOM     12  C   UNL     1       2.140   4.229  19.464  0.00  0.00    +0.000 C 
ATOM     13  C   UNL     1       3.292   3.264  19.792  0.00  0.00    +0.000 C 
ENDBRANCH   6   8
BRANCH   2  14
ATOM     14  C   UNL     1       6.081   4.426  14.517  0.00  0.00    +0.000 C 
ATOM     15  C   UNL     1       4.923   4.101  13.572  0.00  0.00    +0.000 C 
ATOM     16  C   UNL     1       5.592   3.308  12.463  0.00  0.00    +0.000 C 
ATOM     17  C   UNL     1       6.970   3.943  12.303  0.00  0.00    +0.000 C 
ATOM     18  C   UNL     1       7.201   4.799  13.548  0.00  0.00    +0.000 C 
ENDBRANCH   2  14
BRANCH   5  19
ATOM     19  O   UNL     1       6.658   5.780  19.822  0.00  0.00    +0.000 OA
ATOM     20  H   UNL     1       7.397   5.410  19.310  0.00  0.00    +0.000 HD
ENDBRANCH   5  19
TORSDOF 3
ENDMDL
MODEL 9
REMARK VINA RESULT:      -6.5      2.474      3.526
REMARK  Name = 
REMARK  3 active torsions:
REMARK  status: ('A' for Active; 'I' for Inactive)
REMARK    1  A    between atoms: C_2  and  C_3
REMARK    2  A    between atoms: C_10  and  O_11
REMARK    3  A    between atoms: C_12  and  N_13
REMARK                            x       y       z     vdW  Elec       q    Type
REMARK                         _______ _______ _______ _____ _____    ______ ____
ROOT
ATOM      1  O   UNL     1       6.364   4.896  19.785  0.00  0.00    +0.000 OA
ATOM      2  C   UNL     1       5.784   4.716  18.714  0.00  0.00    +0.000 C 
ATOM      3  N   UNL     1       5.006   3.595  18.514  0.00  0.00    +0.000 N 
ATOM      4  C   UNL     1       4.715   2.712  19.635  0.00  0.00    +0.000 C 
ATOM      5  C   UNL     1       3.684   1.716  19.102  0.00  0.00    +0.000 C 
ATOM      6  C   UNL     1       2.984   2.449  17.932  0.00  0.00    +0.000 C 
ATOM      7  C   UNL     1       4.160   3.279  17.365  0.00  0.00    +0.000 C 
ENDROOT
BRANCH   6   8
ATOM      8  N   UNL     1       1.792   3.282  18.166  0.00  0.00    +0.000 NA
ATOM      9  C   UNL     1       1.932   4.736  18.323  0.00  0.00    +0.000 C 
ATOM     10  C   UNL     1       2.064   5.211  19.776  0.00  0.00    +0.000 C 
ATOM     11  O   UNL     1       0.972   4.736  20.569  0.00  0.00    +0.000 OA
ATOM     12  C   UNL     1       0.937   3.304  20.560  0.00  0.00    +0.000 C 
ATOM     13  C   UNL     1       0.819   2.744  19.131  0.00  0.00    +0.000 C 
ENDBRANCH   6   8
BRANCH   2  14
ATOM     14  C   UNL     1       5.824   5.755  17.601  0.00  0.00    +0.000 C 
ATOM     15  C   UNL     1       5.800   5.122  16.209  0.00  0.00    +0.000 C 
ATOM     16  C   UNL     1       5.466   6.294  15.301  0.00  0.00    +0.000 C 
ATOM     17  C   UNL     1       4.504   7.156  16.112  0.00  0.00    +0.000 C 
ATOM     18  C   UNL     1       4.613   6.684  17.562  0.00  0.00    +0.000 C 
ENDBRANCH   2  14
BRANCH   5  19
ATOM     19  O   UNL     1       4.353   0.544  18.599  0.00  0.00    +0.000 OA
ATOM     20  H   UNL     1       5.254   0.798  18.335  0.00  0.00    +0.000 HD
ENDBRANCH   5  19
TORSDOF 3
ENDMDL
