MODEL 1
REMARK VINA RESULT:      -8.7      0.000      0.000
REMARK  Name = 
REMARK  8 active torsions:
REMARK  status: ('A' for Active; 'I' for Inactive)
REMARK    1  A    between atoms: C_1  and  N_2
REMARK    2  A    between atoms: C_5  and  N_6
REMARK    3  A    between atoms: N_6  and  C_7
REMARK    4  A    between atoms: C_7  and  C_8
REMARK    5  A    between atoms: C_8  and  C_9
REMARK    6  A    between atoms: C_18  and  C_19
REMARK    7  A    between atoms: N_21  and  C_22
REMARK    8  A    between atoms: C_26  and  C_27
REMARK                            x       y       z     vdW  Elec       q    Type
REMARK                         _______ _______ _______ _____ _____    ______ ____
ROOT
ATOM      1  C   UNL     1       2.593   1.922  18.577  0.00  0.00    +0.000 C 
ATOM      2  N   UNL     1       2.248   3.167  19.222  0.00  0.00    +0.000 N 
ATOM      3  C   UNL     1       1.172   3.350  20.044  0.00  0.00    +0.000 A 
ATOM      4  N   UNL     1       1.189   4.543  20.597  0.00  0.00    +0.000 NA
ATOM      5  C   UNL     1       2.286   5.155  20.074  0.00  0.00    +0.000 A 
ATOM      6  C   UNL     1       2.992   4.325  19.229  0.00  0.00    +0.000 A 
ENDROOT
BRANCH   6   7
ATOM      7  C   UNL     1       4.229   4.532  18.522  0.00  0.00    +0.000 C 
ATOM      8  O   UNL     1       5.259   4.858  19.110  0.00  0.00    +0.000 OA
ATOM      9  N   UNL     1       4.126   4.404  17.145  0.00  0.00    +0.000 N 
ATOM     10  H   UNL     1       3.178   4.372  16.782  0.00  0.00    +0.000 HD
BRANCH   9  11
ATOM     11  C   UNL     1       5.183   4.525  16.221  0.00  0.00    +0.000 A 
ATOM     12  C   UNL     1       6.360   5.210  16.527  0.00  0.00    +0.000 A 
ATOM     13  C   UNL     1       7.366   5.357  15.573  0.00  0.00    +0.000 A 
ATOM     14  C   UNL     1       7.203   4.822  14.302  0.00  0.00    +0.000 A 
ATOM     15  C   UNL     1       6.043   4.109  13.975  0.00  0.00    +0.000 A 
ATOM     16  C   UNL     1       5.044   3.941  14.955  0.00  0.00    +0.000 A 
BRANCH  15  17
ATOM     17  C   UNL     1       5.851   3.563  12.581  0.00  0.00    +0.000 C 
ATOM     18  F   UNL     1       6.668   4.135  11.652  0.00  0.00    +0.000 F 
ATOM     19  F   UNL     1       6.082   2.223  12.507  0.00  0.00    +0.000 F 
ATOM     20  F   UNL     1       4.582   3.750  12.123  0.00  0.00    +0.000 F 
ENDBRANCH  15  17
ENDBRANCH   9  11
ENDBRANCH   6   7
BRANCH   5  21
ATOM     21  N   UNL     1       2.625   6.416  20.390  0.00  0.00    +0.000 N 
ATOM     22  H   UNL     1       3.598   6.661  20.550  0.00  0.00    +0.000 HD
BRANCH  21  23
ATOM     23  C   UNL     1       1.693   7.514  20.174  0.00  0.00    +0.000 C 
BRANCH  23  24
ATOM     24  C   UNL     1       1.321   8.160  21.512  0.00  0.00    +0.000 C 
BRANCH  24  25
ATOM     25  C   UNL     1       0.470   9.394  21.331  0.00  0.00    +0.000 A 
ATOM     26  C   UNL     1       0.239   9.911  20.035  0.00  0.00    +0.000 A 
ATOM     27  C   UNL     1      -0.558  11.045  19.844  0.00  0.00    +0.000 A 
ATOM     28  C   UNL     1      -1.103  11.641  20.959  0.00  0.00    +0.000 A 
ATOM     29  C   UNL     1      -0.886  11.147  22.223  0.00  0.00    +0.000 A 
ATOM     30  C   UNL     1      -0.113  10.026  22.442  0.00  0.00    +0.000 A 
ATOM     31  O   UNL     1      -1.510  11.884  23.182  0.00  0.00    +0.000 OA
ATOM     32  C   UNL     1      -2.099  12.928  22.379  0.00  0.00    +0.000 C 
ATOM     33  O   UNL     1      -1.890  12.750  20.962  0.00  0.00    +0.000 OA
ENDBRANCH  24  25
ENDBRANCH  23  24
ENDBRANCH  21  23
ENDBRANCH   5  21
TORSDOF 7
ENDMDL
MODEL 2
REMARK VINA RESULT:      -8.7      5.026      8.257
REMARK  Name = 
REMARK  8 active torsions:
REMARK  status: ('A' for Active; 'I' for Inactive)
REMARK    1  A    between atoms: C_1  and  N_2
REMARK    2  A    between atoms: C_5  and  N_6
REMARK    3  A    between atoms: N_6  and  C_7
REMARK    4  A    between atoms: C_7  and  C_8
REMARK    5  A    between atoms: C_8  and  C_9
REMARK    6  A    between atoms: C_18  and  C_19
REMARK    7  A    between atoms: N_21  and  C_22
REMARK    8  A    between atoms: C_26  and  C_27
REMARK                            x       y       z     vdW  Elec       q    Type
REMARK                         _______ _______ _______ _____ _____    ______ ____
ROOT
ATOM      1  C   UNL     1       1.523   2.788  21.605  0.00  0.00    +0.000 C 
ATOM      2  N   UNL     1       2.817   2.750  20.966  0.00  0.00    +0.000 N 
ATOM      3  C   UNL     1       3.777   1.807  21.199  0.00  0.00    +0.000 A 
ATOM      4  N   UNL     1       4.793   1.942  20.375  0.00  0.00    +0.000 NA
ATOM      5  C   UNL     1       4.490   3.036  19.625  0.00  0.00    +0.000 A 
ATOM      6  C   UNL     1       3.255   3.559  19.942  0.00  0.00    +0.000 A 
ENDROOT
BRANCH   6   7
ATOM      7  C   UNL     1       2.520   4.655  19.365  0.00  0.00    +0.000 C 
ATOM      8  O   UNL     1       1.632   4.467  18.536  0.00  0.00    +0.000 OA
ATOM      9  N   UNL     1       2.954   5.908  19.772  0.00  0.00    +0.000 N 
ATOM     10  H   UNL     1       3.842   5.920  20.265  0.00  0.00    +0.000 HD
BRANCH   9  11
ATOM     11  C   UNL     1       2.394   7.142  19.387  0.00  0.00    +0.000 A 
ATOM     12  C   UNL     1       2.578   7.674  18.110  0.00  0.00    +0.000 A 
ATOM     13  C   UNL     1       2.056   8.923  17.777  0.00  0.00    +0.000 A 
ATOM     14  C   UNL     1       1.345   9.654  18.720  0.00  0.00    +0.000 A 
ATOM     15  C   UNL     1       1.124   9.133  20.002  0.00  0.00    +0.000 A 
ATOM     16  C   UNL     1       1.632   7.858  20.319  0.00  0.00    +0.000 A 
BRANCH  15  17
ATOM     17  C   UNL     1       0.385   9.946  21.037  0.00  0.00    +0.000 C 
ATOM     18  F   UNL     1      -0.041  11.158  20.580  0.00  0.00    +0.000 F 
ATOM     19  F   UNL     1      -0.726   9.313  21.505  0.00  0.00    +0.000 F 
ATOM     20  F   UNL     1       1.153  10.212  22.129  0.00  0.00    +0.000 F 
ENDBRANCH  15  17
ENDBRANCH   9  11
ENDBRANCH   6   7
BRANCH   5  21
ATOM     21  N   UNL     1       5.315   3.506  18.675  0.00  0.00    +0.000 N 
ATOM     22  H   UNL     1       6.323   3.441  18.792  0.00  0.00    +0.000 HD
BRANCH  21  23
ATOM     23  C   UNL     1       4.823   3.791  17.334  0.00  0.00    +0.000 C 
BRANCH  23  24
ATOM     24  C   UNL     1       5.951   4.360  16.468  0.00  0.00    +0.000 C 
BRANCH  24  25
ATOM     25  C   UNL     1       6.731   5.437  17.184  0.00  0.00    +0.000 A 
ATOM     26  C   UNL     1       7.527   5.108  18.305  0.00  0.00    +0.000 A 
ATOM     27  C   UNL     1       8.267   6.088  18.974  0.00  0.00    +0.000 A 
ATOM     28  C   UNL     1       8.190   7.382  18.507  0.00  0.00    +0.000 A 
ATOM     29  C   UNL     1       7.420   7.712  17.418  0.00  0.00    +0.000 A 
ATOM     30  C   UNL     1       6.686   6.767  16.733  0.00  0.00    +0.000 A 
ATOM     31  O   UNL     1       7.480   9.040  17.125  0.00  0.00    +0.000 OA
ATOM     32  C   UNL     1       8.332   9.513  18.189  0.00  0.00    +0.000 C 
ATOM     33  O   UNL     1       8.831   8.457  19.037  0.00  0.00    +0.000 OA
ENDBRANCH  24  25
ENDBRANCH  23  24
ENDBRANCH  21  23
ENDBRANCH   5  21
TORSDOF 7
ENDMDL
MODEL 3
REMARK VINA RESULT:      -8.7      0.901      1.136
REMARK  Name = 
REMARK  8 active torsions:
REMARK  status: ('A' for Active; 'I' for Inactive)
REMARK    1  A    between atoms: C_1  and  N_2
REMARK    2  A    between atoms: C_5  and  N_6
REMARK    3  A    between atoms: N_6  and  C_7
REMARK    4  A    between atoms: C_7  and  C_8
REMARK    5  A    between atoms: C_8  and  C_9
REMARK    6  A    between atoms: C_18  and  C_19
REMARK    7  A    between atoms: N_21  and  C_22
REMARK    8  A    between atoms: C_26  and  C_27
REMARK                            x       y       z     vdW  Elec       q    Type
REMARK                         _______ _______ _______ _____ _____    ______ ____
ROOT
ATOM      1  C   UNL     1       1.851   1.753  18.766  0.00  0.00    +0.000 C 
ATOM      2  N   UNL     1       1.756   3.086  19.314  0.00  0.00    +0.000 N 
ATOM      3  C   UNL     1       0.734   3.538  20.100  0.00  0.00    +0.000 A 
ATOM      4  N   UNL     1       0.984   4.741  20.567  0.00  0.00    +0.000 NA
ATOM      5  C   UNL     1       2.183   5.084  20.023  0.00  0.00    +0.000 A 
ATOM      6  C   UNL     1       2.714   4.072  19.253  0.00  0.00    +0.000 A 
ENDROOT
BRANCH   6   7
ATOM      7  C   UNL     1       3.971   3.979  18.556  0.00  0.00    +0.000 C 
ATOM      8  O   UNL     1       4.919   3.348  19.021  0.00  0.00    +0.000 OA
ATOM      9  N   UNL     1       4.026   4.714  17.381  0.00  0.00    +0.000 N 
ATOM     10  H   UNL     1       3.265   5.373  17.246  0.00  0.00    +0.000 HD
BRANCH   9  11
ATOM     11  C   UNL     1       5.119   4.775  16.494  0.00  0.00    +0.000 A 
ATOM     12  C   UNL     1       6.303   5.437  16.821  0.00  0.00    +0.000 A 
ATOM     13  C   UNL     1       7.347   5.525  15.901  0.00  0.00    +0.000 A 
ATOM     14  C   UNL     1       7.215   4.954  14.642  0.00  0.00    +0.000 A 
ATOM     15  C   UNL     1       6.047   4.262  14.295  0.00  0.00    +0.000 A 
ATOM     16  C   UNL     1       5.010   4.154  15.243  0.00  0.00    +0.000 A 
BRANCH  15  17
ATOM     17  C   UNL     1       5.890   3.675  12.914  0.00  0.00    +0.000 C 
ATOM     18  F   UNL     1       4.617   3.741  12.432  0.00  0.00    +0.000 F 
ATOM     19  F   UNL     1       6.672   4.297  11.989  0.00  0.00    +0.000 F 
ATOM     20  F   UNL     1       6.234   2.358  12.870  0.00  0.00    +0.000 F 
ENDBRANCH  15  17
ENDBRANCH   9  11
ENDBRANCH   6   7
BRANCH   5  21
ATOM     21  N   UNL     1       2.763   6.274  20.255  0.00  0.00    +0.000 N 
ATOM     22  H   UNL     1       3.746   6.325  20.507  0.00  0.00    +0.000 HD
BRANCH  21  23
ATOM     23  C   UNL     1       2.126   7.510  19.823  0.00  0.00    +0.000 C 
BRANCH  23  24
ATOM     24  C   UNL     1       1.273   8.088  20.957  0.00  0.00    +0.000 C 
BRANCH  24  25
ATOM     25  C   UNL     1       0.786   9.484  20.649  0.00  0.00    +0.000 A 
ATOM     26  C   UNL     1       0.474   9.847  19.319  0.00  0.00    +0.000 A 
ATOM     27  C   UNL     1       0.009  11.130  19.014  0.00  0.00    +0.000 A 
ATOM     28  C   UNL     1      -0.131  12.026  20.051  0.00  0.00    +0.000 A 
ATOM     29  C   UNL     1       0.168  11.683  21.348  0.00  0.00    +0.000 A 
ATOM     30  C   UNL     1       0.621  10.423  21.681  0.00  0.00    +0.000 A 
ATOM     31  O   UNL     1      -0.034  12.711  22.216  0.00  0.00    +0.000 OA
ATOM     32  C   UNL     1      -0.442  13.754  21.307  0.00  0.00    +0.000 C 
ATOM     33  O   UNL     1      -0.558  13.311  19.939  0.00  0.00    +0.000 OA
ENDBRANCH  24  25
ENDBRANCH  23  24
ENDBRANCH  21  23
ENDBRANCH   5  21
TORSDOF 7
ENDMDL
MODEL 4
REMARK VINA RESULT:      -8.5      5.106      9.725
REMARK  Name = 
REMARK  8 active torsions:
REMARK  status: ('A' for Active; 'I' for Inactive)
REMARK    1  A    between atoms: C_1  and  N_2
REMARK    2  A    between atoms: C_5  and  N_6
REMARK    3  A    between atoms: N_6  and  C_7
REMARK    4  A    between atoms: C_7  and  C_8
REMARK    5  A    between atoms: C_8  and  C_9
REMARK    6  A    between atoms: C_18  and  C_19
REMARK    7  A    between atoms: N_21  and  C_22
REMARK    8  A    between atoms: C_26  and  C_27
REMARK                            x       y       z     vdW  Elec       q    Type
REMARK                         _______ _______ _______ _____ _____    ______ ____
ROOT
ATOM      1  C   UNL     1       1.854   2.576  20.312  0.00  0.00    +0.000 C 
ATOM      2  N   UNL     1       3.160   3.114  20.008  0.00  0.00    +0.000 N 
ATOM      3  C   UNL     1       4.323   2.398  20.026  0.00  0.00    +0.000 A 
ATOM      4  N   UNL     1       5.331   3.110  19.571  0.00  0.00    +0.000 NA
ATOM      5  C   UNL     1       4.800   4.333  19.300  0.00  0.00    +0.000 A 
ATOM      6  C   UNL     1       3.442   4.374  19.535  0.00  0.00    +0.000 A 
ENDROOT
BRANCH   6   7
ATOM      7  C   UNL     1       2.481   5.427  19.325  0.00  0.00    +0.000 C 
ATOM      8  O   UNL     1       1.588   5.323  18.487  0.00  0.00    +0.000 OA
ATOM      9  N   UNL     1       2.707   6.563  20.088  0.00  0.00    +0.000 N 
ATOM     10  H   UNL     1       3.609   6.601  20.553  0.00  0.00    +0.000 HD
BRANCH   9  11
ATOM     11  C   UNL     1       1.906   7.722  20.102  0.00  0.00    +0.000 A 
ATOM     12  C   UNL     1       1.782   8.551  18.986  0.00  0.00    +0.000 A 
ATOM     13  C   UNL     1       1.024   9.719  19.048  0.00  0.00    +0.000 A 
ATOM     14  C   UNL     1       0.385  10.072  20.230  0.00  0.00    +0.000 A 
ATOM     15  C   UNL     1       0.472   9.247  21.358  0.00  0.00    +0.000 A 
ATOM     16  C   UNL     1       1.217   8.054  21.276  0.00  0.00    +0.000 A 
BRANCH  15  17
ATOM     17  C   UNL     1      -0.190   9.652  22.652  0.00  0.00    +0.000 C 
ATOM     18  F   UNL     1       0.630   9.569  23.738  0.00  0.00    +0.000 F 
ATOM     19  F   UNL     1      -0.648  10.935  22.628  0.00  0.00    +0.000 F 
ATOM     20  F   UNL     1      -1.270   8.875  22.945  0.00  0.00    +0.000 F 
ENDBRANCH  15  17
ENDBRANCH   9  11
ENDBRANCH   6   7
BRANCH   5  21
ATOM     21  N   UNL     1       5.542   5.351  18.833  0.00  0.00    +0.000 N 
ATOM     22  H   UNL     1       5.248   6.312  18.986  0.00  0.00    +0.000 HD
BRANCH  21  23
ATOM     23  C   UNL     1       6.921   5.139  18.417  0.00  0.00    +0.000 C 
BRANCH  23  24
ATOM     24  C   UNL     1       7.219   5.943  17.148  0.00  0.00    +0.000 C 
BRANCH  24  25
ATOM     25  C   UNL     1       6.813   5.202  15.896  0.00  0.00    +0.000 A 
ATOM     26  C   UNL     1       5.700   4.330  15.919  0.00  0.00    +0.000 A 
ATOM     27  C   UNL     1       5.299   3.645  14.768  0.00  0.00    +0.000 A 
ATOM     28  C   UNL     1       6.026   3.845  13.615  0.00  0.00    +0.000 A 
ATOM     29  C   UNL     1       7.109   4.691  13.582  0.00  0.00    +0.000 A 
ATOM     30  C   UNL     1       7.523   5.387  14.698  0.00  0.00    +0.000 A 
ATOM     31  O   UNL     1       7.688   4.743  12.351  0.00  0.00    +0.000 OA
ATOM     32  C   UNL     1       6.877   3.791  11.631  0.00  0.00    +0.000 C 
ATOM     33  O   UNL     1       5.787   3.258  12.413  0.00  0.00    +0.000 OA
ENDBRANCH  24  25
ENDBRANCH  23  24
ENDBRANCH  21  23
ENDBRANCH   5  21
TORSDOF 7
ENDMDL
MODEL 5
REMARK VINA RESULT:      -8.5      4.963      9.196
REMARK  Name = 
REMARK  8 active torsions:
REMARK  status: ('A' for Active; 'I' for Inactive)
REMARK    1  A    between atoms: C_1  and  N_2
REMARK    2  A    between atoms: C_5  and  N_6
REMARK    3  A    between atoms: N_6  and  C_7
REMARK    4  A    between atoms: C_7  and  C_8
REMARK    5  A    between atoms: C_8  and  C_9
REMARK    6  A    between atoms: C_18  and  C_19
REMARK    7  A    between atoms: N_21  and  C_22
REMARK    8  A    between atoms: C_26  and  C_27
REMARK                            x       y       z     vdW  Elec       q    Type
REMARK                         _______ _______ _______ _____ _____    ______ ____
ROOT
ATOM      1  C   UNL     1       1.241   3.107  21.000  0.00  0.00    +0.000 C 
ATOM      2  N   UNL     1       2.642   3.024  20.657  0.00  0.00    +0.000 N 
ATOM      3  C   UNL     1       3.488   2.031  21.061  0.00  0.00    +0.000 A 
ATOM      4  N   UNL     1       4.665   2.138  20.484  0.00  0.00    +0.000 NA
ATOM      5  C   UNL     1       4.578   3.264  19.724  0.00  0.00    +0.000 A 
ATOM      6  C   UNL     1       3.326   3.837  19.783  0.00  0.00    +0.000 A 
ENDROOT
BRANCH   6   7
ATOM      7  C   UNL     1       2.781   4.981  19.098  0.00  0.00    +0.000 C 
ATOM      8  O   UNL     1       2.434   4.919  17.920  0.00  0.00    +0.000 OA
ATOM      9  N   UNL     1       2.758   6.141  19.858  0.00  0.00    +0.000 N 
ATOM     10  H   UNL     1       3.291   6.104  20.721  0.00  0.00    +0.000 HD
BRANCH   9  11
ATOM     11  C   UNL     1       2.250   7.389  19.446  0.00  0.00    +0.000 A 
ATOM     12  C   UNL     1       2.438   7.875  18.151  0.00  0.00    +0.000 A 
ATOM     13  C   UNL     1       1.969   9.137  17.789  0.00  0.00    +0.000 A 
ATOM     14  C   UNL     1       1.310   9.928  18.722  0.00  0.00    +0.000 A 
ATOM     15  C   UNL     1       1.086   9.456  20.022  0.00  0.00    +0.000 A 
ATOM     16  C   UNL     1       1.538   8.167  20.369  0.00  0.00    +0.000 A 
BRANCH  15  17
ATOM     17  C   UNL     1       0.405  10.332  21.044  0.00  0.00    +0.000 C 
ATOM     18  F   UNL     1      -0.915  10.554  20.783  0.00  0.00    +0.000 F 
ATOM     19  F   UNL     1       0.453   9.808  22.300  0.00  0.00    +0.000 F 
ATOM     20  F   UNL     1       0.976  11.565  21.130  0.00  0.00    +0.000 F 
ENDBRANCH  15  17
ENDBRANCH   9  11
ENDBRANCH   6   7
BRANCH   5  21
ATOM     21  N   UNL     1       5.610   3.718  18.994  0.00  0.00    +0.000 N 
ATOM     22  H   UNL     1       6.109   3.094  18.366  0.00  0.00    +0.000 HD
BRANCH  21  23
ATOM     23  C   UNL     1       5.822   5.147  18.811  0.00  0.00    +0.000 C 
BRANCH  23  24
ATOM     24  C   UNL     1       7.025   5.389  17.893  0.00  0.00    +0.000 C 
BRANCH  24  25
ATOM     25  C   UNL     1       6.766   4.922  16.481  0.00  0.00    +0.000 A 
ATOM     26  C   UNL     1       5.742   3.982  16.223  0.00  0.00    +0.000 A 
ATOM     27  C   UNL     1       5.477   3.546  14.920  0.00  0.00    +0.000 A 
ATOM     28  C   UNL     1       6.248   4.059  13.902  0.00  0.00    +0.000 A 
ATOM     29  C   UNL     1       7.246   4.974  14.142  0.00  0.00    +0.000 A 
ATOM     30  C   UNL     1       7.525   5.429  15.414  0.00  0.00    +0.000 A 
ATOM     31  O   UNL     1       7.889   5.350  13.003  0.00  0.00    +0.000 OA
ATOM     32  C   UNL     1       7.217   4.525  12.029  0.00  0.00    +0.000 C 
ATOM     33  O   UNL     1       6.138   3.744  12.584  0.00  0.00    +0.000 OA
ENDBRANCH  24  25
ENDBRANCH  23  24
ENDBRANCH  21  23
ENDBRANCH   5  21
TORSDOF 7
ENDMDL
MODEL 6
REMARK VINA RESULT:      -8.5      6.035      8.803
REMARK  Name = 
REMARK  8 active torsions:
REMARK  status: ('A' for Active; 'I' for Inactive)
REMARK    1  A    between atoms: C_1  and  N_2
REMARK    2  A    between atoms: C_5  and  N_6
REMARK    3  A    between atoms: N_6  and  C_7
REMARK    4  A    between atoms: C_7  and  C_8
REMARK    5  A    between atoms: C_8  and  C_9
REMARK    6  A    between atoms: C_18  and  C_19
REMARK    7  A    between atoms: N_21  and  C_22
REMARK    8  A    between atoms: C_26  and  C_27
REMARK                            x       y       z     vdW  Elec       q    Type
REMARK                         _______ _______ _______ _____ _____    ______ ____
ROOT
ATOM      1  C   UNL     1       5.320   4.464  14.377  0.00  0.00    +0.000 C 
ATOM      2  N   UNL     1       6.189   5.155  15.300  0.00  0.00    +0.000 N 
ATOM      3  C   UNL     1       7.460   5.569  15.016  0.00  0.00    +0.000 A 
ATOM      4  N   UNL     1       7.958   6.293  15.994  0.00  0.00    +0.000 NA
ATOM      5  C   UNL     1       6.990   6.300  16.951  0.00  0.00    +0.000 A 
ATOM      6  C   UNL     1       5.858   5.623  16.551  0.00  0.00    +0.000 A 
ENDROOT
BRANCH   6   7
ATOM      7  C   UNL     1       4.590   5.438  17.208  0.00  0.00    +0.000 C 
ATOM      8  O   UNL     1       3.848   6.388  17.450  0.00  0.00    +0.000 OA
ATOM      9  N   UNL     1       4.335   4.131  17.595  0.00  0.00    +0.000 N 
ATOM     10  H   UNL     1       5.130   3.501  17.548  0.00  0.00    +0.000 HD
BRANCH   9  11
ATOM     11  C   UNL     1       3.162   3.669  18.225  0.00  0.00    +0.000 A 
ATOM     12  C   UNL     1       1.976   3.459  17.521  0.00  0.00    +0.000 A 
ATOM     13  C   UNL     1       0.817   3.052  18.183  0.00  0.00    +0.000 A 
ATOM     14  C   UNL     1       0.835   2.856  19.557  0.00  0.00    +0.000 A 
ATOM     15  C   UNL     1       2.018   3.036  20.286  0.00  0.00    +0.000 A 
ATOM     16  C   UNL     1       3.189   3.418  19.603  0.00  0.00    +0.000 A 
BRANCH  15  17
ATOM     17  C   UNL     1       2.024   2.859  21.785  0.00  0.00    +0.000 C 
ATOM     18  F   UNL     1       2.963   1.975  22.228  0.00  0.00    +0.000 F 
ATOM     19  F   UNL     1       2.265   4.023  22.449  0.00  0.00    +0.000 F 
ATOM     20  F   UNL     1       0.832   2.399  22.256  0.00  0.00    +0.000 F 
ENDBRANCH  15  17
ENDBRANCH   9  11
ENDBRANCH   6   7
BRANCH   5  21
ATOM     21  N   UNL     1       7.148   6.929  18.127  0.00  0.00    +0.000 N 
ATOM     22  H   UNL     1       6.582   6.666  18.930  0.00  0.00    +0.000 HD
BRANCH  21  23
ATOM     23  C   UNL     1       8.333   7.733  18.389  0.00  0.00    +0.000 C 
BRANCH  23  24
ATOM     24  C   UNL     1       8.109   9.173  17.915  0.00  0.00    +0.000 C 
BRANCH  24  25
ATOM     25  C   UNL     1       9.047  10.147  18.587  0.00  0.00    +0.000 A 
ATOM     26  C   UNL     1       8.951  10.375  19.979  0.00  0.00    +0.000 A 
ATOM     27  C   UNL     1       9.820  11.263  20.623  0.00  0.00    +0.000 A 
ATOM     28  C   UNL     1      10.765  11.908  19.856  0.00  0.00    +0.000 A 
ATOM     29  C   UNL     1      10.867  11.692  18.503  0.00  0.00    +0.000 A 
ATOM     30  C   UNL     1      10.031  10.817  17.841  0.00  0.00    +0.000 A 
ATOM     31  O   UNL     1      11.860  12.428  17.934  0.00  0.00    +0.000 OA
ATOM     32  C   UNL     1      12.333  13.171  19.077  0.00  0.00    +0.000 C 
ATOM     33  O   UNL     1      11.679  12.805  20.310  0.00  0.00    +0.000 OA
ENDBRANCH  24  25
ENDBRANCH  23  24
ENDBRANCH  21  23
ENDBRANCH   5  21
TORSDOF 7
ENDMDL
MODEL 7
REMARK VINA RESULT:      -8.5      1.171      1.758
REMARK  Name = 
REMARK  8 active torsions:
REMARK  status: ('A' for Active; 'I' for Inactive)
REMARK    1  A    between atoms: C_1  and  N_2
REMARK    2  A    between atoms: C_5  and  N_6
REMARK    3  A    between atoms: N_6  and  C_7
REMARK    4  A    between atoms: C_7  and  C_8
REMARK    5  A    between atoms: C_8  and  C_9
REMARK    6  A    between atoms: C_18  and  C_19
REMARK    7  A    between atoms: N_21  and  C_22
REMARK    8  A    between atoms: C_26  and  C_27
REMARK                            x       y       z     vdW  Elec       q    Type
REMARK                         _______ _______ _______ _____ _____    ______ ____
ROOT
ATOM      1  C   UNL     1       4.543   1.766  20.512  0.00  0.00    +0.000 C 
ATOM      2  N   UNL     1       3.599   2.828  20.251  0.00  0.00    +0.000 N 
ATOM      3  C   UNL     1       2.420   3.006  20.918  0.00  0.00    +0.000 A 
ATOM      4  N   UNL     1       1.835   4.130  20.567  0.00  0.00    +0.000 NA
ATOM      5  C   UNL     1       2.646   4.661  19.612  0.00  0.00    +0.000 A 
ATOM      6  C   UNL     1       3.772   3.894  19.399  0.00  0.00    +0.000 A 
ENDROOT
BRANCH   6   7
ATOM      7  C   UNL     1       4.909   4.108  18.542  0.00  0.00    +0.000 C 
ATOM      8  O   UNL     1       6.037   4.280  19.002  0.00  0.00    +0.000 OA
ATOM      9  N   UNL     1       4.600   4.174  17.192  0.00  0.00    +0.000 N 
ATOM     10  H   UNL     1       3.611   4.256  16.977  0.00  0.00    +0.000 HD
BRANCH   9  11
ATOM     11  C   UNL     1       5.522   4.343  16.139  0.00  0.00    +0.000 A 
ATOM     12  C   UNL     1       6.706   5.064  16.300  0.00  0.00    +0.000 A 
ATOM     13  C   UNL     1       7.572   5.259  15.225  0.00  0.00    +0.000 A 
ATOM     14  C   UNL     1       7.260   4.737  13.977  0.00  0.00    +0.000 A 
ATOM     15  C   UNL     1       6.090   3.988  13.793  0.00  0.00    +0.000 A 
ATOM     16  C   UNL     1       5.236   3.773  14.892  0.00  0.00    +0.000 A 
BRANCH  15  17
ATOM     17  C   UNL     1       5.734   3.455  12.426  0.00  0.00    +0.000 C 
ATOM     18  F   UNL     1       6.469   4.002  11.417  0.00  0.00    +0.000 F 
ATOM     19  F   UNL     1       5.908   2.108  12.327  0.00  0.00    +0.000 F 
ATOM     20  F   UNL     1       4.432   3.689  12.104  0.00  0.00    +0.000 F 
ENDBRANCH  15  17
ENDBRANCH   9  11
ENDBRANCH   6   7
BRANCH   5  21
ATOM     21  N   UNL     1       2.360   5.816  18.988  0.00  0.00    +0.000 N 
ATOM     22  H   UNL     1       1.912   5.810  18.075  0.00  0.00    +0.000 HD
BRANCH  21  23
ATOM     23  C   UNL     1       2.355   7.076  19.718  0.00  0.00    +0.000 C 
BRANCH  23  24
ATOM     24  C   UNL     1       2.080   8.240  18.760  0.00  0.00    +0.000 C 
BRANCH  24  25
ATOM     25  C   UNL     1       1.099   9.232  19.337  0.00  0.00    +0.000 A 
ATOM     26  C   UNL     1       0.689   9.120  20.685  0.00  0.00    +0.000 A 
ATOM     27  C   UNL     1      -0.208  10.037  21.243  0.00  0.00    +0.000 A 
ATOM     28  C   UNL     1      -0.680  11.047  20.435  0.00  0.00    +0.000 A 
ATOM     29  C   UNL     1      -0.287  11.165  19.123  0.00  0.00    +0.000 A 
ATOM     30  C   UNL     1       0.602  10.282  18.547  0.00  0.00    +0.000 A 
ATOM     31  O   UNL     1      -0.871  12.225  18.501  0.00  0.00    +0.000 OA
ATOM     32  C   UNL     1      -1.717  12.725  19.557  0.00  0.00    +0.000 C 
ATOM     33  O   UNL     1      -1.560  12.015  20.803  0.00  0.00    +0.000 OA
ENDBRANCH  24  25
ENDBRANCH  23  24
ENDBRANCH  21  23
ENDBRANCH   5  21
TORSDOF 7
ENDMDL
MODEL 8
REMARK VINA RESULT:      -8.5      0.870      1.164
REMARK  Name = 
REMARK  8 active torsions:
REMARK  status: ('A' for Active; 'I' for Inactive)
REMARK    1  A    between atoms: C_1  and  N_2
REMARK    2  A    between atoms: C_5  and  N_6
REMARK    3  A    between atoms: N_6  and  C_7
REMARK    4  A    between atoms: C_7  and  C_8
REMARK    5  A    between atoms: C_8  and  C_9
REMARK    6  A    between atoms: C_18  and  C_19
REMARK    7  A    between atoms: N_21  and  C_22
REMARK    8  A    between atoms: C_26  and  C_27
REMARK                            x       y       z     vdW  Elec       q    Type
REMARK                         _______ _______ _______ _____ _____    ______ ____
ROOT
ATOM      1  C   UNL     1       2.443   2.317  18.190  0.00  0.00    +0.000 C 
ATOM      2  N   UNL     1       2.186   3.442  19.058  0.00  0.00    +0.000 N 
ATOM      3  C   UNL     1       1.464   3.387  20.216  0.00  0.00    +0.000 A 
ATOM      4  N   UNL     1       1.515   4.528  20.868  0.00  0.00    +0.000 NA
ATOM      5  C   UNL     1       2.255   5.349  20.075  0.00  0.00    +0.000 A 
ATOM      6  C   UNL     1       2.716   4.707  18.946  0.00  0.00    +0.000 A 
ENDROOT
BRANCH   6   7
ATOM      7  C   UNL     1       3.574   5.167  17.885  0.00  0.00    +0.000 C 
ATOM      8  O   UNL     1       3.490   6.311  17.442  0.00  0.00    +0.000 OA
ATOM      9  N   UNL     1       4.425   4.196  17.380  0.00  0.00    +0.000 N 
ATOM     10  H   UNL     1       4.219   3.245  17.672  0.00  0.00    +0.000 HD
BRANCH   9  11
ATOM     11  C   UNL     1       5.385   4.384  16.365  0.00  0.00    +0.000 A 
ATOM     12  C   UNL     1       6.554   5.115  16.577  0.00  0.00    +0.000 A 
ATOM     13  C   UNL     1       7.459   5.328  15.538  0.00  0.00    +0.000 A 
ATOM     14  C   UNL     1       7.200   4.813  14.274  0.00  0.00    +0.000 A 
ATOM     15  C   UNL     1       6.046   4.055  14.039  0.00  0.00    +0.000 A 
ATOM     16  C   UNL     1       5.153   3.821  15.103  0.00  0.00    +0.000 A 
BRANCH  15  17
ATOM     17  C   UNL     1       5.748   3.530  12.656  0.00  0.00    +0.000 C 
ATOM     18  F   UNL     1       6.000   2.198  12.509  0.00  0.00    +0.000 F 
ATOM     19  F   UNL     1       4.446   3.704  12.298  0.00  0.00    +0.000 F 
ATOM     20  F   UNL     1       6.487   4.153  11.696  0.00  0.00    +0.000 F 
ENDBRANCH  15  17
ENDBRANCH   9  11
ENDBRANCH   6   7
BRANCH   5  21
ATOM     21  N   UNL     1       2.508   6.628  20.403  0.00  0.00    +0.000 N 
ATOM     22  H   UNL     1       3.440   7.015  20.279  0.00  0.00    +0.000 HD
BRANCH  21  23
ATOM     23  C   UNL     1       1.420   7.574  20.605  0.00  0.00    +0.000 C 
BRANCH  23  24
ATOM     24  C   UNL     1       1.541   8.735  19.612  0.00  0.00    +0.000 C 
BRANCH  24  25
ATOM     25  C   UNL     1       0.576   9.854  19.924  0.00  0.00    +0.000 A 
ATOM     26  C   UNL     1      -0.501  10.124  19.049  0.00  0.00    +0.000 A 
ATOM     27  C   UNL     1      -1.414  11.147  19.326  0.00  0.00    +0.000 A 
ATOM     28  C   UNL     1      -1.226  11.882  20.476  0.00  0.00    +0.000 A 
ATOM     29  C   UNL     1      -0.183  11.627  21.334  0.00  0.00    +0.000 A 
ATOM     30  C   UNL     1       0.728  10.620  21.092  0.00  0.00    +0.000 A 
ATOM     31  O   UNL     1      -0.176  12.467  22.404  0.00  0.00    +0.000 OA
ATOM     32  C   UNL     1      -1.301  13.313  22.091  0.00  0.00    +0.000 C 
ATOM     33  O   UNL     1      -2.005  12.913  20.896  0.00  0.00    +0.000 OA
ENDBRANCH  24  25
ENDBRANCH  23  24
ENDBRANCH  21  23
ENDBRANCH   5  21
TORSDOF 7
ENDMDL
MODEL 9
REMARK VINA RESULT:      -8.4      4.915      9.114
REMARK  Name = 
REMARK  8 active torsions:
REMARK  status: ('A' for Active; 'I' for Inactive)
REMARK    1  A    between atoms: C_1  and  N_2
REMARK    2  A    between atoms: C_5  and  N_6
REMARK    3  A    between atoms: N_6  and  C_7
REMARK    4  A    between atoms: C_7  and  C_8
REMARK    5  A    between atoms: C_8  and  C_9
REMARK    6  A    between atoms: C_18  and  C_19
REMARK    7  A    between atoms: N_21  and  C_22
REMARK    8  A    between atoms: C_26  and  C_27
REMARK                            x       y       z     vdW  Elec       q    Type
REMARK                         _______ _______ _______ _____ _____    ______ ____
ROOT
ATOM      1  C   UNL     1       1.661   2.232  18.483  0.00  0.00    +0.000 C 
ATOM      2  N   UNL     1       2.919   2.716  19.002  0.00  0.00    +0.000 N 
ATOM      3  C   UNL     1       3.943   1.922  19.435  0.00  0.00    +0.000 A 
ATOM      4  N   UNL     1       5.013   2.632  19.719  0.00  0.00    +0.000 NA
ATOM      5  C   UNL     1       4.642   3.923  19.504  0.00  0.00    +0.000 A 
ATOM      6  C   UNL     1       3.350   4.022  19.033  0.00  0.00    +0.000 A 
ENDROOT
BRANCH   6   7
ATOM      7  C   UNL     1       2.584   5.169  18.617  0.00  0.00    +0.000 C 
ATOM      8  O   UNL     1       1.763   5.097  17.704  0.00  0.00    +0.000 OA
ATOM      9  N   UNL     1       2.911   6.342  19.281  0.00  0.00    +0.000 N 
ATOM     10  H   UNL     1       3.763   6.305  19.832  0.00  0.00    +0.000 HD
BRANCH   9  11
ATOM     11  C   UNL     1       2.298   7.597  19.092  0.00  0.00    +0.000 A 
ATOM     12  C   UNL     1       2.535   8.375  17.959  0.00  0.00    +0.000 A 
ATOM     13  C   UNL     1       1.955   9.636  17.826  0.00  0.00    +0.000 A 
ATOM     14  C   UNL     1       1.134  10.132  18.830  0.00  0.00    +0.000 A 
ATOM     15  C   UNL     1       0.859   9.363  19.968  0.00  0.00    +0.000 A 
ATOM     16  C   UNL     1       1.427   8.078  20.078  0.00  0.00    +0.000 A 
BRANCH  15  17
ATOM     17  C   UNL     1      -0.002   9.920  21.075  0.00  0.00    +0.000 C 
ATOM     18  F   UNL     1      -0.791   8.987  21.679  0.00  0.00    +0.000 F 
ATOM     19  F   UNL     1       0.729  10.492  22.071  0.00  0.00    +0.000 F 
ATOM     20  F   UNL     1      -0.851  10.889  20.631  0.00  0.00    +0.000 F 
ENDBRANCH  15  17
ENDBRANCH   9  11
ENDBRANCH   6   7
BRANCH   5  21
ATOM     21  N   UNL     1       5.476   4.955  19.715  0.00  0.00    +0.000 N 
ATOM     22  H   UNL     1       5.474   5.443  20.607  0.00  0.00    +0.000 HD
BRANCH  21  23
ATOM     23  C   UNL     1       6.618   5.181  18.840  0.00  0.00    +0.000 C 
BRANCH  23  24
ATOM     24  C   UNL     1       6.223   6.109  17.686  0.00  0.00    +0.000 C 
BRANCH  24  25
ATOM     25  C   UNL     1       6.186   5.386  16.361  0.00  0.00    +0.000 A 
ATOM     26  C   UNL     1       5.246   4.352  16.145  0.00  0.00    +0.000 A 
ATOM     27  C   UNL     1       5.186   3.679  14.920  0.00  0.00    +0.000 A 
ATOM     28  C   UNL     1       6.075   4.054  13.937  0.00  0.00    +0.000 A 
ATOM     29  C   UNL     1       6.991   5.059  14.136  0.00  0.00    +0.000 A 
ATOM     30  C   UNL     1       7.069   5.746  15.330  0.00  0.00    +0.000 A 
ATOM     31  O   UNL     1       7.775   5.269  13.044  0.00  0.00    +0.000 OA
ATOM     32  C   UNL     1       7.281   4.245  12.156  0.00  0.00    +0.000 C 
ATOM     33  O   UNL     1       6.165   3.507  12.696  0.00  0.00    +0.000 OA
ENDBRANCH  24  25
ENDBRANCH  23  24
ENDBRANCH  21  23
ENDBRANCH   5  21
TORSDOF 7
ENDMDL
