MODEL 1
REMARK VINA RESULT:      -8.3      0.000      0.000
REMARK  Name = 
REMARK  7 active torsions:
REMARK  status: ('A' for Active; 'I' for Inactive)
REMARK    1  A    between atoms: C_1  and  O_2
REMARK    2  A    between atoms: O_2  and  C_3
REMARK    3  A    between atoms: C_7  and  C_8
REMARK    4  A    between atoms: C_13  and  O_14
REMARK    5  A    between atoms: O_14  and  C_15
REMARK    6  A    between atoms: C_15  and  C_16
REMARK    7  A    between atoms: C_16  and  N_17
REMARK                            x       y       z     vdW  Elec       q    Type
REMARK                         _______ _______ _______ _____ _____    ______ ____
ROOT
ATOM      1  C   UNL     1       4.068   4.389  18.616  0.00  0.00    +0.000 C 
ATOM      2  C   UNL     1       3.142   5.330  18.839  0.00  0.00    +0.000 C 
ATOM      3  O   UNL     1       2.883   6.376  17.960  0.00  0.00    +0.000 OA
ATOM      4  C   UNL     1       2.200   7.316  18.688  0.00  0.00    +0.000 A 
ATOM      5  C   UNL     1       1.887   8.567  18.215  0.00  0.00    +0.000 A 
ATOM      6  C   UNL     1       1.344   9.495  19.110  0.00  0.00    +0.000 A 
ATOM      7  C   UNL     1       1.094   9.125  20.445  0.00  0.00    +0.000 A 
ATOM      8  C   UNL     1       1.375   7.819  20.899  0.00  0.00    +0.000 A 
ATOM      9  C   UNL     1       1.934   6.926  19.994  0.00  0.00    +0.000 A 
ATOM     10  C   UNL     1       2.450   5.564  20.148  0.00  0.00    +0.000 C 
ATOM     11  O   UNL     1       2.405   4.851  21.127  0.00  0.00    +0.000 OA
ENDROOT
BRANCH   1  16
ATOM     12  C   UNL     1       6.849   5.894  16.594  0.00  0.00    +0.000 A 
ATOM     13  C   UNL     1       6.835   5.100  15.449  0.00  0.00    +0.000 A 
ATOM     14  C   UNL     1       5.926   4.043  15.329  0.00  0.00    +0.000 A 
ATOM     15  C   UNL     1       5.015   3.778  16.355  0.00  0.00    +0.000 A 
ATOM     16  C   UNL     1       5.030   4.555  17.516  0.00  0.00    +0.000 A 
ATOM     17  C   UNL     1       5.956   5.611  17.627  0.00  0.00    +0.000 A 
BRANCH  12  19
ATOM     18  C   UNL     1       7.718   7.830  17.670  0.00  0.00    +0.000 C 
ATOM     19  O   UNL     1       7.758   6.918  16.579  0.00  0.00    +0.000 OA
ENDBRANCH  12  19
ENDBRANCH   1  16
BRANCH   6  20
ATOM     20  O   UNL     1       1.052  10.699  18.536  0.00  0.00    +0.000 OA
BRANCH  20  21
ATOM     21  C   UNL     1       0.138  11.568  19.217  0.00  0.00    +0.000 C 
BRANCH  21  22
ATOM     22  C   UNL     1      -1.005  11.870  18.216  0.00  0.00    +0.000 C 
BRANCH  22  23
ATOM     23  N   UNL     1      -2.103  10.889  18.157  0.00  0.00    +0.000 NA
ATOM     24  C   UNL     1      -1.922   9.955  17.028  0.00  0.00    +0.000 C 
ATOM     25  C   UNL     1      -2.871  10.424  15.942  0.00  0.00    +0.000 C 
ATOM     26  C   UNL     1      -4.058  10.910  16.741  0.00  0.00    +0.000 C 
ATOM     27  C   UNL     1      -3.431  11.507  17.994  0.00  0.00    +0.000 C 
ENDBRANCH  22  23
ENDBRANCH  21  22
ENDBRANCH  20  21
ENDBRANCH   6  20
TORSDOF 6
ENDMDL
MODEL 2
REMARK VINA RESULT:      -7.8      1.264      1.862
REMARK  Name = 
REMARK  7 active torsions:
REMARK  status: ('A' for Active; 'I' for Inactive)
REMARK    1  A    between atoms: C_1  and  O_2
REMARK    2  A    between atoms: O_2  and  C_3
REMARK    3  A    between atoms: C_7  and  C_8
REMARK    4  A    between atoms: C_13  and  O_14
REMARK    5  A    between atoms: O_14  and  C_15
REMARK    6  A    between atoms: C_15  and  C_16
REMARK    7  A    between atoms: C_16  and  N_17
REMARK                            x       y       z     vdW  Elec       q    Type
REMARK                         _______ _______ _______ _____ _____    ______ ____
ROOT
ATOM      1  C   UNL     1       4.212   4.163  18.611  0.00  0.00    +0.000 C 
ATOM      2  C   UNL     1       3.276   5.094  18.834  0.00  0.00    +0.000 C 
ATOM      3  O   UNL     1       3.033   6.159  17.974  0.00  0.00    +0.000 OA
ATOM      4  C   UNL     1       2.327   7.078  18.708  0.00  0.00    +0.000 A 
ATOM      5  C   UNL     1       2.018   8.339  18.258  0.00  0.00    +0.000 A 
ATOM      6  C   UNL     1       1.448   9.242  19.162  0.00  0.00    +0.000 A 
ATOM      7  C   UNL     1       1.166   8.837  20.480  0.00  0.00    +0.000 A 
ATOM      8  C   UNL     1       1.444   7.522  20.909  0.00  0.00    +0.000 A 
ATOM      9  C   UNL     1       2.030   6.655  19.997  0.00  0.00    +0.000 A 
ATOM     10  C   UNL     1       2.550   5.292  20.130  0.00  0.00    +0.000 C 
ATOM     11  O   UNL     1       2.484   4.555  21.090  0.00  0.00    +0.000 OA
ENDROOT
BRANCH   1  16
ATOM     12  C   UNL     1       5.654   4.242  15.146  0.00  0.00    +0.000 A 
ATOM     13  C   UNL     1       6.989   4.556  15.396  0.00  0.00    +0.000 A 
ATOM     14  C   UNL     1       7.435   4.767  16.705  0.00  0.00    +0.000 A 
ATOM     15  C   UNL     1       6.546   4.658  17.779  0.00  0.00    +0.000 A 
ATOM     16  C   UNL     1       5.201   4.361  17.540  0.00  0.00    +0.000 A 
ATOM     17  C   UNL     1       4.764   4.159  16.216  0.00  0.00    +0.000 A 
BRANCH  12  19
ATOM     18  C   UNL     1       6.434   3.777  12.947  0.00  0.00    +0.000 C 
ATOM     19  O   UNL     1       5.346   4.023  13.830  0.00  0.00    +0.000 OA
ENDBRANCH  12  19
ENDBRANCH   1  16
BRANCH   6  20
ATOM     20  O   UNL     1       1.163  10.458  18.611  0.00  0.00    +0.000 OA
BRANCH  20  21
ATOM     21  C   UNL     1      -0.176  10.954  18.722  0.00  0.00    +0.000 C 
BRANCH  21  22
ATOM     22  C   UNL     1      -1.009  10.204  17.653  0.00  0.00    +0.000 C 
BRANCH  22  23
ATOM     23  N   UNL     1      -2.459  10.108  17.897  0.00  0.00    +0.000 NA
ATOM     24  C   UNL     1      -3.169   9.621  16.698  0.00  0.00    +0.000 C 
ATOM     25  C   UNL     1      -3.802  10.845  16.063  0.00  0.00    +0.000 C 
ATOM     26  C   UNL     1      -4.192  11.668  17.269  0.00  0.00    +0.000 C 
ATOM     27  C   UNL     1      -3.075  11.394  18.269  0.00  0.00    +0.000 C 
ENDBRANCH  22  23
ENDBRANCH  21  22
ENDBRANCH  20  21
ENDBRANCH   6  20
TORSDOF 6
ENDMDL
MODEL 3
REMARK VINA RESULT:      -7.6      1.383      1.909
REMARK  Name = 
REMARK  7 active torsions:
REMARK  status: ('A' for Active; 'I' for Inactive)
REMARK    1  A    between atoms: C_1  and  O_2
REMARK    2  A    between atoms: O_2  and  C_3
REMARK    3  A    between atoms: C_7  and  C_8
REMARK    4  A    between atoms: C_13  and  O_14
REMARK    5  A    between atoms: O_14  and  C_15
REMARK    6  A    between atoms: C_15  and  C_16
REMARK    7  A    between atoms: C_16  and  N_17
REMARK                            x       y       z     vdW  Elec       q    Type
REMARK                         _______ _______ _______ _____ _____    ______ ____
ROOT
ATOM      1  C   UNL     1       4.078   4.385  18.639  0.00  0.00    +0.000 C 
ATOM      2  C   UNL     1       3.154   5.332  18.848  0.00  0.00    +0.000 C 
ATOM      3  O   UNL     1       2.893   6.361  17.951  0.00  0.00    +0.000 OA
ATOM      4  C   UNL     1       2.214   7.316  18.664  0.00  0.00    +0.000 A 
ATOM      5  C   UNL     1       1.900   8.558  18.171  0.00  0.00    +0.000 A 
ATOM      6  C   UNL     1       1.361   9.502  19.050  0.00  0.00    +0.000 A 
ATOM      7  C   UNL     1       1.115   9.156  20.392  0.00  0.00    +0.000 A 
ATOM      8  C   UNL     1       1.396   7.859  20.868  0.00  0.00    +0.000 A 
ATOM      9  C   UNL     1       1.951   6.949  19.978  0.00  0.00    +0.000 A 
ATOM     10  C   UNL     1       2.466   5.589  20.154  0.00  0.00    +0.000 C 
ATOM     11  O   UNL     1       2.423   4.894  21.146  0.00  0.00    +0.000 OA
ENDROOT
BRANCH   1  16
ATOM     12  C   UNL     1       6.803   5.892  16.542  0.00  0.00    +0.000 A 
ATOM     13  C   UNL     1       6.827   5.036  15.442  0.00  0.00    +0.000 A 
ATOM     14  C   UNL     1       5.962   3.938  15.379  0.00  0.00    +0.000 A 
ATOM     15  C   UNL     1       5.059   3.691  16.417  0.00  0.00    +0.000 A 
ATOM     16  C   UNL     1       5.037   4.531  17.534  0.00  0.00    +0.000 A 
ATOM     17  C   UNL     1       5.919   5.629  17.588  0.00  0.00    +0.000 A 
BRANCH  12  19
ATOM     18  C   UNL     1       7.795   7.755  17.639  0.00  0.00    +0.000 C 
ATOM     19  O   UNL     1       7.669   6.950  16.473  0.00  0.00    +0.000 OA
ENDBRANCH  12  19
ENDBRANCH   1  16
BRANCH   6  20
ATOM     20  O   UNL     1       1.068  10.697  18.456  0.00  0.00    +0.000 OA
BRANCH  20  21
ATOM     21  C   UNL     1       1.068  11.875  19.271  0.00  0.00    +0.000 C 
BRANCH  21  22
ATOM     22  C   UNL     1      -0.364  12.458  19.194  0.00  0.00    +0.000 C 
BRANCH  22  23
ATOM     23  N   UNL     1      -1.408  11.741  19.948  0.00  0.00    +0.000 NA
ATOM     24  C   UNL     1      -2.753  12.241  19.601  0.00  0.00    +0.000 C 
ATOM     25  C   UNL     1      -3.169  13.147  20.744  0.00  0.00    +0.000 C 
ATOM     26  C   UNL     1      -2.570  12.447  21.943  0.00  0.00    +0.000 C 
ATOM     27  C   UNL     1      -1.266  11.869  21.409  0.00  0.00    +0.000 C 
ENDBRANCH  22  23
ENDBRANCH  21  22
ENDBRANCH  20  21
ENDBRANCH   6  20
TORSDOF 6
ENDMDL
MODEL 4
REMARK VINA RESULT:      -7.6      2.346      3.553
REMARK  Name = 
REMARK  7 active torsions:
REMARK  status: ('A' for Active; 'I' for Inactive)
REMARK    1  A    between atoms: C_1  and  O_2
REMARK    2  A    between atoms: O_2  and  C_3
REMARK    3  A    between atoms: C_7  and  C_8
REMARK    4  A    between atoms: C_13  and  O_14
REMARK    5  A    between atoms: O_14  and  C_15
REMARK    6  A    between atoms: C_15  and  C_16
REMARK    7  A    between atoms: C_16  and  N_17
REMARK                            x       y       z     vdW  Elec       q    Type
REMARK                         _______ _______ _______ _____ _____    ______ ____
ROOT
ATOM      1  C   UNL     1       4.042   4.443  18.658  0.00  0.00    +0.000 C 
ATOM      2  C   UNL     1       3.123   5.397  18.854  0.00  0.00    +0.000 C 
ATOM      3  O   UNL     1       2.878   6.424  17.949  0.00  0.00    +0.000 OA
ATOM      4  C   UNL     1       2.199   7.387  18.651  0.00  0.00    +0.000 A 
ATOM      5  C   UNL     1       1.898   8.628  18.147  0.00  0.00    +0.000 A 
ATOM      6  C   UNL     1       1.359   9.582  19.017  0.00  0.00    +0.000 A 
ATOM      7  C   UNL     1       1.097   9.245  20.358  0.00  0.00    +0.000 A 
ATOM      8  C   UNL     1       1.365   7.948  20.844  0.00  0.00    +0.000 A 
ATOM      9  C   UNL     1       1.921   7.030  19.964  0.00  0.00    +0.000 A 
ATOM     10  C   UNL     1       2.425   5.667  20.153  0.00  0.00    +0.000 C 
ATOM     11  O   UNL     1       2.369   4.978  21.148  0.00  0.00    +0.000 OA
ENDROOT
BRANCH   1  16
ATOM     12  C   UNL     1       6.856   5.870  16.625  0.00  0.00    +0.000 A 
ATOM     13  C   UNL     1       6.835   5.057  15.493  0.00  0.00    +0.000 A 
ATOM     14  C   UNL     1       5.909   4.013  15.386  0.00  0.00    +0.000 A 
ATOM     15  C   UNL     1       4.989   3.779  16.413  0.00  0.00    +0.000 A 
ATOM     16  C   UNL     1       5.012   4.575  17.561  0.00  0.00    +0.000 A 
ATOM     17  C   UNL     1       5.955   5.618  17.658  0.00  0.00    +0.000 A 
BRANCH  12  19
ATOM     18  C   UNL     1       7.693   7.861  17.622  0.00  0.00    +0.000 C 
ATOM     19  O   UNL     1       7.782   6.878  16.598  0.00  0.00    +0.000 OA
ENDBRANCH  12  19
ENDBRANCH   1  16
BRANCH   6  20
ATOM     20  O   UNL     1       1.079  10.775  18.414  0.00  0.00    +0.000 OA
BRANCH  20  21
ATOM     21  C   UNL     1       1.286  11.977  19.165  0.00  0.00    +0.000 C 
BRANCH  21  22
ATOM     22  C   UNL     1       2.214  12.873  18.308  0.00  0.00    +0.000 C 
BRANCH  22  23
ATOM     23  N   UNL     1       2.516  14.211  18.846  0.00  0.00    +0.000 NA
ATOM     24  C   UNL     1       3.200  15.047  17.840  0.00  0.00    +0.000 C 
ATOM     25  C   UNL     1       4.668  15.044  18.222  0.00  0.00    +0.000 C 
ATOM     26  C   UNL     1       4.606  15.034  19.733  0.00  0.00    +0.000 C 
ATOM     27  C   UNL     1       3.382  14.180  20.039  0.00  0.00    +0.000 C 
ENDBRANCH  22  23
ENDBRANCH  21  22
ENDBRANCH  20  21
ENDBRANCH   6  20
TORSDOF 6
ENDMDL
MODEL 5
REMARK VINA RESULT:      -7.6      1.634      2.654
REMARK  Name = 
REMARK  7 active torsions:
REMARK  status: ('A' for Active; 'I' for Inactive)
REMARK    1  A    between atoms: C_1  and  O_2
REMARK    2  A    between atoms: O_2  and  C_3
REMARK    3  A    between atoms: C_7  and  C_8
REMARK    4  A    between atoms: C_13  and  O_14
REMARK    5  A    between atoms: O_14  and  C_15
REMARK    6  A    between atoms: C_15  and  C_16
REMARK    7  A    between atoms: C_16  and  N_17
REMARK                            x       y       z     vdW  Elec       q    Type
REMARK                         _______ _______ _______ _____ _____    ______ ____
ROOT
ATOM      1  C   UNL     1       4.416   3.401  17.139  0.00  0.00    +0.000 C 
ATOM      2  C   UNL     1       3.509   4.185  17.736  0.00  0.00    +0.000 C 
ATOM      3  O   UNL     1       3.292   5.513  17.385  0.00  0.00    +0.000 OA
ATOM      4  C   UNL     1       2.618   6.073  18.440  0.00  0.00    +0.000 A 
ATOM      5  C   UNL     1       2.344   7.414  18.544  0.00  0.00    +0.000 A 
ATOM      6  C   UNL     1       1.806   7.888  19.745  0.00  0.00    +0.000 A 
ATOM      7  C   UNL     1       1.521   6.992  20.792  0.00  0.00    +0.000 A 
ATOM      8  C   UNL     1       1.761   5.610  20.647  0.00  0.00    +0.000 A 
ATOM      9  C   UNL     1       2.316   5.172  19.452  0.00  0.00    +0.000 A 
ATOM     10  C   UNL     1       2.796   3.859  19.014  0.00  0.00    +0.000 C 
ATOM     11  O   UNL     1       2.715   2.798  19.595  0.00  0.00    +0.000 OA
ENDROOT
BRANCH   1  16
ATOM     12  C   UNL     1       6.262   4.074  13.941  0.00  0.00    +0.000 A 
ATOM     13  C   UNL     1       7.291   4.910  14.373  0.00  0.00    +0.000 A 
ATOM     14  C   UNL     1       7.386   5.282  15.718  0.00  0.00    +0.000 A 
ATOM     15  C   UNL     1       6.451   4.814  16.646  0.00  0.00    +0.000 A 
ATOM     16  C   UNL     1       5.404   3.991  16.224  0.00  0.00    +0.000 A 
ATOM     17  C   UNL     1       5.316   3.630  14.864  0.00  0.00    +0.000 A 
BRANCH  12  19
ATOM     18  C   UNL     1       5.105   3.214  12.049  0.00  0.00    +0.000 C 
ATOM     19  O   UNL     1       6.296   3.752  12.611  0.00  0.00    +0.000 OA
ENDBRANCH  12  19
ENDBRANCH   1  16
BRANCH   6  20
ATOM     20  O   UNL     1       1.554   9.230  19.739  0.00  0.00    +0.000 OA
BRANCH  20  21
ATOM     21  C   UNL     1       1.039   9.815  18.536  0.00  0.00    +0.000 C 
BRANCH  21  22
ATOM     22  C   UNL     1      -0.352  10.394  18.895  0.00  0.00    +0.000 C 
BRANCH  22  23
ATOM     23  N   UNL     1      -1.157  10.912  17.775  0.00  0.00    +0.000 NA
ATOM     24  C   UNL     1      -2.124  11.926  18.238  0.00  0.00    +0.000 C 
ATOM     25  C   UNL     1      -3.467  11.224  18.302  0.00  0.00    +0.000 C 
ATOM     26  C   UNL     1      -3.395  10.285  17.120  0.00  0.00    +0.000 C 
ATOM     27  C   UNL     1      -1.930   9.868  17.078  0.00  0.00    +0.000 C 
ENDBRANCH  22  23
ENDBRANCH  21  22
ENDBRANCH  20  21
ENDBRANCH   6  20
TORSDOF 6
ENDMDL
MODEL 6
REMARK VINA RESULT:      -7.6      1.908      2.195
REMARK  Name = 
REMARK  7 active torsions:
REMARK  status: ('A' for Active; 'I' for Inactive)
REMARK    1  A    between atoms: C_1  and  O_2
REMARK    2  A    between atoms: O_2  and  C_3
REMARK    3  A    between atoms: C_7  and  C_8
REMARK    4  A    between atoms: C_13  and  O_14
REMARK    5  A    between atoms: O_14  and  C_15
REMARK    6  A    between atoms: C_15  and  C_16
REMARK    7  A    between atoms: C_16  and  N_17
REMARK                            x       y       z     vdW  Elec       q    Type
REMARK                         _______ _______ _______ _____ _____    ______ ____
ROOT
ATOM      1  C   UNL     1       4.167   4.421  18.585  0.00  0.00    +0.000 C 
ATOM      2  C   UNL     1       3.224   5.349  18.790  0.00  0.00    +0.000 C 
ATOM      3  O   UNL     1       2.958   6.382  17.898  0.00  0.00    +0.000 OA
ATOM      4  C   UNL     1       2.252   7.318  18.609  0.00  0.00    +0.000 A 
ATOM      5  C   UNL     1       1.923   8.559  18.122  0.00  0.00    +0.000 A 
ATOM      6  C   UNL     1       1.356   9.486  19.002  0.00  0.00    +0.000 A 
ATOM      7  C   UNL     1       1.096   9.124  20.337  0.00  0.00    +0.000 A 
ATOM      8  C   UNL     1       1.393   7.827  20.806  0.00  0.00    +0.000 A 
ATOM      9  C   UNL     1       1.977   6.936  19.916  0.00  0.00    +0.000 A 
ATOM     10  C   UNL     1       2.513   5.583  20.088  0.00  0.00    +0.000 C 
ATOM     11  O   UNL     1       2.469   4.879  21.074  0.00  0.00    +0.000 OA
ENDROOT
BRANCH   1  16
ATOM     12  C   UNL     1       6.921   5.974  16.561  0.00  0.00    +0.000 A 
ATOM     13  C   UNL     1       6.954   5.148  15.438  0.00  0.00    +0.000 A 
ATOM     14  C   UNL     1       6.086   4.055  15.335  0.00  0.00    +0.000 A 
ATOM     15  C   UNL     1       5.170   3.784  16.356  0.00  0.00    +0.000 A 
ATOM     16  C   UNL     1       5.139   4.593  17.495  0.00  0.00    +0.000 A 
ATOM     17  C   UNL     1       6.024   5.685  17.589  0.00  0.00    +0.000 A 
BRANCH  12  19
ATOM     18  C   UNL     1       7.731   7.945  17.618  0.00  0.00    +0.000 C 
ATOM     19  O   UNL     1       7.791   7.029  16.531  0.00  0.00    +0.000 OA
ENDBRANCH  12  19
ENDBRANCH   1  16
BRANCH   6  20
ATOM     20  O   UNL     1       1.050  10.680  18.414  0.00  0.00    +0.000 OA
BRANCH  20  21
ATOM     21  C   UNL     1       1.437  11.884  19.087  0.00  0.00    +0.000 C 
BRANCH  21  22
ATOM     22  C   UNL     1       0.208  12.825  19.038  0.00  0.00    +0.000 C 
BRANCH  22  23
ATOM     23  N   UNL     1      -0.251  13.374  20.326  0.00  0.00    +0.000 NA
ATOM     24  C   UNL     1       0.034  12.440  21.434  0.00  0.00    +0.000 C 
ATOM     25  C   UNL     1      -1.284  11.759  21.755  0.00  0.00    +0.000 C 
ATOM     26  C   UNL     1      -2.283  12.872  21.531  0.00  0.00    +0.000 C 
ATOM     27  C   UNL     1      -1.698  13.652  20.361  0.00  0.00    +0.000 C 
ENDBRANCH  22  23
ENDBRANCH  21  22
ENDBRANCH  20  21
ENDBRANCH   6  20
TORSDOF 6
ENDMDL
MODEL 7
REMARK VINA RESULT:      -7.5      0.985      1.289
REMARK  Name = 
REMARK  7 active torsions:
REMARK  status: ('A' for Active; 'I' for Inactive)
REMARK    1  A    between atoms: C_1  and  O_2
REMARK    2  A    between atoms: O_2  and  C_3
REMARK    3  A    between atoms: C_7  and  C_8
REMARK    4  A    between atoms: C_13  and  O_14
REMARK    5  A    between atoms: O_14  and  C_15
REMARK    6  A    between atoms: C_15  and  C_16
REMARK    7  A    between atoms: C_16  and  N_17
REMARK                            x       y       z     vdW  Elec       q    Type
REMARK                         _______ _______ _______ _____ _____    ______ ____
ROOT
ATOM      1  C   UNL     1       4.275   3.514  17.708  0.00  0.00    +0.000 C 
ATOM      2  C   UNL     1       3.369   4.366  18.204  0.00  0.00    +0.000 C 
ATOM      3  O   UNL     1       3.153   5.640  17.692  0.00  0.00    +0.000 OA
ATOM      4  C   UNL     1       2.479   6.327  18.669  0.00  0.00    +0.000 A 
ATOM      5  C   UNL     1       2.206   7.671  18.607  0.00  0.00    +0.000 A 
ATOM      6  C   UNL     1       1.669   8.290  19.741  0.00  0.00    +0.000 A 
ATOM      7  C   UNL     1       1.383   7.529  20.890  0.00  0.00    +0.000 A 
ATOM      8  C   UNL     1       1.623   6.140  20.917  0.00  0.00    +0.000 A 
ATOM      9  C   UNL     1       2.177   5.557  19.785  0.00  0.00    +0.000 A 
ATOM     10  C   UNL     1       2.656   4.200  19.512  0.00  0.00    +0.000 C 
ATOM     11  O   UNL     1       2.574   3.219  20.219  0.00  0.00    +0.000 OA
ENDROOT
BRANCH   1  16
ATOM     12  C   UNL     1       6.984   5.637  16.209  0.00  0.00    +0.000 A 
ATOM     13  C   UNL     1       7.094   5.100  14.927  0.00  0.00    +0.000 A 
ATOM     14  C   UNL     1       6.295   4.019  14.539  0.00  0.00    +0.000 A 
ATOM     15  C   UNL     1       5.371   3.469  15.433  0.00  0.00    +0.000 A 
ATOM     16  C   UNL     1       5.263   3.986  16.726  0.00  0.00    +0.000 A 
ATOM     17  C   UNL     1       6.079   5.070  17.106  0.00  0.00    +0.000 A 
BRANCH  12  19
ATOM     18  C   UNL     1       7.577   7.409  17.681  0.00  0.00    +0.000 C 
ATOM     19  O   UNL     1       7.791   6.713  16.459  0.00  0.00    +0.000 OA
ENDBRANCH  12  19
ENDBRANCH   1  16
BRANCH   6  20
ATOM     20  O   UNL     1       1.417   9.621  19.569  0.00  0.00    +0.000 OA
BRANCH  20  21
ATOM     21  C   UNL     1       1.455  10.149  18.238  0.00  0.00    +0.000 C 
BRANCH  21  22
ATOM     22  C   UNL     1       0.225  11.081  18.104  0.00  0.00    +0.000 C 
BRANCH  22  23
ATOM     23  N   UNL     1      -1.083  10.497  18.449  0.00  0.00    +0.000 NA
ATOM     24  C   UNL     1      -1.808  10.065  17.238  0.00  0.00    +0.000 C 
ATOM     25  C   UNL     1      -2.850  11.135  16.971  0.00  0.00    +0.000 C 
ATOM     26  C   UNL     1      -3.259  11.540  18.369  0.00  0.00    +0.000 C 
ATOM     27  C   UNL     1      -1.968  11.429  19.170  0.00  0.00    +0.000 C 
ENDBRANCH  22  23
ENDBRANCH  21  22
ENDBRANCH  20  21
ENDBRANCH   6  20
TORSDOF 6
ENDMDL
MODEL 8
REMARK VINA RESULT:      -7.5      2.033      2.833
REMARK  Name = 
REMARK  7 active torsions:
REMARK  status: ('A' for Active; 'I' for Inactive)
REMARK    1  A    between atoms: C_1  and  O_2
REMARK    2  A    between atoms: O_2  and  C_3
REMARK    3  A    between atoms: C_7  and  C_8
REMARK    4  A    between atoms: C_13  and  O_14
REMARK    5  A    between atoms: O_14  and  C_15
REMARK    6  A    between atoms: C_15  and  C_16
REMARK    7  A    between atoms: C_16  and  N_17
REMARK                            x       y       z     vdW  Elec       q    Type
REMARK                         _______ _______ _______ _____ _____    ______ ____
ROOT
ATOM      1  C   UNL     1       4.081   4.397  18.633  0.00  0.00    +0.000 C 
ATOM      2  C   UNL     1       3.155   5.342  18.835  0.00  0.00    +0.000 C 
ATOM      3  O   UNL     1       2.893   6.365  17.930  0.00  0.00    +0.000 OA
ATOM      4  C   UNL     1       2.209   7.322  18.635  0.00  0.00    +0.000 A 
ATOM      5  C   UNL     1       1.893   8.560  18.133  0.00  0.00    +0.000 A 
ATOM      6  C   UNL     1       1.350   9.509  19.005  0.00  0.00    +0.000 A 
ATOM      7  C   UNL     1       1.102   9.171  20.349  0.00  0.00    +0.000 A 
ATOM      8  C   UNL     1       1.386   7.878  20.834  0.00  0.00    +0.000 A 
ATOM      9  C   UNL     1       1.945   6.964  19.951  0.00  0.00    +0.000 A 
ATOM     10  C   UNL     1       2.463   5.607  20.138  0.00  0.00    +0.000 C 
ATOM     11  O   UNL     1       2.421   4.918  21.134  0.00  0.00    +0.000 OA
ENDROOT
BRANCH   1  16
ATOM     12  C   UNL     1       6.871   5.846  16.581  0.00  0.00    +0.000 A 
ATOM     13  C   UNL     1       6.847   5.034  15.448  0.00  0.00    +0.000 A 
ATOM     14  C   UNL     1       5.927   3.985  15.347  0.00  0.00    +0.000 A 
ATOM     15  C   UNL     1       5.017   3.743  16.380  0.00  0.00    +0.000 A 
ATOM     16  C   UNL     1       5.042   4.537  17.529  0.00  0.00    +0.000 A 
ATOM     17  C   UNL     1       5.979   5.586  17.621  0.00  0.00    +0.000 A 
BRANCH  12  19
ATOM     18  C   UNL     1       7.696   7.846  17.570  0.00  0.00    +0.000 C 
ATOM     19  O   UNL     1       7.789   6.860  16.549  0.00  0.00    +0.000 OA
ENDBRANCH  12  19
ENDBRANCH   1  16
BRANCH   6  20
ATOM     20  O   UNL     1       1.055  10.698  18.402  0.00  0.00    +0.000 OA
BRANCH  20  21
ATOM     21  C   UNL     1       0.566  11.768  19.221  0.00  0.00    +0.000 C 
BRANCH  21  22
ATOM     22  C   UNL     1       1.158  13.073  18.633  0.00  0.00    +0.000 C 
BRANCH  22  23
ATOM     23  N   UNL     1       1.083  14.271  19.486  0.00  0.00    +0.000 NA
ATOM     24  C   UNL     1      -0.283  14.832  19.497  0.00  0.00    +0.000 C 
ATOM     25  C   UNL     1      -0.248  16.033  18.571  0.00  0.00    +0.000 C 
ATOM     26  C   UNL     1       1.134  16.592  18.821  0.00  0.00    +0.000 C 
ATOM     27  C   UNL     1       1.988  15.353  19.057  0.00  0.00    +0.000 C 
ENDBRANCH  22  23
ENDBRANCH  21  22
ENDBRANCH  20  21
ENDBRANCH   6  20
TORSDOF 6
ENDMDL
MODEL 9
REMARK VINA RESULT:      -7.4      2.345      3.051
REMARK  Name = 
REMARK  7 active torsions:
REMARK  status: ('A' for Active; 'I' for Inactive)
REMARK    1  A    between atoms: C_1  and  O_2
REMARK    2  A    between atoms: O_2  and  C_3
REMARK    3  A    between atoms: C_7  and  C_8
REMARK    4  A    between atoms: C_13  and  O_14
REMARK    5  A    between atoms: O_14  and  C_15
REMARK    6  A    between atoms: C_15  and  C_16
REMARK    7  A    between atoms: C_16  and  N_17
REMARK                            x       y       z     vdW  Elec       q    Type
REMARK                         _______ _______ _______ _____ _____    ______ ____
ROOT
ATOM      1  C   UNL     1       4.106   4.349  18.590  0.00  0.00    +0.000 C 
ATOM      2  C   UNL     1       3.178   5.288  18.813  0.00  0.00    +0.000 C 
ATOM      3  O   UNL     1       2.918   6.335  17.935  0.00  0.00    +0.000 OA
ATOM      4  C   UNL     1       2.232   7.272  18.664  0.00  0.00    +0.000 A 
ATOM      5  C   UNL     1       1.917   8.523  18.194  0.00  0.00    +0.000 A 
ATOM      6  C   UNL     1       1.371   9.449  19.090  0.00  0.00    +0.000 A 
ATOM      7  C   UNL     1       1.118   9.075  20.423  0.00  0.00    +0.000 A 
ATOM      8  C   UNL     1       1.401   7.769  20.874  0.00  0.00    +0.000 A 
ATOM      9  C   UNL     1       1.964   6.879  19.969  0.00  0.00    +0.000 A 
ATOM     10  C   UNL     1       2.482   5.518  20.121  0.00  0.00    +0.000 C 
ATOM     11  O   UNL     1       2.437   4.802  21.098  0.00  0.00    +0.000 OA
ENDROOT
BRANCH   1  16
ATOM     12  C   UNL     1       6.894   5.859  16.581  0.00  0.00    +0.000 A 
ATOM     13  C   UNL     1       6.879   5.072  15.430  0.00  0.00    +0.000 A 
ATOM     14  C   UNL     1       5.967   4.020  15.302  0.00  0.00    +0.000 A 
ATOM     15  C   UNL     1       5.054   3.750  16.326  0.00  0.00    +0.000 A 
ATOM     16  C   UNL     1       5.070   4.519  17.492  0.00  0.00    +0.000 A 
ATOM     17  C   UNL     1       5.999   5.572  17.611  0.00  0.00    +0.000 A 
BRANCH  12  19
ATOM     18  C   UNL     1       7.690   7.854  17.605  0.00  0.00    +0.000 C 
ATOM     19  O   UNL     1       7.806   6.880  16.575  0.00  0.00    +0.000 OA
ENDBRANCH  12  19
ENDBRANCH   1  16
BRANCH   6  20
ATOM     20  O   UNL     1       1.077  10.653  18.518  0.00  0.00    +0.000 OA
BRANCH  20  21
ATOM     21  C   UNL     1       2.160  11.543  18.221  0.00  0.00    +0.000 C 
BRANCH  21  22
ATOM     22  C   UNL     1       1.961  12.787  19.122  0.00  0.00    +0.000 C 
BRANCH  22  23
ATOM     23  N   UNL     1       1.734  14.069  18.431  0.00  0.00    +0.000 NA
ATOM     24  C   UNL     1       2.874  14.987  18.622  0.00  0.00    +0.000 C 
ATOM     25  C   UNL     1       2.436  15.983  19.679  0.00  0.00    +0.000 C 
ATOM     26  C   UNL     1       0.968  16.160  19.363  0.00  0.00    +0.000 C 
ATOM     27  C   UNL     1       0.529  14.779  18.897  0.00  0.00    +0.000 C 
ENDBRANCH  22  23
ENDBRANCH  21  22
ENDBRANCH  20  21
ENDBRANCH   6  20
TORSDOF 6
ENDMDL
