MODEL 1
REMARK VINA RESULT:      -7.1      0.000      0.000
REMARK  Name = 
REMARK  6 active torsions:
REMARK  status: ('A' for Active; 'I' for Inactive)
REMARK    1  A    between atoms: C_1  and  O_2
REMARK    2  A    between atoms: O_2  and  C_3
REMARK    3  A    between atoms: C_8  and  C_9
REMARK    4  A    between atoms: C_9  and  N_10
REMARK    5  A    between atoms: C_13  and  C_14
REMARK    6  A    between atoms: C_15  and  C_16
REMARK                            x       y       z     vdW  Elec       q    Type
REMARK                         _______ _______ _______ _____ _____    ______ ____
ROOT
ATOM      1  C   UNL     1       4.479   6.278  17.564  0.00  0.00    +0.000 C 
ENDROOT
BRANCH   1   2
ATOM      2  N   UNL     1       3.728   5.234  18.244  0.00  0.00    +0.000 N 
ATOM      3  C   UNL     1       2.374   5.142  18.082  0.00  0.00    +0.000 A 
ATOM      4  N   UNL     1       1.624   4.235  18.609  0.00  0.00    +0.000 NA
ATOM      5  C   UNL     1       2.230   3.284  19.394  0.00  0.00    +0.000 A 
ATOM      6  C   UNL     1       1.289   2.254  19.961  0.00  0.00    +0.000 C 
ATOM      7  C   UNL     1       3.549   3.253  19.643  0.00  0.00    +0.000 A 
ATOM      8  C   UNL     1       4.285   2.236  20.461  0.00  0.00    +0.000 C 
ATOM      9  C   UNL     1       4.393   4.323  19.035  0.00  0.00    +0.000 A 
ATOM     10  O   UNL     1       5.606   4.347  19.240  0.00  0.00    +0.000 OA
ENDBRANCH   1   2
BRANCH   1  16
ATOM     11  C   UNL     1       6.693   6.222  16.322  0.00  0.00    +0.000 A 
ATOM     12  N   UNL     1       7.571   5.726  15.420  0.00  0.00    +0.000 NA
ATOM     13  C   UNL     1       7.131   4.729  14.624  0.00  0.00    +0.000 A 
ATOM     14  C   UNL     1       5.850   4.212  14.681  0.00  0.00    +0.000 A 
ATOM     15  C   UNL     1       4.978   4.720  15.638  0.00  0.00    +0.000 A 
ATOM     16  C   UNL     1       5.400   5.739  16.500  0.00  0.00    +0.000 A 
BRANCH  11  18
ATOM     17  C   UNL     1       7.875   6.858  18.221  0.00  0.00    +0.000 C 
ATOM     18  O   UNL     1       7.091   7.285  17.108  0.00  0.00    +0.000 OA
ENDBRANCH  11  18
ENDBRANCH   1  16
TORSDOF 3
ENDMDL
MODEL 2
REMARK VINA RESULT:      -7.1      2.005      5.630
REMARK  Name = 
REMARK  6 active torsions:
REMARK  status: ('A' for Active; 'I' for Inactive)
REMARK    1  A    between atoms: C_1  and  O_2
REMARK    2  A    between atoms: O_2  and  C_3
REMARK    3  A    between atoms: C_8  and  C_9
REMARK    4  A    between atoms: C_9  and  N_10
REMARK    5  A    between atoms: C_13  and  C_14
REMARK    6  A    between atoms: C_15  and  C_16
REMARK                            x       y       z     vdW  Elec       q    Type
REMARK                         _______ _______ _______ _____ _____    ______ ____
ROOT
ATOM      1  C   UNL     1       3.725   4.397  17.127  0.00  0.00    +0.000 C 
ENDROOT
BRANCH   1   2
ATOM      2  N   UNL     1       4.864   5.287  17.288  0.00  0.00    +0.000 N 
ATOM      3  C   UNL     1       4.959   6.427  16.538  0.00  0.00    +0.000 A 
ATOM      4  N   UNL     1       5.906   7.298  16.631  0.00  0.00    +0.000 NA
ATOM      5  C   UNL     1       6.896   7.067  17.554  0.00  0.00    +0.000 A 
ATOM      6  C   UNL     1       7.956   8.136  17.610  0.00  0.00    +0.000 C 
ATOM      7  C   UNL     1       6.932   5.991  18.355  0.00  0.00    +0.000 A 
ATOM      8  C   UNL     1       7.959   5.685  19.403  0.00  0.00    +0.000 C 
ATOM      9  C   UNL     1       5.835   4.989  18.218  0.00  0.00    +0.000 A 
ATOM     10  O   UNL     1       5.826   3.979  18.920  0.00  0.00    +0.000 OA
ENDBRANCH   1   2
BRANCH   1  16
ATOM     11  C   UNL     1       2.323   3.138  18.829  0.00  0.00    +0.000 A 
ATOM     12  N   UNL     1       1.586   3.030  19.958  0.00  0.00    +0.000 NA
ATOM     13  C   UNL     1       1.321   4.172  20.627  0.00  0.00    +0.000 A 
ATOM     14  C   UNL     1       1.752   5.420  20.213  0.00  0.00    +0.000 A 
ATOM     15  C   UNL     1       2.534   5.497  19.065  0.00  0.00    +0.000 A 
ATOM     16  C   UNL     1       2.852   4.334  18.353  0.00  0.00    +0.000 A 
BRANCH  11  18
ATOM     17  C   UNL     1       3.632   1.226  18.625  0.00  0.00    +0.000 C 
ATOM     18  O   UNL     1       2.558   1.997  18.089  0.00  0.00    +0.000 OA
ENDBRANCH  11  18
ENDBRANCH   1  16
TORSDOF 3
ENDMDL
MODEL 3
REMARK VINA RESULT:      -7.0      1.295      1.892
REMARK  Name = 
REMARK  6 active torsions:
REMARK  status: ('A' for Active; 'I' for Inactive)
REMARK    1  A    between atoms: C_1  and  O_2
REMARK    2  A    between atoms: O_2  and  C_3
REMARK    3  A    between atoms: C_8  and  C_9
REMARK    4  A    between atoms: C_9  and  N_10
REMARK    5  A    between atoms: C_13  and  C_14
REMARK    6  A    between atoms: C_15  and  C_16
REMARK                            x       y       z     vdW  Elec       q    Type
REMARK                         _______ _______ _______ _____ _____    ______ ____
ROOT
ATOM      1  C   UNL     1       4.363   6.057  17.234  0.00  0.00    +0.000 C 
ENDROOT
BRANCH   1   2
ATOM      2  N   UNL     1       3.990   5.049  18.214  0.00  0.00    +0.000 N 
ATOM      3  C   UNL     1       4.955   4.338  18.873  0.00  0.00    +0.000 A 
ATOM      4  N   UNL     1       4.731   3.452  19.783  0.00  0.00    +0.000 NA
ATOM      5  C   UNL     1       3.424   3.202  20.121  0.00  0.00    +0.000 A 
ATOM      6  C   UNL     1       3.247   2.165  21.199  0.00  0.00    +0.000 C 
ATOM      7  C   UNL     1       2.375   3.821  19.555  0.00  0.00    +0.000 A 
ATOM      8  C   UNL     1       0.928   3.624  19.889  0.00  0.00    +0.000 C 
ATOM      9  C   UNL     1       2.659   4.830  18.493  0.00  0.00    +0.000 A 
ATOM     10  O   UNL     1       1.735   5.419  17.935  0.00  0.00    +0.000 OA
ENDBRANCH   1   2
BRANCH   1  16
ATOM     11  C   UNL     1       6.646   6.079  16.124  0.00  0.00    +0.000 A 
ATOM     12  N   UNL     1       7.592   5.616  15.275  0.00  0.00    +0.000 NA
ATOM     13  C   UNL     1       7.233   4.608  14.453  0.00  0.00    +0.000 A 
ATOM     14  C   UNL     1       5.969   4.048  14.433  0.00  0.00    +0.000 A 
ATOM     15  C   UNL     1       5.025   4.523  15.338  0.00  0.00    +0.000 A 
ATOM     16  C   UNL     1       5.362   5.553  16.226  0.00  0.00    +0.000 A 
BRANCH  11  18
ATOM     17  C   UNL     1       7.731   6.754  18.068  0.00  0.00    +0.000 C 
ATOM     18  O   UNL     1       6.962   7.152  16.934  0.00  0.00    +0.000 OA
ENDBRANCH  11  18
ENDBRANCH   1  16
TORSDOF 3
ENDMDL
MODEL 4
REMARK VINA RESULT:      -7.0      1.479      1.789
REMARK  Name = 
REMARK  6 active torsions:
REMARK  status: ('A' for Active; 'I' for Inactive)
REMARK    1  A    between atoms: C_1  and  O_2
REMARK    2  A    between atoms: O_2  and  C_3
REMARK    3  A    between atoms: C_8  and  C_9
REMARK    4  A    between atoms: C_9  and  N_10
REMARK    5  A    between atoms: C_13  and  C_14
REMARK    6  A    between atoms: C_15  and  C_16
REMARK                            x       y       z     vdW  Elec       q    Type
REMARK                         _______ _______ _______ _____ _____    ______ ____
ROOT
ATOM      1  C   UNL     1       6.306   4.305  18.627  0.00  0.00    +0.000 C 
ENDROOT
BRANCH   1   2
ATOM      2  N   UNL     1       4.974   4.511  19.173  0.00  0.00    +0.000 N 
ATOM      3  C   UNL     1       4.363   5.729  19.056  0.00  0.00    +0.000 A 
ATOM      4  N   UNL     1       3.173   6.004  19.472  0.00  0.00    +0.000 NA
ATOM      5  C   UNL     1       2.461   4.998  20.077  0.00  0.00    +0.000 A 
ATOM      6  C   UNL     1       1.078   5.395  20.522  0.00  0.00    +0.000 C 
ATOM      7  C   UNL     1       2.936   3.756  20.263  0.00  0.00    +0.000 A 
ATOM      8  C   UNL     1       2.212   2.601  20.886  0.00  0.00    +0.000 C 
ATOM      9  C   UNL     1       4.321   3.467  19.789  0.00  0.00    +0.000 A 
ATOM     10  O   UNL     1       4.808   2.348  19.943  0.00  0.00    +0.000 OA
ENDBRANCH   1   2
BRANCH   1  16
ATOM     11  C   UNL     1       7.189   5.512  16.576  0.00  0.00    +0.000 A 
ATOM     12  N   UNL     1       7.324   5.713  15.244  0.00  0.00    +0.000 NA
ATOM     13  C   UNL     1       6.576   4.938  14.432  0.00  0.00    +0.000 A 
ATOM     14  C   UNL     1       5.692   3.978  14.888  0.00  0.00    +0.000 A 
ATOM     15  C   UNL     1       5.597   3.771  16.261  0.00  0.00    +0.000 A 
ATOM     16  C   UNL     1       6.372   4.537  17.140  0.00  0.00    +0.000 A 
BRANCH  11  18
ATOM     17  C   UNL     1       7.401   7.669  17.420  0.00  0.00    +0.000 C 
ATOM     18  O   UNL     1       7.894   6.331  17.436  0.00  0.00    +0.000 OA
ENDBRANCH  11  18
ENDBRANCH   1  16
TORSDOF 3
ENDMDL
MODEL 5
REMARK VINA RESULT:      -7.0      1.592      2.021
REMARK  Name = 
REMARK  6 active torsions:
REMARK  status: ('A' for Active; 'I' for Inactive)
REMARK    1  A    between atoms: C_1  and  O_2
REMARK    2  A    between atoms: O_2  and  C_3
REMARK    3  A    between atoms: C_8  and  C_9
REMARK    4  A    between atoms: C_9  and  N_10
REMARK    5  A    between atoms: C_13  and  C_14
REMARK    6  A    between atoms: C_15  and  C_16
REMARK                            x       y       z     vdW  Elec       q    Type
REMARK                         _______ _______ _______ _____ _____    ______ ____
ROOT
ATOM      1  C   UNL     1       6.088   4.823  18.886  0.00  0.00    +0.000 C 
ENDROOT
BRANCH   1   2
ATOM      2  N   UNL     1       4.803   4.351  19.379  0.00  0.00    +0.000 N 
ATOM      3  C   UNL     1       4.612   3.022  19.642  0.00  0.00    +0.000 A 
ATOM      4  N   UNL     1       3.528   2.509  20.115  0.00  0.00    +0.000 NA
ATOM      5  C   UNL     1       2.482   3.360  20.378  0.00  0.00    +0.000 A 
ATOM      6  C   UNL     1       1.258   2.686  20.939  0.00  0.00    +0.000 C 
ATOM      7  C   UNL     1       2.527   4.685  20.165  0.00  0.00    +0.000 A 
ATOM      8  C   UNL     1       1.442   5.678  20.453  0.00  0.00    +0.000 C 
ATOM      9  C   UNL     1       3.786   5.252  19.602  0.00  0.00    +0.000 A 
ATOM     10  O   UNL     1       3.877   6.459  19.378  0.00  0.00    +0.000 OA
ENDBRANCH   1   2
BRANCH   1  16
ATOM     11  C   UNL     1       7.088   5.651  16.704  0.00  0.00    +0.000 A 
ATOM     12  N   UNL     1       7.223   5.675  15.358  0.00  0.00    +0.000 NA
ATOM     13  C   UNL     1       6.363   4.919  14.645  0.00  0.00    +0.000 A 
ATOM     14  C   UNL     1       5.366   4.148  15.214  0.00  0.00    +0.000 A 
ATOM     15  C   UNL     1       5.269   4.119  16.601  0.00  0.00    +0.000 A 
ATOM     16  C   UNL     1       6.157   4.869  17.382  0.00  0.00    +0.000 A 
BRANCH  11  18
ATOM     17  C   UNL     1       7.486   7.822  17.438  0.00  0.00    +0.000 C 
ATOM     18  O   UNL     1       7.912   6.461  17.460  0.00  0.00    +0.000 OA
ENDBRANCH  11  18
ENDBRANCH   1  16
TORSDOF 3
ENDMDL
MODEL 6
REMARK VINA RESULT:      -7.0      1.768      2.851
REMARK  Name = 
REMARK  6 active torsions:
REMARK  status: ('A' for Active; 'I' for Inactive)
REMARK    1  A    between atoms: C_1  and  O_2
REMARK    2  A    between atoms: O_2  and  C_3
REMARK    3  A    between atoms: C_8  and  C_9
REMARK    4  A    between atoms: C_9  and  N_10
REMARK    5  A    between atoms: C_13  and  C_14
REMARK    6  A    between atoms: C_15  and  C_16
REMARK                            x       y       z     vdW  Elec       q    Type
REMARK                         _______ _______ _______ _____ _____    ______ ____
ROOT
ATOM      1  C   UNL     1       4.539   4.203  17.027  0.00  0.00    +0.000 C 
ENDROOT
BRANCH   1   2
ATOM      2  N   UNL     1       3.721   3.871  18.184  0.00  0.00    +0.000 N 
ATOM      3  C   UNL     1       3.804   2.631  18.753  0.00  0.00    +0.000 A 
ATOM      4  N   UNL     1       3.152   2.251  19.799  0.00  0.00    +0.000 NA
ATOM      5  C   UNL     1       2.310   3.161  20.391  0.00  0.00    +0.000 A 
ATOM      6  C   UNL     1       1.597   2.644  21.613  0.00  0.00    +0.000 C 
ATOM      7  C   UNL     1       2.128   4.412  19.940  0.00  0.00    +0.000 A 
ATOM      8  C   UNL     1       1.254   5.467  20.545  0.00  0.00    +0.000 C 
ATOM      9  C   UNL     1       2.880   4.822  18.718  0.00  0.00    +0.000 A 
ATOM     10  O   UNL     1       2.742   5.954  18.256  0.00  0.00    +0.000 OA
ENDBRANCH   1   2
BRANCH   1  16
ATOM     11  C   UNL     1       6.398   5.825  16.431  0.00  0.00    +0.000 A 
ATOM     12  N   UNL     1       7.435   6.646  16.715  0.00  0.00    +0.000 NA
ATOM     13  C   UNL     1       7.865   6.668  17.994  0.00  0.00    +0.000 A 
ATOM     14  C   UNL     1       7.311   5.899  19.001  0.00  0.00    +0.000 A 
ATOM     15  C   UNL     1       6.226   5.087  18.687  0.00  0.00    +0.000 A 
ATOM     16  C   UNL     1       5.733   5.051  17.377  0.00  0.00    +0.000 A 
BRANCH  11  18
ATOM     17  C   UNL     1       6.858   4.937  14.331  0.00  0.00    +0.000 C 
ATOM     18  O   UNL     1       5.976   5.733  15.120  0.00  0.00    +0.000 OA
ENDBRANCH  11  18
ENDBRANCH   1  16
TORSDOF 3
ENDMDL
MODEL 7
REMARK VINA RESULT:      -7.0      1.638      2.013
REMARK  Name = 
REMARK  6 active torsions:
REMARK  status: ('A' for Active; 'I' for Inactive)
REMARK    1  A    between atoms: C_1  and  O_2
REMARK    2  A    between atoms: O_2  and  C_3
REMARK    3  A    between atoms: C_8  and  C_9
REMARK    4  A    between atoms: C_9  and  N_10
REMARK    5  A    between atoms: C_13  and  C_14
REMARK    6  A    between atoms: C_15  and  C_16
REMARK                            x       y       z     vdW  Elec       q    Type
REMARK                         _______ _______ _______ _____ _____    ______ ____
ROOT
ATOM      1  C   UNL     1       3.763   5.895  17.478  0.00  0.00    +0.000 C 
ENDROOT
BRANCH   1   2
ATOM      2  N   UNL     1       3.190   5.006  18.478  0.00  0.00    +0.000 N 
ATOM      3  C   UNL     1       3.553   5.122  19.791  0.00  0.00    +0.000 A 
ATOM      4  N   UNL     1       3.078   4.411  20.757  0.00  0.00    +0.000 NA
ATOM      5  C   UNL     1       2.132   3.465  20.446  0.00  0.00    +0.000 A 
ATOM      6  C   UNL     1       1.618   2.688  21.629  0.00  0.00    +0.000 C 
ATOM      7  C   UNL     1       1.683   3.240  19.200  0.00  0.00    +0.000 A 
ATOM      8  C   UNL     1       0.636   2.251  18.788  0.00  0.00    +0.000 C 
ATOM      9  C   UNL     1       2.261   4.064  18.098  0.00  0.00    +0.000 A 
ATOM     10  O   UNL     1       1.892   3.891  16.937  0.00  0.00    +0.000 OA
ENDBRANCH   1   2
BRANCH   1  16
ATOM     11  C   UNL     1       6.256   5.444  17.307  0.00  0.00    +0.000 A 
ATOM     12  N   UNL     1       7.357   4.882  16.758  0.00  0.00    +0.000 NA
ATOM     13  C   UNL     1       7.181   4.184  15.617  0.00  0.00    +0.000 A 
ATOM     14  C   UNL     1       5.956   4.030  14.993  0.00  0.00    +0.000 A 
ATOM     15  C   UNL     1       4.836   4.593  15.596  0.00  0.00    +0.000 A 
ATOM     16  C   UNL     1       4.970   5.306  16.794  0.00  0.00    +0.000 A 
BRANCH  11  18
ATOM     17  C   UNL     1       7.495   5.764  19.249  0.00  0.00    +0.000 C 
ATOM     18  O   UNL     1       6.411   6.217  18.441  0.00  0.00    +0.000 OA
ENDBRANCH  11  18
ENDBRANCH   1  16
TORSDOF 3
ENDMDL
MODEL 8
REMARK VINA RESULT:      -7.0      1.482      2.564
REMARK  Name = 
REMARK  6 active torsions:
REMARK  status: ('A' for Active; 'I' for Inactive)
REMARK    1  A    between atoms: C_1  and  O_2
REMARK    2  A    between atoms: O_2  and  C_3
REMARK    3  A    between atoms: C_8  and  C_9
REMARK    4  A    between atoms: C_9  and  N_10
REMARK    5  A    between atoms: C_13  and  C_14
REMARK    6  A    between atoms: C_15  and  C_16
REMARK                            x       y       z     vdW  Elec       q    Type
REMARK                         _______ _______ _______ _____ _____    ______ ____
ROOT
ATOM      1  C   UNL     1       5.559   3.851  17.540  0.00  0.00    +0.000 C 
ENDROOT
BRANCH   1   2
ATOM      2  N   UNL     1       4.341   3.951  18.329  0.00  0.00    +0.000 N 
ATOM      3  C   UNL     1       3.303   4.731  17.899  0.00  0.00    +0.000 A 
ATOM      4  N   UNL     1       2.171   4.857  18.504  0.00  0.00    +0.000 NA
ATOM      5  C   UNL     1       1.989   4.153  19.670  0.00  0.00    +0.000 A 
ATOM      6  C   UNL     1       0.638   4.344  20.307  0.00  0.00    +0.000 C 
ATOM      7  C   UNL     1       2.921   3.352  20.211  0.00  0.00    +0.000 A 
ATOM      8  C   UNL     1       2.788   2.533  21.458  0.00  0.00    +0.000 C 
ATOM      9  C   UNL     1       4.229   3.236  19.501  0.00  0.00    +0.000 A 
ATOM     10  O   UNL     1       5.121   2.524  19.959  0.00  0.00    +0.000 OA
ENDBRANCH   1   2
BRANCH   1  16
ATOM     11  C   UNL     1       6.594   5.968  16.595  0.00  0.00    +0.000 A 
ATOM     12  N   UNL     1       7.317   7.109  16.672  0.00  0.00    +0.000 NA
ATOM     13  C   UNL     1       7.948   7.355  17.839  0.00  0.00    +0.000 A 
ATOM     14  C   UNL     1       7.897   6.508  18.931  0.00  0.00    +0.000 A 
ATOM     15  C   UNL     1       7.120   5.358  18.835  0.00  0.00    +0.000 A 
ATOM     16  C   UNL     1       6.430   5.075  17.650  0.00  0.00    +0.000 A 
BRANCH  11  18
ATOM     17  C   UNL     1       6.902   5.058  14.477  0.00  0.00    +0.000 C 
ATOM     18  O   UNL     1       5.988   5.656  15.395  0.00  0.00    +0.000 OA
ENDBRANCH  11  18
ENDBRANCH   1  16
TORSDOF 3
ENDMDL
MODEL 9
REMARK VINA RESULT:      -6.8      1.558      1.729
REMARK  Name = 
REMARK  6 active torsions:
REMARK  status: ('A' for Active; 'I' for Inactive)
REMARK    1  A    between atoms: C_1  and  O_2
REMARK    2  A    between atoms: O_2  and  C_3
REMARK    3  A    between atoms: C_8  and  C_9
REMARK    4  A    between atoms: C_9  and  N_10
REMARK    5  A    between atoms: C_13  and  C_14
REMARK    6  A    between atoms: C_15  and  C_16
REMARK                            x       y       z     vdW  Elec       q    Type
REMARK                         _______ _______ _______ _____ _____    ______ ____
ROOT
ATOM      1  C   UNL     1       4.222   6.161  17.679  0.00  0.00    +0.000 C 
ENDROOT
BRANCH   1   2
ATOM      2  N   UNL     1       3.267   5.132  18.061  0.00  0.00    +0.000 N 
ATOM      3  C   UNL     1       2.825   4.226  17.137  0.00  0.00    +0.000 A 
ATOM      4  N   UNL     1       2.010   3.257  17.381  0.00  0.00    +0.000 NA
ATOM      5  C   UNL     1       1.551   3.119  18.669  0.00  0.00    +0.000 A 
ATOM      6  C   UNL     1       0.616   1.957  18.875  0.00  0.00    +0.000 C 
ATOM      7  C   UNL     1       1.899   3.937  19.676  0.00  0.00    +0.000 A 
ATOM      8  C   UNL     1       1.465   3.834  21.106  0.00  0.00    +0.000 C 
ATOM      9  C   UNL     1       2.829   5.061  19.364  0.00  0.00    +0.000 A 
ATOM     10  O   UNL     1       3.171   5.845  20.248  0.00  0.00    +0.000 OA
ENDBRANCH   1   2
BRANCH   1  16
ATOM     11  C   UNL     1       6.468   5.013  17.389  0.00  0.00    +0.000 A 
ATOM     12  N   UNL     1       7.473   4.469  16.665  0.00  0.00    +0.000 NA
ATOM     13  C   UNL     1       7.388   4.580  15.323  0.00  0.00    +0.000 A 
ATOM     14  C   UNL     1       6.349   5.219  14.670  0.00  0.00    +0.000 A 
ATOM     15  C   UNL     1       5.314   5.742  15.439  0.00  0.00    +0.000 A 
ATOM     16  C   UNL     1       5.350   5.629  16.834  0.00  0.00    +0.000 A 
BRANCH  11  18
ATOM     17  C   UNL     1       7.676   5.711  19.250  0.00  0.00    +0.000 C 
ATOM     18  O   UNL     1       6.557   4.972  18.766  0.00  0.00    +0.000 OA
ENDBRANCH  11  18
ENDBRANCH   1  16
TORSDOF 3
ENDMDL
