MODEL 1
REMARK VINA RESULT:      -7.5      0.000      0.000
REMARK  Name = 
REMARK  5 active torsions:
REMARK  status: ('A' for Active; 'I' for Inactive)
REMARK    1  A    between atoms: C_2  and  C_12
REMARK    2  A    between atoms: N_3  and  C_4
REMARK    3  A    between atoms: C_4  and  C_5
REMARK    4  A    between atoms: C_5  and  N_6
REMARK    5  A    between atoms: N_16  and  C_17
REMARK                            x       y       z     vdW  Elec       q    Type
REMARK                         _______ _______ _______ _____ _____    ______ ____
ROOT
ATOM      1  C   UNL     1       5.662   6.161  17.806  0.00  0.00    +0.000 A 
ATOM      2  C   UNL     1       7.003   6.469  17.926  0.00  0.00    +0.000 A 
ATOM      3  C   UNL     1       7.519   5.515  18.813  0.00  0.00    +0.000 A 
ATOM      4  N   UNL     1       6.592   4.653  19.230  0.00  0.00    +0.000 NA
ATOM      5  N   UNL     1       5.481   4.979  18.523  0.00  0.00    +0.000 N 
ENDROOT
BRANCH   5   6
ATOM      6  C   UNL     1       4.442   4.061  18.439  0.00  0.00    +0.000 A 
ATOM      7  C   UNL     1       4.333   3.085  17.459  0.00  0.00    +0.000 A 
ATOM      8  C   UNL     1       3.097   2.436  17.622  0.00  0.00    +0.000 A 
ATOM      9  C   UNL     1       2.455   3.058  18.665  0.00  0.00    +0.000 A 
ATOM     10  C   UNL     1       1.128   2.950  19.167  0.00  0.00    +0.000 A 
ATOM     11  C   UNL     1       0.748   3.713  20.206  0.00  0.00    +0.000 A 
ATOM     12  C   UNL     1       1.695   4.576  20.890  0.00  0.00    +0.000 A 
ATOM     13  C   UNL     1       2.942   4.704  20.401  0.00  0.00    +0.000 A 
ATOM     14  N   UNL     1       3.322   3.987  19.257  0.00  0.00    +0.000 N 
ENDBRANCH   5   6
BRANCH   1  16
ATOM     15  O   UNL     1       4.580   7.052  15.912  0.00  0.00    +0.000 OA
ATOM     16  C   UNL     1       4.619   6.872  17.124  0.00  0.00    +0.000 C 
ATOM     17  N   UNL     1       3.633   7.357  17.960  0.00  0.00    +0.000 N 
ATOM     18  H   UNL     1       3.734   7.241  18.959  0.00  0.00    +0.000 HD
BRANCH  17  19
ATOM     19  C   UNL     1       2.578   8.193  17.435  0.00  0.00    +0.000 C 
BRANCH  19  20
ATOM     20  C   UNL     1       1.810   8.941  18.538  0.00  0.00    +0.000 C 
BRANCH  20  21
ATOM     21  N   UNL     1       1.088  10.134  18.065  0.00  0.00    +0.000 NA
ATOM     22  C   UNL     1       1.596  11.367  18.711  0.00  0.00    +0.000 C 
ATOM     23  C   UNL     1       1.178  11.521  20.187  0.00  0.00    +0.000 C 
ATOM     24  O   UNL     1      -0.239  11.403  20.361  0.00  0.00    +0.000 OA
ATOM     25  C   UNL     1      -0.731  10.178  19.805  0.00  0.00    +0.000 C 
ATOM     26  C   UNL     1      -0.371  10.074  18.316  0.00  0.00    +0.000 C 
ENDBRANCH  20  21
ENDBRANCH  19  20
ENDBRANCH  17  19
ENDBRANCH   1  16
TORSDOF 5
ENDMDL
MODEL 2
REMARK VINA RESULT:      -7.5      3.855      5.451
REMARK  Name = 
REMARK  5 active torsions:
REMARK  status: ('A' for Active; 'I' for Inactive)
REMARK    1  A    between atoms: C_2  and  C_12
REMARK    2  A    between atoms: N_3  and  C_4
REMARK    3  A    between atoms: C_4  and  C_5
REMARK    4  A    between atoms: C_5  and  N_6
REMARK    5  A    between atoms: N_16  and  C_17
REMARK                            x       y       z     vdW  Elec       q    Type
REMARK                         _______ _______ _______ _____ _____    ______ ____
ROOT
ATOM      1  C   UNL     1       6.661   5.690  16.753  0.00  0.00    +0.000 A 
ATOM      2  C   UNL     1       7.174   5.160  15.586  0.00  0.00    +0.000 A 
ATOM      3  C   UNL     1       6.127   4.409  15.034  0.00  0.00    +0.000 A 
ATOM      4  N   UNL     1       5.022   4.453  15.779  0.00  0.00    +0.000 NA
ATOM      5  N   UNL     1       5.314   5.332  16.771  0.00  0.00    +0.000 N 
ENDROOT
BRANCH   5   6
ATOM      6  C   UNL     1       4.275   5.887  17.507  0.00  0.00    +0.000 A 
ATOM      7  C   UNL     1       3.834   7.196  17.379  0.00  0.00    +0.000 A 
ATOM      8  C   UNL     1       2.864   7.431  18.369  0.00  0.00    +0.000 A 
ATOM      9  C   UNL     1       2.765   6.279  19.110  0.00  0.00    +0.000 A 
ATOM     10  C   UNL     1       2.085   5.983  20.324  0.00  0.00    +0.000 A 
ATOM     11  C   UNL     1       2.182   4.753  20.856  0.00  0.00    +0.000 A 
ATOM     12  C   UNL     1       2.887   3.689  20.163  0.00  0.00    +0.000 A 
ATOM     13  C   UNL     1       3.556   3.971  19.031  0.00  0.00    +0.000 A 
ATOM     14  N   UNL     1       3.545   5.275  18.517  0.00  0.00    +0.000 N 
ENDBRANCH   5   6
BRANCH   1  16
ATOM     15  O   UNL     1       7.537   6.023  18.915  0.00  0.00    +0.000 OA
ATOM     16  C   UNL     1       7.322   6.440  17.783  0.00  0.00    +0.000 C 
ATOM     17  N   UNL     1       7.707   7.708  17.393  0.00  0.00    +0.000 N 
ATOM     18  H   UNL     1       7.455   8.036  16.471  0.00  0.00    +0.000 HD
BRANCH  17  19
ATOM     19  C   UNL     1       8.279   8.623  18.353  0.00  0.00    +0.000 C 
BRANCH  19  20
ATOM     20  C   UNL     1       8.303  10.075  17.845  0.00  0.00    +0.000 C 
BRANCH  20  21
ATOM     21  N   UNL     1       9.574  10.777  18.093  0.00  0.00    +0.000 NA
ATOM     22  C   UNL     1       9.959  10.711  19.522  0.00  0.00    +0.000 C 
ATOM     23  C   UNL     1       9.114  11.613  20.444  0.00  0.00    +0.000 C 
ATOM     24  O   UNL     1       9.083  12.972  19.988  0.00  0.00    +0.000 OA
ATOM     25  C   UNL     1       8.639  13.054  18.628  0.00  0.00    +0.000 C 
ATOM     26  C   UNL     1       9.537  12.209  17.712  0.00  0.00    +0.000 C 
ENDBRANCH  20  21
ENDBRANCH  19  20
ENDBRANCH  17  19
ENDBRANCH   1  16
TORSDOF 5
ENDMDL
MODEL 3
REMARK VINA RESULT:      -7.5      3.949      5.832
REMARK  Name = 
REMARK  5 active torsions:
REMARK  status: ('A' for Active; 'I' for Inactive)
REMARK    1  A    between atoms: C_2  and  C_12
REMARK    2  A    between atoms: N_3  and  C_4
REMARK    3  A    between atoms: C_4  and  C_5
REMARK    4  A    between atoms: C_5  and  N_6
REMARK    5  A    between atoms: N_16  and  C_17
REMARK                            x       y       z     vdW  Elec       q    Type
REMARK                         _______ _______ _______ _____ _____    ______ ____
ROOT
ATOM      1  C   UNL     1       6.719   5.749  16.719  0.00  0.00    +0.000 A 
ATOM      2  C   UNL     1       7.254   5.235  15.554  0.00  0.00    +0.000 A 
ATOM      3  C   UNL     1       6.222   4.479  14.981  0.00  0.00    +0.000 A 
ATOM      4  N   UNL     1       5.106   4.505  15.710  0.00  0.00    +0.000 NA
ATOM      5  N   UNL     1       5.376   5.377  16.714  0.00  0.00    +0.000 N 
ENDROOT
BRANCH   5   6
ATOM      6  C   UNL     1       4.321   5.916  17.440  0.00  0.00    +0.000 A 
ATOM      7  C   UNL     1       3.855   7.215  17.301  0.00  0.00    +0.000 A 
ATOM      8  C   UNL     1       2.874   7.436  18.284  0.00  0.00    +0.000 A 
ATOM      9  C   UNL     1       2.793   6.287  19.032  0.00  0.00    +0.000 A 
ATOM     10  C   UNL     1       2.112   5.985  20.244  0.00  0.00    +0.000 A 
ATOM     11  C   UNL     1       2.231   4.760  20.785  0.00  0.00    +0.000 A 
ATOM     12  C   UNL     1       2.962   3.707  20.103  0.00  0.00    +0.000 A 
ATOM     13  C   UNL     1       3.632   3.995  18.972  0.00  0.00    +0.000 A 
ATOM     14  N   UNL     1       3.597   5.296  18.450  0.00  0.00    +0.000 N 
ENDBRANCH   5   6
BRANCH   1  16
ATOM     15  O   UNL     1       7.597   6.056  18.884  0.00  0.00    +0.000 OA
ATOM     16  C   UNL     1       7.358   6.495  17.765  0.00  0.00    +0.000 C 
ATOM     17  N   UNL     1       7.692   7.787  17.407  0.00  0.00    +0.000 N 
ATOM     18  H   UNL     1       7.422   8.130  16.496  0.00  0.00    +0.000 HD
BRANCH  17  19
ATOM     19  C   UNL     1       8.236   8.697  18.389  0.00  0.00    +0.000 C 
BRANCH  19  20
ATOM     20  C   UNL     1       8.756  10.002  17.762  0.00  0.00    +0.000 C 
BRANCH  20  21
ATOM     21  N   UNL     1       8.743  11.155  18.677  0.00  0.00    +0.000 NA
ATOM     22  C   UNL     1       8.869  12.434  17.939  0.00  0.00    +0.000 C 
ATOM     23  C   UNL     1      10.283  12.705  17.386  0.00  0.00    +0.000 C 
ATOM     24  O   UNL     1      11.288  12.604  18.404  0.00  0.00    +0.000 OA
ATOM     25  C   UNL     1      11.223  11.340  19.075  0.00  0.00    +0.000 C 
ATOM     26  C   UNL     1       9.830  11.119  19.684  0.00  0.00    +0.000 C 
ENDBRANCH  20  21
ENDBRANCH  19  20
ENDBRANCH  17  19
ENDBRANCH   1  16
TORSDOF 5
ENDMDL
MODEL 4
REMARK VINA RESULT:      -7.3      1.073      1.299
REMARK  Name = 
REMARK  5 active torsions:
REMARK  status: ('A' for Active; 'I' for Inactive)
REMARK    1  A    between atoms: C_2  and  C_12
REMARK    2  A    between atoms: N_3  and  C_4
REMARK    3  A    between atoms: C_4  and  C_5
REMARK    4  A    between atoms: C_5  and  N_6
REMARK    5  A    between atoms: N_16  and  C_17
REMARK                            x       y       z     vdW  Elec       q    Type
REMARK                         _______ _______ _______ _____ _____    ______ ____
ROOT
ATOM      1  C   UNL     1       5.470   6.128  17.847  0.00  0.00    +0.000 A 
ATOM      2  C   UNL     1       6.815   6.426  17.931  0.00  0.00    +0.000 A 
ATOM      3  C   UNL     1       7.368   5.405  18.717  0.00  0.00    +0.000 A 
ATOM      4  N   UNL     1       6.457   4.513  19.106  0.00  0.00    +0.000 NA
ATOM      5  N   UNL     1       5.317   4.894  18.476  0.00  0.00    +0.000 N 
ENDROOT
BRANCH   5   6
ATOM      6  C   UNL     1       4.271   3.985  18.367  0.00  0.00    +0.000 A 
ATOM      7  C   UNL     1       4.123   3.080  17.327  0.00  0.00    +0.000 A 
ATOM      8  C   UNL     1       2.891   2.423  17.489  0.00  0.00    +0.000 A 
ATOM      9  C   UNL     1       2.291   2.971  18.596  0.00  0.00    +0.000 A 
ATOM     10  C   UNL     1       0.983   2.829  19.139  0.00  0.00    +0.000 A 
ATOM     11  C   UNL     1       0.644   3.519  20.242  0.00  0.00    +0.000 A 
ATOM     12  C   UNL     1       1.619   4.331  20.948  0.00  0.00    +0.000 A 
ATOM     13  C   UNL     1       2.848   4.491  20.424  0.00  0.00    +0.000 A 
ATOM     14  N   UNL     1       3.183   3.855  19.219  0.00  0.00    +0.000 N 
ENDBRANCH   5   6
BRANCH   1  16
ATOM     15  O   UNL     1       4.290   7.137  16.075  0.00  0.00    +0.000 OA
ATOM     16  C   UNL     1       4.400   6.891  17.270  0.00  0.00    +0.000 C 
ATOM     17  N   UNL     1       3.475   7.343  18.191  0.00  0.00    +0.000 N 
ATOM     18  H   UNL     1       3.636   7.172  19.174  0.00  0.00    +0.000 HD
BRANCH  17  19
ATOM     19  C   UNL     1       2.405   8.222  17.777  0.00  0.00    +0.000 C 
BRANCH  19  20
ATOM     20  C   UNL     1       2.008   9.227  18.872  0.00  0.00    +0.000 C 
BRANCH  20  21
ATOM     21  N   UNL     1       0.788   8.860  19.611  0.00  0.00    +0.000 NA
ATOM     22  C   UNL     1      -0.053  10.048  19.892  0.00  0.00    +0.000 C 
ATOM     23  C   UNL     1       0.510  10.971  20.991  0.00  0.00    +0.000 C 
ATOM     24  O   UNL     1       0.799  10.257  22.199  0.00  0.00    +0.000 OA
ATOM     25  C   UNL     1       1.673   9.149  21.951  0.00  0.00    +0.000 C 
ATOM     26  C   UNL     1       1.064   8.199  20.908  0.00  0.00    +0.000 C 
ENDBRANCH  20  21
ENDBRANCH  19  20
ENDBRANCH  17  19
ENDBRANCH   1  16
TORSDOF 5
ENDMDL
MODEL 5
REMARK VINA RESULT:      -7.3      2.121      4.279
REMARK  Name = 
REMARK  5 active torsions:
REMARK  status: ('A' for Active; 'I' for Inactive)
REMARK    1  A    between atoms: C_2  and  C_12
REMARK    2  A    between atoms: N_3  and  C_4
REMARK    3  A    between atoms: C_4  and  C_5
REMARK    4  A    between atoms: C_5  and  N_6
REMARK    5  A    between atoms: N_16  and  C_17
REMARK                            x       y       z     vdW  Elec       q    Type
REMARK                         _______ _______ _______ _____ _____    ______ ____
ROOT
ATOM      1  C   UNL     1       2.878   4.893  19.771  0.00  0.00    +0.000 A 
ATOM      2  C   UNL     1       2.219   4.153  20.733  0.00  0.00    +0.000 A 
ATOM      3  C   UNL     1       2.957   2.967  20.849  0.00  0.00    +0.000 A 
ATOM      4  N   UNL     1       4.012   2.941  20.034  0.00  0.00    +0.000 NA
ATOM      5  N   UNL     1       4.028   4.170  19.459  0.00  0.00    +0.000 N 
ENDROOT
BRANCH   5   6
ATOM      6  C   UNL     1       5.191   4.609  18.840  0.00  0.00    +0.000 A 
ATOM      7  C   UNL     1       6.209   5.300  19.481  0.00  0.00    +0.000 A 
ATOM      8  C   UNL     1       7.153   5.687  18.514  0.00  0.00    +0.000 A 
ATOM      9  C   UNL     1       6.672   5.267  17.298  0.00  0.00    +0.000 A 
ATOM     10  C   UNL     1       7.103   5.519  15.965  0.00  0.00    +0.000 A 
ATOM     11  C   UNL     1       6.416   4.993  14.936  0.00  0.00    +0.000 A 
ATOM     12  C   UNL     1       5.300   4.092  15.161  0.00  0.00    +0.000 A 
ATOM     13  C   UNL     1       4.871   3.874  16.417  0.00  0.00    +0.000 A 
ATOM     14  N   UNL     1       5.518   4.496  17.495  0.00  0.00    +0.000 N 
ENDBRANCH   5   6
BRANCH   1  16
ATOM     15  O   UNL     1       2.461   6.332  17.952  0.00  0.00    +0.000 OA
ATOM     16  C   UNL     1       2.503   6.137  19.161  0.00  0.00    +0.000 C 
ATOM     17  N   UNL     1       2.185   7.131  20.066  0.00  0.00    +0.000 N 
ATOM     18  H   UNL     1       2.292   6.948  21.054  0.00  0.00    +0.000 HD
BRANCH  17  19
ATOM     19  C   UNL     1       1.901   8.471  19.607  0.00  0.00    +0.000 C 
BRANCH  19  20
ATOM     20  C   UNL     1       0.753   9.134  20.388  0.00  0.00    +0.000 C 
BRANCH  20  21
ATOM     21  N   UNL     1       1.199  10.059  21.442  0.00  0.00    +0.000 NA
ATOM     22  C   UNL     1       0.958   9.500  22.793  0.00  0.00    +0.000 C 
ATOM     23  C   UNL     1      -0.525   9.500  23.218  0.00  0.00    +0.000 C 
ATOM     24  O   UNL     1      -1.121  10.797  23.091  0.00  0.00    +0.000 OA
ATOM     25  C   UNL     1      -0.958  11.317  21.766  0.00  0.00    +0.000 C 
ATOM     26  C   UNL     1       0.529  11.380  21.386  0.00  0.00    +0.000 C 
ENDBRANCH  20  21
ENDBRANCH  19  20
ENDBRANCH  17  19
ENDBRANCH   1  16
TORSDOF 5
ENDMDL
MODEL 6
REMARK VINA RESULT:      -7.3      2.202      4.284
REMARK  Name = 
REMARK  5 active torsions:
REMARK  status: ('A' for Active; 'I' for Inactive)
REMARK    1  A    between atoms: C_2  and  C_12
REMARK    2  A    between atoms: N_3  and  C_4
REMARK    3  A    between atoms: C_4  and  C_5
REMARK    4  A    between atoms: C_5  and  N_6
REMARK    5  A    between atoms: N_16  and  C_17
REMARK                            x       y       z     vdW  Elec       q    Type
REMARK                         _______ _______ _______ _____ _____    ______ ____
ROOT
ATOM      1  C   UNL     1       3.272   4.049  19.864  0.00  0.00    +0.000 A 
ATOM      2  C   UNL     1       2.883   3.097  20.786  0.00  0.00    +0.000 A 
ATOM      3  C   UNL     1       3.874   2.107  20.730  0.00  0.00    +0.000 A 
ATOM      4  N   UNL     1       4.831   2.395  19.848  0.00  0.00    +0.000 NA
ATOM      5  N   UNL     1       4.522   3.639  19.403  0.00  0.00    +0.000 N 
ENDROOT
BRANCH   5   6
ATOM      6  C   UNL     1       5.499   4.386  18.757  0.00  0.00    +0.000 A 
ATOM      7  C   UNL     1       6.299   5.335  19.375  0.00  0.00    +0.000 A 
ATOM      8  C   UNL     1       7.071   5.970  18.386  0.00  0.00    +0.000 A 
ATOM      9  C   UNL     1       6.695   5.430  17.180  0.00  0.00    +0.000 A 
ATOM     10  C   UNL     1       7.002   5.789  15.839  0.00  0.00    +0.000 A 
ATOM     11  C   UNL     1       6.463   5.090  14.825  0.00  0.00    +0.000 A 
ATOM     12  C   UNL     1       5.651   3.913  15.074  0.00  0.00    +0.000 A 
ATOM     13  C   UNL     1       5.334   3.586  16.339  0.00  0.00    +0.000 A 
ATOM     14  N   UNL     1       5.809   4.366  17.403  0.00  0.00    +0.000 N 
ENDBRANCH   5   6
BRANCH   1  16
ATOM     15  O   UNL     1       2.002   5.314  18.335  0.00  0.00    +0.000 OA
ATOM     16  C   UNL     1       2.577   5.221  19.413  0.00  0.00    +0.000 C 
ATOM     17  N   UNL     1       2.607   6.269  20.311  0.00  0.00    +0.000 N 
ATOM     18  H   UNL     1       3.144   6.174  21.161  0.00  0.00    +0.000 HD
BRANCH  17  19
ATOM     19  C   UNL     1       2.051   7.554  19.950  0.00  0.00    +0.000 C 
BRANCH  19  20
ATOM     20  C   UNL     1       1.425   8.286  21.149  0.00  0.00    +0.000 C 
BRANCH  20  21
ATOM     21  N   UNL     1       0.117   8.897  20.863  0.00  0.00    +0.000 NA
ATOM     22  C   UNL     1       0.266  10.268  20.319  0.00  0.00    +0.000 C 
ATOM     23  C   UNL     1       0.690  11.317  21.367  0.00  0.00    +0.000 C 
ATOM     24  O   UNL     1      -0.173  11.315  22.511  0.00  0.00    +0.000 OA
ATOM     25  C   UNL     1      -0.266  10.008  23.090  0.00  0.00    +0.000 C 
ATOM     26  C   UNL     1      -0.762   8.989  22.053  0.00  0.00    +0.000 C 
ENDBRANCH  20  21
ENDBRANCH  19  20
ENDBRANCH  17  19
ENDBRANCH   1  16
TORSDOF 5
ENDMDL
MODEL 7
REMARK VINA RESULT:      -7.2      1.677      3.989
REMARK  Name = 
REMARK  5 active torsions:
REMARK  status: ('A' for Active; 'I' for Inactive)
REMARK    1  A    between atoms: C_2  and  C_12
REMARK    2  A    between atoms: N_3  and  C_4
REMARK    3  A    between atoms: C_4  and  C_5
REMARK    4  A    between atoms: C_5  and  N_6
REMARK    5  A    between atoms: N_16  and  C_17
REMARK                            x       y       z     vdW  Elec       q    Type
REMARK                         _______ _______ _______ _____ _____    ______ ____
ROOT
ATOM      1  C   UNL     1       3.008   6.024  19.194  0.00  0.00    +0.000 A 
ATOM      2  C   UNL     1       2.105   5.687  20.182  0.00  0.00    +0.000 A 
ATOM      3  C   UNL     1       2.473   4.397  20.589  0.00  0.00    +0.000 A 
ATOM      4  N   UNL     1       3.533   3.937  19.924  0.00  0.00    +0.000 NA
ATOM      5  N   UNL     1       3.930   4.980  19.152  0.00  0.00    +0.000 N 
ENDROOT
BRANCH   5   6
ATOM      6  C   UNL     1       5.210   4.969  18.612  0.00  0.00    +0.000 A 
ATOM      7  C   UNL     1       6.352   5.370  19.291  0.00  0.00    +0.000 A 
ATOM      8  C   UNL     1       7.430   5.343  18.389  0.00  0.00    +0.000 A 
ATOM      9  C   UNL     1       6.918   4.974  17.168  0.00  0.00    +0.000 A 
ATOM     10  C   UNL     1       7.491   4.942  15.866  0.00  0.00    +0.000 A 
ATOM     11  C   UNL     1       6.739   4.556  14.820  0.00  0.00    +0.000 A 
ATOM     12  C   UNL     1       5.382   4.075  15.009  0.00  0.00    +0.000 A 
ATOM     13  C   UNL     1       4.827   4.130  16.233  0.00  0.00    +0.000 A 
ATOM     14  N   UNL     1       5.568   4.625  17.316  0.00  0.00    +0.000 N 
ENDBRANCH   5   6
BRANCH   1  16
ATOM     15  O   UNL     1       3.873   7.369  17.463  0.00  0.00    +0.000 OA
ATOM     16  C   UNL     1       3.037   7.177  18.339  0.00  0.00    +0.000 C 
ATOM     17  N   UNL     1       2.024   8.082  18.585  0.00  0.00    +0.000 N 
ATOM     18  H   UNL     1       1.393   7.916  19.357  0.00  0.00    +0.000 HD
BRANCH  17  19
ATOM     19  C   UNL     1       1.990   9.346  17.884  0.00  0.00    +0.000 C 
BRANCH  19  20
ATOM     20  C   UNL     1       1.196  10.422  18.644  0.00  0.00    +0.000 C 
BRANCH  20  21
ATOM     21  N   UNL     1      -0.012   9.915  19.315  0.00  0.00    +0.000 NA
ATOM     22  C   UNL     1      -1.246  10.412  18.660  0.00  0.00    +0.000 C 
ATOM     23  C   UNL     1      -1.545  11.901  18.929  0.00  0.00    +0.000 C 
ATOM     24  O   UNL     1      -1.556  12.204  20.329  0.00  0.00    +0.000 OA
ATOM     25  C   UNL     1      -0.336  11.795  20.960  0.00  0.00    +0.000 C 
ATOM     26  C   UNL     1      -0.091  10.294  20.746  0.00  0.00    +0.000 C 
ENDBRANCH  20  21
ENDBRANCH  19  20
ENDBRANCH  17  19
ENDBRANCH   1  16
TORSDOF 5
ENDMDL
MODEL 8
REMARK VINA RESULT:      -7.2      2.004      4.197
REMARK  Name = 
REMARK  5 active torsions:
REMARK  status: ('A' for Active; 'I' for Inactive)
REMARK    1  A    between atoms: C_2  and  C_12
REMARK    2  A    between atoms: N_3  and  C_4
REMARK    3  A    between atoms: C_4  and  C_5
REMARK    4  A    between atoms: C_5  and  N_6
REMARK    5  A    between atoms: N_16  and  C_17
REMARK                            x       y       z     vdW  Elec       q    Type
REMARK                         _______ _______ _______ _____ _____    ______ ____
ROOT
ATOM      1  C   UNL     1       2.850   5.505  19.498  0.00  0.00    +0.000 A 
ATOM      2  C   UNL     1       2.052   4.881  20.436  0.00  0.00    +0.000 A 
ATOM      3  C   UNL     1       2.609   3.605  20.600  0.00  0.00    +0.000 A 
ATOM      4  N   UNL     1       3.685   3.418  19.835  0.00  0.00    +0.000 NA
ATOM      5  N   UNL     1       3.900   4.622  19.249  0.00  0.00    +0.000 N 
ENDROOT
BRANCH   5   6
ATOM      6  C   UNL     1       5.140   4.883  18.680  0.00  0.00    +0.000 A 
ATOM      7  C   UNL     1       6.201   5.478  19.348  0.00  0.00    +0.000 A 
ATOM      8  C   UNL     1       7.236   5.695  18.422  0.00  0.00    +0.000 A 
ATOM      9  C   UNL     1       6.771   5.273  17.199  0.00  0.00    +0.000 A 
ATOM     10  C   UNL     1       7.300   5.400  15.885  0.00  0.00    +0.000 A 
ATOM     11  C   UNL     1       6.608   4.908  14.842  0.00  0.00    +0.000 A 
ATOM     12  C   UNL     1       5.378   4.163  15.041  0.00  0.00    +0.000 A 
ATOM     13  C   UNL     1       4.860   4.065  16.279  0.00  0.00    +0.000 A 
ATOM     14  N   UNL     1       5.521   4.660  17.363  0.00  0.00    +0.000 N 
ENDBRANCH   5   6
BRANCH   1  16
ATOM     15  O   UNL     1       3.252   7.118  17.828  0.00  0.00    +0.000 OA
ATOM     16  C   UNL     1       2.683   6.779  18.859  0.00  0.00    +0.000 C 
ATOM     17  N   UNL     1       1.806   7.623  19.513  0.00  0.00    +0.000 N 
ATOM     18  H   UNL     1       1.406   7.329  20.393  0.00  0.00    +0.000 HD
BRANCH  17  19
ATOM     19  C   UNL     1       1.623   8.981  19.055  0.00  0.00    +0.000 C 
BRANCH  19  20
ATOM     20  C   UNL     1       1.172   9.929  20.179  0.00  0.00    +0.000 C 
BRANCH  20  21
ATOM     21  N   UNL     1      -0.235   9.762  20.577  0.00  0.00    +0.000 NA
ATOM     22  C   UNL     1      -0.876  11.068  20.863  0.00  0.00    +0.000 C 
ATOM     23  C   UNL     1      -0.426  11.712  22.190  0.00  0.00    +0.000 C 
ATOM     24  O   UNL     1      -0.575  10.819  23.300  0.00  0.00    +0.000 OA
ATOM     25  C   UNL     1       0.104   9.579  23.065  0.00  0.00    +0.000 C 
ATOM     26  C   UNL     1      -0.409   8.914  21.779  0.00  0.00    +0.000 C 
ENDBRANCH  20  21
ENDBRANCH  19  20
ENDBRANCH  17  19
ENDBRANCH   1  16
TORSDOF 5
ENDMDL
MODEL 9
REMARK VINA RESULT:      -7.2      1.935      4.038
REMARK  Name = 
REMARK  5 active torsions:
REMARK  status: ('A' for Active; 'I' for Inactive)
REMARK    1  A    between atoms: C_2  and  C_12
REMARK    2  A    between atoms: N_3  and  C_4
REMARK    3  A    between atoms: C_4  and  C_5
REMARK    4  A    between atoms: C_5  and  N_6
REMARK    5  A    between atoms: N_16  and  C_17
REMARK                            x       y       z     vdW  Elec       q    Type
REMARK                         _______ _______ _______ _____ _____    ______ ____
ROOT
ATOM      1  C   UNL     1       2.428   4.768  20.221  0.00  0.00    +0.000 A 
ATOM      2  C   UNL     1       2.074   4.140  21.398  0.00  0.00    +0.000 A 
ATOM      3  C   UNL     1       2.441   2.799  21.221  0.00  0.00    +0.000 A 
ATOM      4  N   UNL     1       2.994   2.576  20.029  0.00  0.00    +0.000 NA
ATOM      5  N   UNL     1       3.091   3.805  19.463  0.00  0.00    +0.000 N 
ENDROOT
BRANCH   5   6
ATOM      6  C   UNL     1       3.947   3.984  18.384  0.00  0.00    +0.000 A 
ATOM      7  C   UNL     1       3.703   3.514  17.101  0.00  0.00    +0.000 A 
ATOM      8  C   UNL     1       4.840   3.771  16.316  0.00  0.00    +0.000 A 
ATOM      9  C   UNL     1       5.773   4.348  17.143  0.00  0.00    +0.000 A 
ATOM     10  C   UNL     1       7.147   4.664  16.954  0.00  0.00    +0.000 A 
ATOM     11  C   UNL     1       7.846   5.212  17.963  0.00  0.00    +0.000 A 
ATOM     12  C   UNL     1       7.200   5.580  19.211  0.00  0.00    +0.000 A 
ATOM     13  C   UNL     1       5.909   5.257  19.404  0.00  0.00    +0.000 A 
ATOM     14  N   UNL     1       5.194   4.595  18.396  0.00  0.00    +0.000 N 
ENDBRANCH   5   6
BRANCH   1  16
ATOM     15  O   UNL     1       2.262   6.503  18.635  0.00  0.00    +0.000 OA
ATOM     16  C   UNL     1       2.178   6.116  19.794  0.00  0.00    +0.000 C 
ATOM     17  N   UNL     1       1.827   6.972  20.820  0.00  0.00    +0.000 N 
ATOM     18  H   UNL     1       1.830   6.627  21.770  0.00  0.00    +0.000 HD
BRANCH  17  19
ATOM     19  C   UNL     1       1.658   8.384  20.565  0.00  0.00    +0.000 C 
BRANCH  19  20
ATOM     20  C   UNL     1       0.987   9.121  21.737  0.00  0.00    +0.000 C 
BRANCH  20  21
ATOM     21  N   UNL     1      -0.392   9.557  21.461  0.00  0.00    +0.000 NA
ATOM     22  C   UNL     1      -0.558   9.966  20.046  0.00  0.00    +0.000 C 
ATOM     23  C   UNL     1       0.094  11.321  19.703  0.00  0.00    +0.000 C 
ATOM     24  O   UNL     1      -0.335  12.364  20.588  0.00  0.00    +0.000 OA
ATOM     25  C   UNL     1      -0.110  12.009  21.958  0.00  0.00    +0.000 C 
ATOM     26  C   UNL     1      -0.828  10.696  22.303  0.00  0.00    +0.000 C 
ENDBRANCH  20  21
ENDBRANCH  19  20
ENDBRANCH  17  19
ENDBRANCH   1  16
TORSDOF 5
ENDMDL
