MODEL 1
REMARK VINA RESULT:      -8.1      0.000      0.000
REMARK  Name = 
REMARK  7 active torsions:
REMARK  status: ('A' for Active; 'I' for Inactive)
REMARK    1  A    between atoms: C_1  and  C_2
REMARK    2  A    between atoms: C_2  and  C_3
REMARK    3  A    between atoms: C_2  and  N_4
REMARK    4  A    between atoms: N_4  and  C_5
REMARK    5  A    between atoms: C_7  and  C_8
REMARK    6  A    between atoms: C_17  and  C_18
REMARK    7  A    between atoms: C_18  and  C_19
REMARK                            x       y       z     vdW  Elec       q    Type
REMARK                         _______ _______ _______ _____ _____    ______ ____
ROOT
ATOM      1  C   UNL     1       2.263   6.385  20.112  0.00  0.00    +0.000 A 
ATOM      2  N   UNL     1       1.580   7.268  20.850  0.00  0.00    +0.000 NA
ATOM      3  C   UNL     1       1.263   8.457  20.319  0.00  0.00    +0.000 A 
ATOM      4  N   UNL     1       1.592   8.824  19.077  0.00  0.00    +0.000 NA
ATOM      5  C   UNL     1       2.301   7.945  18.356  0.00  0.00    +0.000 A 
ATOM      6  N   UNL     1       2.729   8.445  17.125  0.00  0.00    +0.000 N 
ATOM      7  C   UNL     1       2.675   6.683  18.813  0.00  0.00    +0.000 A 
ATOM      8  H   UNL     1       2.308   9.364  17.024  0.00  0.00    +0.000 HD
ATOM      9  H   UNL     1       2.486   7.828  16.358  0.00  0.00    +0.000 HD
ENDROOT
BRANCH   3  10
ATOM     10  C   UNL     1       0.546   9.400  21.214  0.00  0.00    +0.000 A 
ATOM     11  C   UNL     1      -0.050   8.955  22.401  0.00  0.00    +0.000 A 
ATOM     12  C   UNL     1      -0.735   9.857  23.217  0.00  0.00    +0.000 A 
ATOM     13  C   UNL     1      -0.809  11.185  22.826  0.00  0.00    +0.000 A 
ATOM     14  C   UNL     1      -0.200  11.557  21.639  0.00  0.00    +0.000 A 
ATOM     15  N   UNL     1       0.474  10.706  20.834  0.00  0.00    +0.000 NA
ENDBRANCH   3  10
BRANCH   1  16
ATOM     16  N   UNL     1       2.567   5.162  20.735  0.00  0.00    +0.000 N 
ATOM     17  H   UNL     1       3.416   4.772  20.325  0.00  0.00    +0.000 HD
BRANCH  16  19
ATOM     18  C   UNL     1       1.025   3.643  19.450  0.00  0.00    +0.000 C 
ATOM     19  C   UNL     1       1.450   4.202  20.813  0.00  0.00    +0.000 C 
ATOM     20  C   UNL     1       1.853   3.051  21.732  0.00  0.00    +0.000 C 
ENDBRANCH  16  19
ENDBRANCH   1  16
BRANCH   7  21
ATOM     21  C   UNL     1       3.630   5.817  18.020  0.00  0.00    +0.000 C 
BRANCH  21  22
ATOM     22  C   UNL     1       5.131   5.983  18.216  0.00  0.00    +0.000 A 
ATOM     23  C   UNL     1       5.858   5.377  19.251  0.00  0.00    +0.000 A 
ATOM     24  C   UNL     1       7.241   5.575  19.359  0.00  0.00    +0.000 A 
ATOM     25  C   UNL     1       7.918   6.390  18.453  0.00  0.00    +0.000 A 
ATOM     26  C   UNL     1       7.208   7.028  17.440  0.00  0.00    +0.000 A 
ATOM     27  C   UNL     1       5.829   6.830  17.330  0.00  0.00    +0.000 A 
ENDBRANCH  21  22
ENDBRANCH   7  21
TORSDOF 5
ENDMDL
MODEL 2
REMARK VINA RESULT:      -8.0      0.594      1.384
REMARK  Name = 
REMARK  7 active torsions:
REMARK  status: ('A' for Active; 'I' for Inactive)
REMARK    1  A    between atoms: C_1  and  C_2
REMARK    2  A    between atoms: C_2  and  C_3
REMARK    3  A    between atoms: C_2  and  N_4
REMARK    4  A    between atoms: N_4  and  C_5
REMARK    5  A    between atoms: C_7  and  C_8
REMARK    6  A    between atoms: C_17  and  C_18
REMARK    7  A    between atoms: C_18  and  C_19
REMARK                            x       y       z     vdW  Elec       q    Type
REMARK                         _______ _______ _______ _____ _____    ______ ____
ROOT
ATOM      1  C   UNL     1       2.279   6.259  20.127  0.00  0.00    +0.000 A 
ATOM      2  N   UNL     1       1.574   7.135  20.853  0.00  0.00    +0.000 NA
ATOM      3  C   UNL     1       1.273   8.329  20.325  0.00  0.00    +0.000 A 
ATOM      4  N   UNL     1       1.641   8.710  19.098  0.00  0.00    +0.000 NA
ATOM      5  C   UNL     1       2.371   7.838  18.390  0.00  0.00    +0.000 A 
ATOM      6  N   UNL     1       2.837   8.351  17.178  0.00  0.00    +0.000 N 
ATOM      7  C   UNL     1       2.731   6.572  18.844  0.00  0.00    +0.000 A 
ATOM      8  H   UNL     1       2.419   9.272  17.074  0.00  0.00    +0.000 HD
ATOM      9  H   UNL     1       2.617   7.743  16.397  0.00  0.00    +0.000 HD
ENDROOT
BRANCH   3  10
ATOM     10  C   UNL     1       0.529   9.263  21.208  0.00  0.00    +0.000 A 
ATOM     11  C   UNL     1       0.114  10.517  20.743  0.00  0.00    +0.000 A 
ATOM     12  C   UNL     1      -0.568  11.385  21.598  0.00  0.00    +0.000 A 
ATOM     13  C   UNL     1      -0.817  10.979  22.899  0.00  0.00    +0.000 A 
ATOM     14  C   UNL     1      -0.376   9.727  23.294  0.00  0.00    +0.000 A 
ATOM     15  N   UNL     1       0.280   8.865  22.486  0.00  0.00    +0.000 NA
ENDBRANCH   3  10
BRANCH   1  16
ATOM     16  N   UNL     1       2.564   5.029  20.745  0.00  0.00    +0.000 N 
ATOM     17  H   UNL     1       3.407   4.628  20.335  0.00  0.00    +0.000 HD
BRANCH  16  19
ATOM     18  C   UNL     1       0.990   3.551  19.452  0.00  0.00    +0.000 C 
ATOM     19  C   UNL     1       1.433   4.086  20.818  0.00  0.00    +0.000 C 
ATOM     20  C   UNL     1       1.824   2.917  21.720  0.00  0.00    +0.000 C 
ENDBRANCH  16  19
ENDBRANCH   1  16
BRANCH   7  21
ATOM     21  C   UNL     1       3.710   5.714  18.072  0.00  0.00    +0.000 C 
BRANCH  21  22
ATOM     22  C   UNL     1       5.204   5.983  18.198  0.00  0.00    +0.000 A 
ATOM     23  C   UNL     1       5.936   6.770  17.298  0.00  0.00    +0.000 A 
ATOM     24  C   UNL     1       7.310   6.975  17.488  0.00  0.00    +0.000 A 
ATOM     25  C   UNL     1       7.977   6.388  18.562  0.00  0.00    +0.000 A 
ATOM     26  C   UNL     1       7.274   5.575  19.446  0.00  0.00    +0.000 A 
ATOM     27  C   UNL     1       5.904   5.371  19.260  0.00  0.00    +0.000 A 
ENDBRANCH  21  22
ENDBRANCH   7  21
TORSDOF 5
ENDMDL
MODEL 3
REMARK VINA RESULT:      -8.0      3.132      4.271
REMARK  Name = 
REMARK  7 active torsions:
REMARK  status: ('A' for Active; 'I' for Inactive)
REMARK    1  A    between atoms: C_1  and  C_2
REMARK    2  A    between atoms: C_2  and  C_3
REMARK    3  A    between atoms: C_2  and  N_4
REMARK    4  A    between atoms: N_4  and  C_5
REMARK    5  A    between atoms: C_7  and  C_8
REMARK    6  A    between atoms: C_17  and  C_18
REMARK    7  A    between atoms: C_18  and  C_19
REMARK                            x       y       z     vdW  Elec       q    Type
REMARK                         _______ _______ _______ _____ _____    ______ ____
ROOT
ATOM      1  C   UNL     1       3.651   4.818  17.196  0.00  0.00    +0.000 A 
ATOM      2  N   UNL     1       2.844   5.682  17.822  0.00  0.00    +0.000 NA
ATOM      3  C   UNL     1       3.245   6.950  17.987  0.00  0.00    +0.000 A 
ATOM      4  N   UNL     1       4.423   7.415  17.560  0.00  0.00    +0.000 NA
ATOM      5  C   UNL     1       5.236   6.535  16.960  0.00  0.00    +0.000 A 
ATOM      6  N   UNL     1       6.500   7.051  16.666  0.00  0.00    +0.000 N 
ATOM      7  C   UNL     1       4.912   5.200  16.735  0.00  0.00    +0.000 A 
ATOM      8  H   UNL     1       6.472   8.039  16.904  0.00  0.00    +0.000 HD
ATOM      9  H   UNL     1       6.757   6.901  15.697  0.00  0.00    +0.000 HD
ENDROOT
BRANCH   3  10
ATOM     10  C   UNL     1       2.315   7.836  18.731  0.00  0.00    +0.000 A 
ATOM     11  C   UNL     1       1.722   8.943  18.110  0.00  0.00    +0.000 A 
ATOM     12  C   UNL     1       0.866   9.772  18.836  0.00  0.00    +0.000 A 
ATOM     13  C   UNL     1       0.622   9.477  20.168  0.00  0.00    +0.000 A 
ATOM     14  C   UNL     1       1.244   8.370  20.720  0.00  0.00    +0.000 A 
ATOM     15  N   UNL     1       2.072   7.546  20.039  0.00  0.00    +0.000 NA
ENDBRANCH   3  10
BRANCH   1  16
ATOM     16  N   UNL     1       3.169   3.504  17.064  0.00  0.00    +0.000 N 
ATOM     17  H   UNL     1       2.412   3.485  16.381  0.00  0.00    +0.000 HD
BRANCH  16  19
ATOM     18  C   UNL     1       1.343   2.571  18.523  0.00  0.00    +0.000 C 
ATOM     19  C   UNL     1       2.842   2.824  18.331  0.00  0.00    +0.000 C 
ATOM     20  C   UNL     1       3.593   1.496  18.386  0.00  0.00    +0.000 C 
ENDBRANCH  16  19
ENDBRANCH   1  16
BRANCH   7  21
ATOM     21  C   UNL     1       5.945   4.220  16.223  0.00  0.00    +0.000 C 
BRANCH  21  22
ATOM     22  C   UNL     1       6.330   4.239  14.749  0.00  0.00    +0.000 A 
ATOM     23  C   UNL     1       7.390   4.993  14.226  0.00  0.00    +0.000 A 
ATOM     24  C   UNL     1       7.685   4.951  12.856  0.00  0.00    +0.000 A 
ATOM     25  C   UNL     1       6.920   4.176  11.985  0.00  0.00    +0.000 A 
ATOM     26  C   UNL     1       5.841   3.449  12.480  0.00  0.00    +0.000 A 
ATOM     27  C   UNL     1       5.548   3.488  13.846  0.00  0.00    +0.000 A 
ENDBRANCH  21  22
ENDBRANCH   7  21
TORSDOF 5
ENDMDL
MODEL 4
REMARK VINA RESULT:      -7.8      3.113      4.096
REMARK  Name = 
REMARK  7 active torsions:
REMARK  status: ('A' for Active; 'I' for Inactive)
REMARK    1  A    between atoms: C_1  and  C_2
REMARK    2  A    between atoms: C_2  and  C_3
REMARK    3  A    between atoms: C_2  and  N_4
REMARK    4  A    between atoms: N_4  and  C_5
REMARK    5  A    between atoms: C_7  and  C_8
REMARK    6  A    between atoms: C_17  and  C_18
REMARK    7  A    between atoms: C_18  and  C_19
REMARK                            x       y       z     vdW  Elec       q    Type
REMARK                         _______ _______ _______ _____ _____    ______ ____
ROOT
ATOM      1  C   UNL     1       3.561   4.791  17.252  0.00  0.00    +0.000 A 
ATOM      2  N   UNL     1       2.778   5.664  17.896  0.00  0.00    +0.000 NA
ATOM      3  C   UNL     1       3.197   6.927  18.052  0.00  0.00    +0.000 A 
ATOM      4  N   UNL     1       4.371   7.379  17.601  0.00  0.00    +0.000 NA
ATOM      5  C   UNL     1       5.161   6.490  16.984  0.00  0.00    +0.000 A 
ATOM      6  N   UNL     1       6.424   6.992  16.663  0.00  0.00    +0.000 N 
ATOM      7  C   UNL     1       4.816   5.159  16.765  0.00  0.00    +0.000 A 
ATOM      8  H   UNL     1       6.413   7.979  16.902  0.00  0.00    +0.000 HD
ATOM      9  H   UNL     1       6.659   6.839  15.688  0.00  0.00    +0.000 HD
ENDROOT
BRANCH   3  10
ATOM     10  C   UNL     1       2.293   7.824  18.817  0.00  0.00    +0.000 A 
ATOM     11  C   UNL     1       1.966   7.549  20.151  0.00  0.00    +0.000 A 
ATOM     12  C   UNL     1       1.099   8.396  20.844  0.00  0.00    +0.000 A 
ATOM     13  C   UNL     1       0.577   9.499  20.185  0.00  0.00    +0.000 A 
ATOM     14  C   UNL     1       0.939   9.708  18.865  0.00  0.00    +0.000 A 
ATOM     15  N   UNL     1       1.781   8.909  18.173  0.00  0.00    +0.000 NA
ENDBRANCH   3  10
BRANCH   1  16
ATOM     16  N   UNL     1       3.061   3.483  17.129  0.00  0.00    +0.000 N 
ATOM     17  H   UNL     1       2.290   3.474  16.461  0.00  0.00    +0.000 HD
BRANCH  16  19
ATOM     18  C   UNL     1       1.263   2.491  18.584  0.00  0.00    +0.000 C 
ATOM     19  C   UNL     1       2.752   2.806  18.402  0.00  0.00    +0.000 C 
ATOM     20  C   UNL     1       3.559   1.513  18.482  0.00  0.00    +0.000 C 
ENDBRANCH  16  19
ENDBRANCH   1  16
BRANCH   7  21
ATOM     21  C   UNL     1       5.827   4.168  16.229  0.00  0.00    +0.000 C 
BRANCH  21  22
ATOM     22  C   UNL     1       6.161   4.167  14.743  0.00  0.00    +0.000 A 
ATOM     23  C   UNL     1       5.432   3.459  13.777  0.00  0.00    +0.000 A 
ATOM     24  C   UNL     1       5.800   3.516  12.426  0.00  0.00    +0.000 A 
ATOM     25  C   UNL     1       6.907   4.259  12.018  0.00  0.00    +0.000 A 
ATOM     26  C   UNL     1       7.664   4.939  12.968  0.00  0.00    +0.000 A 
ATOM     27  C   UNL     1       7.296   4.887  14.315  0.00  0.00    +0.000 A 
ENDBRANCH  21  22
ENDBRANCH   7  21
TORSDOF 5
ENDMDL
MODEL 5
REMARK VINA RESULT:      -7.6      3.494      7.634
REMARK  Name = 
REMARK  7 active torsions:
REMARK  status: ('A' for Active; 'I' for Inactive)
REMARK    1  A    between atoms: C_1  and  C_2
REMARK    2  A    between atoms: C_2  and  C_3
REMARK    3  A    between atoms: C_2  and  N_4
REMARK    4  A    between atoms: N_4  and  C_5
REMARK    5  A    between atoms: C_7  and  C_8
REMARK    6  A    between atoms: C_17  and  C_18
REMARK    7  A    between atoms: C_18  and  C_19
REMARK                            x       y       z     vdW  Elec       q    Type
REMARK                         _______ _______ _______ _____ _____    ______ ____
ROOT
ATOM      1  C   UNL     1       3.771   4.218  17.169  0.00  0.00    +0.000 A 
ATOM      2  N   UNL     1       4.394   4.137  15.987  0.00  0.00    +0.000 NA
ATOM      3  C   UNL     1       5.659   4.567  15.884  0.00  0.00    +0.000 A 
ATOM      4  N   UNL     1       6.351   5.082  16.904  0.00  0.00    +0.000 NA
ATOM      5  C   UNL     1       5.710   5.186  18.076  0.00  0.00    +0.000 A 
ATOM      6  N   UNL     1       6.442   5.858  19.057  0.00  0.00    +0.000 N 
ATOM      7  C   UNL     1       4.400   4.763  18.289  0.00  0.00    +0.000 A 
ATOM      8  H   UNL     1       7.360   6.037  18.662  0.00  0.00    +0.000 HD
ATOM      9  H   UNL     1       6.496   5.329  19.921  0.00  0.00    +0.000 HD
ENDROOT
BRANCH   3  10
ATOM     10  C   UNL     1       6.265   4.488  14.531  0.00  0.00    +0.000 A 
ATOM     11  C   UNL     1       5.743   3.627  13.557  0.00  0.00    +0.000 A 
ATOM     12  C   UNL     1       6.342   3.556  12.298  0.00  0.00    +0.000 A 
ATOM     13  C   UNL     1       7.451   4.347  12.042  0.00  0.00    +0.000 A 
ATOM     14  C   UNL     1       7.918   5.172  13.052  0.00  0.00    +0.000 A 
ATOM     15  N   UNL     1       7.354   5.265  14.276  0.00  0.00    +0.000 NA
ENDBRANCH   3  10
BRANCH   1  16
ATOM     16  N   UNL     1       2.444   3.755  17.203  0.00  0.00    +0.000 N 
ATOM     17  H   UNL     1       1.862   4.424  17.707  0.00  0.00    +0.000 HD
BRANCH  16  19
ATOM     18  C   UNL     1       3.578   1.713  18.140  0.00  0.00    +0.000 C 
ATOM     19  C   UNL     1       2.276   2.362  17.659  0.00  0.00    +0.000 C 
ATOM     20  C   UNL     1       1.247   2.334  18.785  0.00  0.00    +0.000 C 
ENDBRANCH  16  19
ENDBRANCH   1  16
BRANCH   7  21
ATOM     21  C   UNL     1       3.678   5.079  19.581  0.00  0.00    +0.000 C 
BRANCH  21  22
ATOM     22  C   UNL     1       2.827   6.339  19.675  0.00  0.00    +0.000 A 
ATOM     23  C   UNL     1       2.023   6.660  20.778  0.00  0.00    +0.000 A 
ATOM     24  C   UNL     1       1.274   7.845  20.791  0.00  0.00    +0.000 A 
ATOM     25  C   UNL     1       1.298   8.716  19.703  0.00  0.00    +0.000 A 
ATOM     26  C   UNL     1       2.063   8.397  18.585  0.00  0.00    +0.000 A 
ATOM     27  C   UNL     1       2.812   7.218  18.571  0.00  0.00    +0.000 A 
ENDBRANCH  21  22
ENDBRANCH   7  21
TORSDOF 5
ENDMDL
MODEL 6
REMARK VINA RESULT:      -7.5      3.807      7.626
REMARK  Name = 
REMARK  7 active torsions:
REMARK  status: ('A' for Active; 'I' for Inactive)
REMARK    1  A    between atoms: C_1  and  C_2
REMARK    2  A    between atoms: C_2  and  C_3
REMARK    3  A    between atoms: C_2  and  N_4
REMARK    4  A    between atoms: N_4  and  C_5
REMARK    5  A    between atoms: C_7  and  C_8
REMARK    6  A    between atoms: C_17  and  C_18
REMARK    7  A    between atoms: C_18  and  C_19
REMARK                            x       y       z     vdW  Elec       q    Type
REMARK                         _______ _______ _______ _____ _____    ______ ____
ROOT
ATOM      1  C   UNL     1       5.294   4.448  18.084  0.00  0.00    +0.000 A 
ATOM      2  N   UNL     1       5.832   4.245  16.876  0.00  0.00    +0.000 NA
ATOM      3  C   UNL     1       5.646   5.161  15.915  0.00  0.00    +0.000 A 
ATOM      4  N   UNL     1       4.943   6.284  16.089  0.00  0.00    +0.000 NA
ATOM      5  C   UNL     1       4.384   6.465  17.292  0.00  0.00    +0.000 A 
ATOM      6  N   UNL     1       3.553   7.584  17.362  0.00  0.00    +0.000 N 
ATOM      7  C   UNL     1       4.522   5.578  18.358  0.00  0.00    +0.000 A 
ATOM      8  H   UNL     1       3.643   8.067  16.472  0.00  0.00    +0.000 HD
ATOM      9  H   UNL     1       3.785   8.184  18.146  0.00  0.00    +0.000 HD
ENDROOT
BRANCH   3  10
ATOM     10  C   UNL     1       6.235   4.842  14.589  0.00  0.00    +0.000 A 
ATOM     11  C   UNL     1       5.632   3.906  13.740  0.00  0.00    +0.000 A 
ATOM     12  C   UNL     1       6.214   3.609  12.506  0.00  0.00    +0.000 A 
ATOM     13  C   UNL     1       7.388   4.255  12.151  0.00  0.00    +0.000 A 
ATOM     14  C   UNL     1       7.932   5.166  13.040  0.00  0.00    +0.000 A 
ATOM     15  N   UNL     1       7.387   5.477  14.237  0.00  0.00    +0.000 NA
ENDBRANCH   3  10
BRANCH   1  16
ATOM     16  N   UNL     1       5.523   3.445  19.041  0.00  0.00    +0.000 N 
ATOM     17  H   UNL     1       6.415   2.989  18.851  0.00  0.00    +0.000 HD
BRANCH  16  19
ATOM     18  C   UNL     1       3.991   1.759  17.970  0.00  0.00    +0.000 C 
ATOM     19  C   UNL     1       4.406   2.503  19.244  0.00  0.00    +0.000 C 
ATOM     20  C   UNL     1       4.803   1.492  20.317  0.00  0.00    +0.000 C 
ENDBRANCH  16  19
ENDBRANCH   1  16
BRANCH   7  21
ATOM     21  C   UNL     1       3.714   5.750  19.626  0.00  0.00    +0.000 C 
BRANCH  21  22
ATOM     22  C   UNL     1       2.608   4.754  19.951  0.00  0.00    +0.000 A 
ATOM     23  C   UNL     1       2.412   4.186  21.218  0.00  0.00    +0.000 A 
ATOM     24  C   UNL     1       1.365   3.281  21.437  0.00  0.00    +0.000 A 
ATOM     25  C   UNL     1       0.510   2.914  20.399  0.00  0.00    +0.000 A 
ATOM     26  C   UNL     1       0.710   3.440  19.126  0.00  0.00    +0.000 A 
ATOM     27  C   UNL     1       1.753   4.345  18.906  0.00  0.00    +0.000 A 
ENDBRANCH  21  22
ENDBRANCH   7  21
TORSDOF 5
ENDMDL
MODEL 7
REMARK VINA RESULT:      -7.3      3.999      7.992
REMARK  Name = 
REMARK  7 active torsions:
REMARK  status: ('A' for Active; 'I' for Inactive)
REMARK    1  A    between atoms: C_1  and  C_2
REMARK    2  A    between atoms: C_2  and  C_3
REMARK    3  A    between atoms: C_2  and  N_4
REMARK    4  A    between atoms: N_4  and  C_5
REMARK    5  A    between atoms: C_7  and  C_8
REMARK    6  A    between atoms: C_17  and  C_18
REMARK    7  A    between atoms: C_18  and  C_19
REMARK                            x       y       z     vdW  Elec       q    Type
REMARK                         _______ _______ _______ _____ _____    ______ ____
ROOT
ATOM      1  C   UNL     1       4.513   4.679  17.223  0.00  0.00    +0.000 A 
ATOM      2  N   UNL     1       4.951   4.595  15.961  0.00  0.00    +0.000 NA
ATOM      3  C   UNL     1       6.270   4.603  15.726  0.00  0.00    +0.000 A 
ATOM      4  N   UNL     1       7.194   4.693  16.688  0.00  0.00    +0.000 NA
ATOM      5  C   UNL     1       6.745   4.806  17.945  0.00  0.00    +0.000 A 
ATOM      6  N   UNL     1       7.754   5.036  18.882  0.00  0.00    +0.000 N 
ATOM      7  C   UNL     1       5.397   4.802  18.295  0.00  0.00    +0.000 A 
ATOM      8  H   UNL     1       8.635   4.970  18.380  0.00  0.00    +0.000 HD
ATOM      9  H   UNL     1       7.709   4.385  19.658  0.00  0.00    +0.000 HD
ENDROOT
BRANCH   3  10
ATOM     10  C   UNL     1       6.678   4.553  14.298  0.00  0.00    +0.000 A 
ATOM     11  C   UNL     1       6.088   3.642  13.412  0.00  0.00    +0.000 A 
ATOM     12  C   UNL     1       6.501   3.602  12.080  0.00  0.00    +0.000 A 
ATOM     13  C   UNL     1       7.496   4.472  11.663  0.00  0.00    +0.000 A 
ATOM     14  C   UNL     1       8.038   5.344  12.592  0.00  0.00    +0.000 A 
ATOM     15  N   UNL     1       7.653   5.409  13.886  0.00  0.00    +0.000 NA
ENDBRANCH   3  10
BRANCH   1  16
ATOM     16  N   UNL     1       3.118   4.671  17.396  0.00  0.00    +0.000 N 
ATOM     17  H   UNL     1       2.885   5.054  18.312  0.00  0.00    +0.000 HD
BRANCH  16  19
ATOM     18  C   UNL     1       3.303   2.162  17.471  0.00  0.00    +0.000 C 
ATOM     19  C   UNL     1       2.456   3.386  17.105  0.00  0.00    +0.000 C 
ATOM     20  C   UNL     1       1.130   3.332  17.860  0.00  0.00    +0.000 C 
ENDBRANCH  16  19
ENDBRANCH   1  16
BRANCH   7  21
ATOM     21  C   UNL     1       4.956   5.119  19.708  0.00  0.00    +0.000 C 
BRANCH  21  22
ATOM     22  C   UNL     1       3.823   4.318  20.337  0.00  0.00    +0.000 A 
ATOM     23  C   UNL     1       3.903   2.950  20.633  0.00  0.00    +0.000 A 
ATOM     24  C   UNL     1       2.817   2.285  21.220  0.00  0.00    +0.000 A 
ATOM     25  C   UNL     1       1.633   2.965  21.503  0.00  0.00    +0.000 A 
ATOM     26  C   UNL     1       1.523   4.315  21.184  0.00  0.00    +0.000 A 
ATOM     27  C   UNL     1       2.606   4.980  20.602  0.00  0.00    +0.000 A 
ENDBRANCH  21  22
ENDBRANCH   7  21
TORSDOF 5
ENDMDL
MODEL 8
REMARK VINA RESULT:      -7.3      3.505      7.709
REMARK  Name = 
REMARK  7 active torsions:
REMARK  status: ('A' for Active; 'I' for Inactive)
REMARK    1  A    between atoms: C_1  and  C_2
REMARK    2  A    between atoms: C_2  and  C_3
REMARK    3  A    between atoms: C_2  and  N_4
REMARK    4  A    between atoms: N_4  and  C_5
REMARK    5  A    between atoms: C_7  and  C_8
REMARK    6  A    between atoms: C_17  and  C_18
REMARK    7  A    between atoms: C_18  and  C_19
REMARK                            x       y       z     vdW  Elec       q    Type
REMARK                         _______ _______ _______ _____ _____    ______ ____
ROOT
ATOM      1  C   UNL     1       3.815   4.455  17.091  0.00  0.00    +0.000 A 
ATOM      2  N   UNL     1       4.404   4.230  15.911  0.00  0.00    +0.000 NA
ATOM      3  C   UNL     1       5.594   4.791  15.657  0.00  0.00    +0.000 A 
ATOM      4  N   UNL     1       6.242   5.577  16.522  0.00  0.00    +0.000 NA
ATOM      5  C   UNL     1       5.632   5.819  17.689  0.00  0.00    +0.000 A 
ATOM      6  N   UNL     1       6.296   6.754  18.486  0.00  0.00    +0.000 N 
ATOM      7  C   UNL     1       4.400   5.280  18.052  0.00  0.00    +0.000 A 
ATOM      8  H   UNL     1       7.168   6.971  18.011  0.00  0.00    +0.000 HD
ATOM      9  H   UNL     1       6.450   6.412  19.427  0.00  0.00    +0.000 HD
ENDROOT
BRANCH   3  10
ATOM     10  C   UNL     1       6.161   4.533  14.308  0.00  0.00    +0.000 A 
ATOM     11  C   UNL     1       5.592   3.576  13.459  0.00  0.00    +0.000 A 
ATOM     12  C   UNL     1       6.155   3.338  12.203  0.00  0.00    +0.000 A 
ATOM     13  C   UNL     1       7.275   4.062  11.827  0.00  0.00    +0.000 A 
ATOM     14  C   UNL     1       7.788   4.990  12.717  0.00  0.00    +0.000 A 
ATOM     15  N   UNL     1       7.260   5.245  13.935  0.00  0.00    +0.000 NA
ENDBRANCH   3  10
BRANCH   1  16
ATOM     16  N   UNL     1       2.566   3.840  17.288  0.00  0.00    +0.000 N 
ATOM     17  H   UNL     1       1.835   4.551  17.304  0.00  0.00    +0.000 HD
BRANCH  16  19
ATOM     18  C   UNL     1       1.080   2.419  18.739  0.00  0.00    +0.000 C 
ATOM     19  C   UNL     1       2.501   2.896  18.419  0.00  0.00    +0.000 C 
ATOM     20  C   UNL     1       3.384   1.691  18.105  0.00  0.00    +0.000 C 
ENDBRANCH  16  19
ENDBRANCH   1  16
BRANCH   7  21
ATOM     21  C   UNL     1       3.683   5.742  19.303  0.00  0.00    +0.000 C 
BRANCH  21  22
ATOM     22  C   UNL     1       2.789   6.973  19.244  0.00  0.00    +0.000 A 
ATOM     23  C   UNL     1       2.658   7.792  18.113  0.00  0.00    +0.000 A 
ATOM     24  C   UNL     1       1.808   8.906  18.137  0.00  0.00    +0.000 A 
ATOM     25  C   UNL     1       1.090   9.232  19.287  0.00  0.00    +0.000 A 
ATOM     26  C   UNL     1       1.235   8.452  20.430  0.00  0.00    +0.000 A 
ATOM     27  C   UNL     1       2.080   7.339  20.408  0.00  0.00    +0.000 A 
ENDBRANCH  21  22
ENDBRANCH   7  21
TORSDOF 5
ENDMDL
MODEL 9
REMARK VINA RESULT:      -7.3      3.130      5.357
REMARK  Name = 
REMARK  7 active torsions:
REMARK  status: ('A' for Active; 'I' for Inactive)
REMARK    1  A    between atoms: C_1  and  C_2
REMARK    2  A    between atoms: C_2  and  C_3
REMARK    3  A    between atoms: C_2  and  N_4
REMARK    4  A    between atoms: N_4  and  C_5
REMARK    5  A    between atoms: C_7  and  C_8
REMARK    6  A    between atoms: C_17  and  C_18
REMARK    7  A    between atoms: C_18  and  C_19
REMARK                            x       y       z     vdW  Elec       q    Type
REMARK                         _______ _______ _______ _____ _____    ______ ____
ROOT
ATOM      1  C   UNL     1       5.582   6.271  16.933  0.00  0.00    +0.000 A 
ATOM      2  N   UNL     1       4.689   7.126  17.443  0.00  0.00    +0.000 NA
ATOM      3  C   UNL     1       3.534   6.653  17.930  0.00  0.00    +0.000 A 
ATOM      4  N   UNL     1       3.209   5.356  17.936  0.00  0.00    +0.000 NA
ATOM      5  C   UNL     1       4.097   4.511  17.397  0.00  0.00    +0.000 A 
ATOM      6  N   UNL     1       3.637   3.195  17.310  0.00  0.00    +0.000 N 
ATOM      7  C   UNL     1       5.327   4.900  16.871  0.00  0.00    +0.000 A 
ATOM      8  H   UNL     1       2.735   3.173  17.778  0.00  0.00    +0.000 HD
ATOM      9  H   UNL     1       4.292   2.535  17.713  0.00  0.00    +0.000 HD
ENDROOT
BRANCH   3  10
ATOM     10  C   UNL     1       2.575   7.668  18.436  0.00  0.00    +0.000 A 
ATOM     11  C   UNL     1       2.116   8.700  17.609  0.00  0.00    +0.000 A 
ATOM     12  C   UNL     1       1.229   9.654  18.113  0.00  0.00    +0.000 A 
ATOM     13  C   UNL     1       0.824   9.553  19.435  0.00  0.00    +0.000 A 
ATOM     14  C   UNL     1       1.320   8.510  20.198  0.00  0.00    +0.000 A 
ATOM     15  N   UNL     1       2.173   7.570  19.734  0.00  0.00    +0.000 NA
ENDBRANCH   3  10
BRANCH   1  16
ATOM     16  N   UNL     1       6.769   6.837  16.436  0.00  0.00    +0.000 N 
ATOM     17  H   UNL     1       7.107   6.284  15.648  0.00  0.00    +0.000 HD
BRANCH  16  19
ATOM     18  C   UNL     1       7.855   8.591  17.877  0.00  0.00    +0.000 C 
ATOM     19  C   UNL     1       7.803   7.120  17.449  0.00  0.00    +0.000 C 
ATOM     20  C   UNL     1       7.548   6.242  18.671  0.00  0.00    +0.000 C 
ENDBRANCH  16  19
ENDBRANCH   1  16
BRANCH   7  21
ATOM     21  C   UNL     1       6.197   3.922  16.112  0.00  0.00    +0.000 C 
BRANCH  21  22
ATOM     22  C   UNL     1       6.334   4.058  14.601  0.00  0.00    +0.000 A 
ATOM     23  C   UNL     1       5.466   3.457  13.679  0.00  0.00    +0.000 A 
ATOM     24  C   UNL     1       5.656   3.635  12.302  0.00  0.00    +0.000 A 
ATOM     25  C   UNL     1       6.720   4.398  11.822  0.00  0.00    +0.000 A 
ATOM     26  C   UNL     1       7.614   4.973  12.721  0.00  0.00    +0.000 A 
ATOM     27  C   UNL     1       7.424   4.797  14.094  0.00  0.00    +0.000 A 
ENDBRANCH  21  22
ENDBRANCH   7  21
TORSDOF 5
ENDMDL
