MODEL 1
REMARK VINA RESULT:      -9.1      0.000      0.000
REMARK  Name = 
REMARK  5 active torsions:
REMARK  status: ('A' for Active; 'I' for Inactive)
REMARK    1  A    between atoms: C_1  and  C_2
REMARK    2  A    between atoms: C_2  and  C_3
REMARK    3  A    between atoms: C_9  and  S_10
REMARK    4  A    between atoms: S_10  and  C_11
REMARK    5  A    between atoms: C_11  and  C_12
REMARK                            x       y       z     vdW  Elec       q    Type
REMARK                         _______ _______ _______ _____ _____    ______ ____
ROOT
ATOM      1  C   UNL     1       2.713   6.112  19.445  0.00  0.00    +0.000 C 
ATOM      2  O   UNL     1       3.025   6.624  18.372  0.00  0.00    +0.000 OA
ATOM      3  N   UNL     1       2.092   6.759  20.494  0.00  0.00    +0.000 N 
ATOM      4  C   UNL     1       1.602   8.046  20.487  0.00  0.00    +0.000 A 
ATOM      5  N   UNL     1       1.188   8.651  21.581  0.00  0.00    +0.000 NA
ATOM      6  N   UNL     1       0.747   9.939  21.328  0.00  0.00    +0.000 NA
ATOM      7  C   UNL     1       0.803  10.233  20.046  0.00  0.00    +0.000 A 
ATOM      8  S   UNL     1       1.411   8.968  19.065  0.00  0.00    +0.000 S 
ATOM      9  H   UNL     1       1.998   6.281  21.382  0.00  0.00    +0.000 HD
ENDROOT
BRANCH   1  11
ATOM     10  C   UNL     1       2.512   4.284  21.141  0.00  0.00    +0.000 C 
ATOM     11  C   UNL     1       3.101   4.642  19.770  0.00  0.00    +0.000 C 
ATOM     12  C   UNL     1       4.623   4.452  19.819  0.00  0.00    +0.000 C 
ATOM     13  C   UNL     1       5.188   4.459  18.429  0.00  0.00    +0.000 A 
ATOM     14  C   UNL     1       6.520   4.828  18.197  0.00  0.00    +0.000 A 
ATOM     15  C   UNL     1       7.036   4.814  16.902  0.00  0.00    +0.000 A 
ATOM     16  C   UNL     1       6.235   4.421  15.832  0.00  0.00    +0.000 A 
ATOM     17  C   UNL     1       4.915   4.031  16.057  0.00  0.00    +0.000 A 
ATOM     18  C   UNL     1       4.390   4.048  17.355  0.00  0.00    +0.000 A 
ATOM     19  C   UNL     1       2.995   3.593  17.576  0.00  0.00    +0.000 C 
ATOM     20  O   UNL     1       2.329   3.095  16.681  0.00  0.00    +0.000 OA
ATOM     21  O   UNL     1       2.496   3.732  18.832  0.00  0.00    +0.000 OA
ENDBRANCH   1  11
BRANCH   7  22
ATOM     22  S   UNL     1       0.283  11.771  19.399  0.00  0.00    +0.000 S 
BRANCH  22  23
ATOM     23  C   UNL     1      -1.503  11.683  19.725  0.00  0.00    +0.000 C 
BRANCH  23  24
ATOM     24  C   UNL     1      -2.274  11.273  18.493  0.00  0.00    +0.000 A 
ATOM     25  C   UNL     1      -3.582  11.739  18.285  0.00  0.00    +0.000 A 
ATOM     26  C   UNL     1      -4.304  11.347  17.156  0.00  0.00    +0.000 A 
ATOM     27  C   UNL     1      -3.731  10.483  16.225  0.00  0.00    +0.000 A 
ATOM     28  C   UNL     1      -2.436  10.012  16.421  0.00  0.00    +0.000 A 
ATOM     29  C   UNL     1      -1.711  10.403  17.548  0.00  0.00    +0.000 A 
ENDBRANCH  23  24
ENDBRANCH  22  23
ENDBRANCH   7  22
TORSDOF 4
ENDMDL
MODEL 2
REMARK VINA RESULT:      -8.9      1.991      2.772
REMARK  Name = 
REMARK  5 active torsions:
REMARK  status: ('A' for Active; 'I' for Inactive)
REMARK    1  A    between atoms: C_1  and  C_2
REMARK    2  A    between atoms: C_2  and  C_3
REMARK    3  A    between atoms: C_9  and  S_10
REMARK    4  A    between atoms: S_10  and  C_11
REMARK    5  A    between atoms: C_11  and  C_12
REMARK                            x       y       z     vdW  Elec       q    Type
REMARK                         _______ _______ _______ _____ _____    ______ ____
ROOT
ATOM      1  C   UNL     1       3.189   5.539  18.477  0.00  0.00    +0.000 C 
ATOM      2  O   UNL     1       2.628   5.249  19.531  0.00  0.00    +0.000 OA
ATOM      3  N   UNL     1       3.039   6.724  17.786  0.00  0.00    +0.000 N 
ATOM      4  C   UNL     1       2.340   7.834  18.206  0.00  0.00    +0.000 A 
ATOM      5  N   UNL     1       2.092   8.856  17.414  0.00  0.00    +0.000 NA
ATOM      6  N   UNL     1       1.371   9.848  18.055  0.00  0.00    +0.000 NA
ATOM      7  C   UNL     1       1.145   9.552  19.318  0.00  0.00    +0.000 A 
ATOM      8  S   UNL     1       1.784   8.040  19.805  0.00  0.00    +0.000 S 
ATOM      9  H   UNL     1       3.443   6.810  16.861  0.00  0.00    +0.000 HD
ENDROOT
BRANCH   1  11
ATOM     10  C   UNL     1       3.274   3.213  17.557  0.00  0.00    +0.000 C 
ATOM     11  C   UNL     1       4.084   4.504  17.739  0.00  0.00    +0.000 C 
ATOM     12  C   UNL     1       5.358   4.183  18.532  0.00  0.00    +0.000 C 
ATOM     13  C   UNL     1       6.326   5.325  18.436  0.00  0.00    +0.000 A 
ATOM     14  C   UNL     1       7.285   5.539  19.435  0.00  0.00    +0.000 A 
ATOM     15  C   UNL     1       8.190   6.595  19.325  0.00  0.00    +0.000 A 
ATOM     16  C   UNL     1       8.154   7.436  18.214  0.00  0.00    +0.000 A 
ATOM     17  C   UNL     1       7.217   7.216  17.204  0.00  0.00    +0.000 A 
ATOM     18  C   UNL     1       6.303   6.160  17.313  0.00  0.00    +0.000 A 
ATOM     19  C   UNL     1       5.340   5.922  16.210  0.00  0.00    +0.000 C 
ATOM     20  O   UNL     1       5.395   6.543  15.159  0.00  0.00    +0.000 OA
ATOM     21  O   UNL     1       4.403   4.958  16.409  0.00  0.00    +0.000 OA
ENDBRANCH   1  11
BRANCH   7  22
ATOM     22  S   UNL     1       0.290  10.618  20.407  0.00  0.00    +0.000 S 
BRANCH  22  23
ATOM     23  C   UNL     1      -0.341  11.856  19.236  0.00  0.00    +0.000 C 
BRANCH  23  24
ATOM     24  C   UNL     1      -1.771  11.569  18.842  0.00  0.00    +0.000 A 
ATOM     25  C   UNL     1      -2.055  10.657  17.813  0.00  0.00    +0.000 A 
ATOM     26  C   UNL     1      -3.375  10.403  17.434  0.00  0.00    +0.000 A 
ATOM     27  C   UNL     1      -4.425  11.060  18.072  0.00  0.00    +0.000 A 
ATOM     28  C   UNL     1      -4.156  11.970  19.093  0.00  0.00    +0.000 A 
ATOM     29  C   UNL     1      -2.838  12.225  19.475  0.00  0.00    +0.000 A 
ENDBRANCH  23  24
ENDBRANCH  22  23
ENDBRANCH   7  22
TORSDOF 4
ENDMDL
MODEL 3
REMARK VINA RESULT:      -8.6      1.564      3.416
REMARK  Name = 
REMARK  5 active torsions:
REMARK  status: ('A' for Active; 'I' for Inactive)
REMARK    1  A    between atoms: C_1  and  C_2
REMARK    2  A    between atoms: C_2  and  C_3
REMARK    3  A    between atoms: C_9  and  S_10
REMARK    4  A    between atoms: S_10  and  C_11
REMARK    5  A    between atoms: C_11  and  C_12
REMARK                            x       y       z     vdW  Elec       q    Type
REMARK                         _______ _______ _______ _____ _____    ______ ____
ROOT
ATOM      1  C   UNL     1       3.893   6.057  17.275  0.00  0.00    +0.000 C 
ATOM      2  O   UNL     1       4.271   6.972  16.547  0.00  0.00    +0.000 OA
ATOM      3  N   UNL     1       3.082   6.194  18.383  0.00  0.00    +0.000 N 
ATOM      4  C   UNL     1       2.454   7.346  18.801  0.00  0.00    +0.000 A 
ATOM      5  N   UNL     1       1.847   7.438  19.966  0.00  0.00    +0.000 NA
ATOM      6  N   UNL     1       1.296   8.692  20.167  0.00  0.00    +0.000 NA
ATOM      7  C   UNL     1       1.471   9.478  19.126  0.00  0.00    +0.000 A 
ATOM      8  S   UNL     1       2.331   8.748  17.837  0.00  0.00    +0.000 S 
ATOM      9  H   UNL     1       2.938   5.395  18.990  0.00  0.00    +0.000 HD
ENDROOT
BRANCH   1  11
ATOM     10  C   UNL     1       5.234   4.574  15.771  0.00  0.00    +0.000 C 
ATOM     11  C   UNL     1       4.403   4.604  17.060  0.00  0.00    +0.000 C 
ATOM     12  C   UNL     1       3.244   3.607  16.927  0.00  0.00    +0.000 C 
ATOM     13  C   UNL     1       2.621   3.358  18.269  0.00  0.00    +0.000 A 
ATOM     14  C   UNL     1       1.287   2.944  18.376  0.00  0.00    +0.000 A 
ATOM     15  C   UNL     1       0.726   2.700  19.629  0.00  0.00    +0.000 A 
ATOM     16  C   UNL     1       1.493   2.855  20.782  0.00  0.00    +0.000 A 
ATOM     17  C   UNL     1       2.828   3.246  20.684  0.00  0.00    +0.000 A 
ATOM     18  C   UNL     1       3.394   3.496  19.427  0.00  0.00    +0.000 A 
ATOM     19  C   UNL     1       4.827   3.875  19.343  0.00  0.00    +0.000 C 
ATOM     20  O   UNL     1       5.557   3.860  20.323  0.00  0.00    +0.000 OA
ATOM     21  O   UNL     1       5.302   4.214  18.117  0.00  0.00    +0.000 OA
ENDBRANCH   1  11
BRANCH   7  22
ATOM     22  S   UNL     1       0.861  11.114  19.054  0.00  0.00    +0.000 S 
BRANCH  22  23
ATOM     23  C   UNL     1      -0.836  10.864  19.653  0.00  0.00    +0.000 C 
BRANCH  23  24
ATOM     24  C   UNL     1      -1.822  10.783  18.512  0.00  0.00    +0.000 A 
ATOM     25  C   UNL     1      -1.552   9.976  17.395  0.00  0.00    +0.000 A 
ATOM     26  C   UNL     1      -2.454   9.912  16.330  0.00  0.00    +0.000 A 
ATOM     27  C   UNL     1      -3.631  10.657  16.366  0.00  0.00    +0.000 A 
ATOM     28  C   UNL     1      -3.910  11.463  17.467  0.00  0.00    +0.000 A 
ATOM     29  C   UNL     1      -3.011  11.527  18.533  0.00  0.00    +0.000 A 
ENDBRANCH  23  24
ENDBRANCH  22  23
ENDBRANCH   7  22
TORSDOF 4
ENDMDL
MODEL 4
REMARK VINA RESULT:      -8.6      2.366      3.485
REMARK  Name = 
REMARK  5 active torsions:
REMARK  status: ('A' for Active; 'I' for Inactive)
REMARK    1  A    between atoms: C_1  and  C_2
REMARK    2  A    between atoms: C_2  and  C_3
REMARK    3  A    between atoms: C_9  and  S_10
REMARK    4  A    between atoms: S_10  and  C_11
REMARK    5  A    between atoms: C_11  and  C_12
REMARK                            x       y       z     vdW  Elec       q    Type
REMARK                         _______ _______ _______ _____ _____    ______ ____
ROOT
ATOM      1  C   UNL     1       3.150   5.547  18.633  0.00  0.00    +0.000 C 
ATOM      2  O   UNL     1       2.776   5.166  19.740  0.00  0.00    +0.000 OA
ATOM      3  N   UNL     1       2.830   6.755  18.047  0.00  0.00    +0.000 N 
ATOM      4  C   UNL     1       2.146   7.794  18.636  0.00  0.00    +0.000 A 
ATOM      5  N   UNL     1       1.722   8.839  17.956  0.00  0.00    +0.000 NA
ATOM      6  N   UNL     1       1.056   9.749  18.759  0.00  0.00    +0.000 NA
ATOM      7  C   UNL     1       1.045   9.373  20.020  0.00  0.00    +0.000 A 
ATOM      8  S   UNL     1       1.833   7.880  20.311  0.00  0.00    +0.000 S 
ATOM      9  H   UNL     1       3.081   6.915  17.078  0.00  0.00    +0.000 HD
ENDROOT
BRANCH   1  11
ATOM     10  C   UNL     1       3.136   3.358  17.420  0.00  0.00    +0.000 C 
ATOM     11  C   UNL     1       3.975   4.612  17.704  0.00  0.00    +0.000 C 
ATOM     12  C   UNL     1       5.299   4.187  18.354  0.00  0.00    +0.000 C 
ATOM     13  C   UNL     1       6.273   5.328  18.333  0.00  0.00    +0.000 A 
ATOM     14  C   UNL     1       7.304   5.409  19.277  0.00  0.00    +0.000 A 
ATOM     15  C   UNL     1       8.213   6.466  19.236  0.00  0.00    +0.000 A 
ATOM     16  C   UNL     1       8.107   7.442  18.247  0.00  0.00    +0.000 A 
ATOM     17  C   UNL     1       7.096   7.357  17.289  0.00  0.00    +0.000 A 
ATOM     18  C   UNL     1       6.179   6.300  17.330  0.00  0.00    +0.000 A 
ATOM     19  C   UNL     1       5.135   6.209  16.280  0.00  0.00    +0.000 C 
ATOM     20  O   UNL     1       5.122   6.959  15.315  0.00  0.00    +0.000 OA
ATOM     21  O   UNL     1       4.203   5.231  16.423  0.00  0.00    +0.000 OA
ENDBRANCH   1  11
BRANCH   7  22
ATOM     22  S   UNL     1       0.312  10.323  21.291  0.00  0.00    +0.000 S 
BRANCH  22  23
ATOM     23  C   UNL     1      -0.678  11.487  20.308  0.00  0.00    +0.000 C 
BRANCH  23  24
ATOM     24  C   UNL     1      -1.843  12.033  21.099  0.00  0.00    +0.000 A 
ATOM     25  C   UNL     1      -1.866  11.921  22.499  0.00  0.00    +0.000 A 
ATOM     26  C   UNL     1      -2.951  12.409  23.232  0.00  0.00    +0.000 A 
ATOM     27  C   UNL     1      -4.025  13.007  22.576  0.00  0.00    +0.000 A 
ATOM     28  C   UNL     1      -4.015  13.121  21.189  0.00  0.00    +0.000 A 
ATOM     29  C   UNL     1      -2.932  12.636  20.453  0.00  0.00    +0.000 A 
ENDBRANCH  23  24
ENDBRANCH  22  23
ENDBRANCH   7  22
TORSDOF 4
ENDMDL
MODEL 5
REMARK VINA RESULT:      -8.6      1.823      2.213
REMARK  Name = 
REMARK  5 active torsions:
REMARK  status: ('A' for Active; 'I' for Inactive)
REMARK    1  A    between atoms: C_1  and  C_2
REMARK    2  A    between atoms: C_2  and  C_3
REMARK    3  A    between atoms: C_9  and  S_10
REMARK    4  A    between atoms: S_10  and  C_11
REMARK    5  A    between atoms: C_11  and  C_12
REMARK                            x       y       z     vdW  Elec       q    Type
REMARK                         _______ _______ _______ _____ _____    ______ ____
ROOT
ATOM      1  C   UNL     1       2.869   5.349  18.860  0.00  0.00    +0.000 C 
ATOM      2  O   UNL     1       2.081   5.315  19.802  0.00  0.00    +0.000 OA
ATOM      3  N   UNL     1       3.062   6.421  18.012  0.00  0.00    +0.000 N 
ATOM      4  C   UNL     1       2.506   7.674  18.137  0.00  0.00    +0.000 A 
ATOM      5  N   UNL     1       2.593   8.585  17.190  0.00  0.00    +0.000 NA
ATOM      6  N   UNL     1       1.954   9.762  17.540  0.00  0.00    +0.000 NA
ATOM      7  C   UNL     1       1.450   9.705  18.755  0.00  0.00    +0.000 A 
ATOM      8  S   UNL     1       1.710   8.209  19.547  0.00  0.00    +0.000 S 
ATOM      9  H   UNL     1       3.638   6.300  17.187  0.00  0.00    +0.000 HD
ENDROOT
BRANCH   1  11
ATOM     10  C   UNL     1       2.833   2.849  18.755  0.00  0.00    +0.000 C 
ATOM     11  C   UNL     1       3.686   4.090  18.457  0.00  0.00    +0.000 C 
ATOM     12  C   UNL     1       5.001   3.989  19.243  0.00  0.00    +0.000 C 
ATOM     13  C   UNL     1       5.990   4.991  18.725  0.00  0.00    +0.000 A 
ATOM     14  C   UNL     1       7.017   5.476  19.544  0.00  0.00    +0.000 A 
ATOM     15  C   UNL     1       7.940   6.395  19.044  0.00  0.00    +0.000 A 
ATOM     16  C   UNL     1       7.853   6.826  17.722  0.00  0.00    +0.000 A 
ATOM     17  C   UNL     1       6.846   6.331  16.892  0.00  0.00    +0.000 A 
ATOM     18  C   UNL     1       5.915   5.412  17.392  0.00  0.00    +0.000 A 
ATOM     19  C   UNL     1       4.876   4.870  16.482  0.00  0.00    +0.000 C 
ATOM     20  O   UNL     1       4.878   5.109  15.283  0.00  0.00    +0.000 OA
ATOM     21  O   UNL     1       3.930   4.068  17.037  0.00  0.00    +0.000 OA
ENDBRANCH   1  11
BRANCH   7  22
ATOM     22  S   UNL     1       0.612  11.044  19.503  0.00  0.00    +0.000 S 
BRANCH  22  23
ATOM     23  C   UNL     1      -1.043  10.324  19.716  0.00  0.00    +0.000 C 
BRANCH  23  24
ATOM     24  C   UNL     1      -1.904  10.539  18.494  0.00  0.00    +0.000 A 
ATOM     25  C   UNL     1      -2.975  11.446  18.530  0.00  0.00    +0.000 A 
ATOM     26  C   UNL     1      -3.784  11.635  17.407  0.00  0.00    +0.000 A 
ATOM     27  C   UNL     1      -3.538  10.916  16.239  0.00  0.00    +0.000 A 
ATOM     28  C   UNL     1      -2.480  10.011  16.191  0.00  0.00    +0.000 A 
ATOM     29  C   UNL     1      -1.669   9.821  17.312  0.00  0.00    +0.000 A 
ENDBRANCH  23  24
ENDBRANCH  22  23
ENDBRANCH   7  22
TORSDOF 4
ENDMDL
MODEL 6
REMARK VINA RESULT:      -8.5      1.541      1.573
REMARK  Name = 
REMARK  5 active torsions:
REMARK  status: ('A' for Active; 'I' for Inactive)
REMARK    1  A    between atoms: C_1  and  C_2
REMARK    2  A    between atoms: C_2  and  C_3
REMARK    3  A    between atoms: C_9  and  S_10
REMARK    4  A    between atoms: S_10  and  C_11
REMARK    5  A    between atoms: C_11  and  C_12
REMARK                            x       y       z     vdW  Elec       q    Type
REMARK                         _______ _______ _______ _____ _____    ______ ____
ROOT
ATOM      1  C   UNL     1       2.303   5.168  20.038  0.00  0.00    +0.000 C 
ATOM      2  O   UNL     1       1.381   5.463  20.795  0.00  0.00    +0.000 OA
ATOM      3  N   UNL     1       2.794   5.963  19.021  0.00  0.00    +0.000 N 
ATOM      4  C   UNL     1       2.430   7.262  18.750  0.00  0.00    +0.000 A 
ATOM      5  N   UNL     1       2.808   7.890  17.656  0.00  0.00    +0.000 NA
ATOM      6  N   UNL     1       2.316   9.182  17.600  0.00  0.00    +0.000 NA
ATOM      7  C   UNL     1       1.625   9.491  18.677  0.00  0.00    +0.000 A 
ATOM      8  S   UNL     1       1.517   8.223  19.823  0.00  0.00    +0.000 S 
ATOM      9  H   UNL     1       3.466   5.572  18.371  0.00  0.00    +0.000 HD
ENDROOT
BRANCH   1  11
ATOM     10  C   UNL     1       2.534   3.084  21.402  0.00  0.00    +0.000 C 
ATOM     11  C   UNL     1       2.964   3.763  20.095  0.00  0.00    +0.000 C 
ATOM     12  C   UNL     1       4.496   3.851  20.063  0.00  0.00    +0.000 C 
ATOM     13  C   UNL     1       4.964   4.189  18.678  0.00  0.00    +0.000 A 
ATOM     14  C   UNL     1       6.192   4.830  18.471  0.00  0.00    +0.000 A 
ATOM     15  C   UNL     1       6.622   5.123  17.177  0.00  0.00    +0.000 A 
ATOM     16  C   UNL     1       5.838   4.768  16.081  0.00  0.00    +0.000 A 
ATOM     17  C   UNL     1       4.625   4.108  16.277  0.00  0.00    +0.000 A 
ATOM     18  C   UNL     1       4.187   3.817  17.575  0.00  0.00    +0.000 A 
ATOM     19  C   UNL     1       2.910   3.082  17.758  0.00  0.00    +0.000 C 
ATOM     20  O   UNL     1       2.289   2.621  16.813  0.00  0.00    +0.000 OA
ATOM     21  O   UNL     1       2.473   2.920  19.034  0.00  0.00    +0.000 OA
ENDBRANCH   1  11
BRANCH   7  22
ATOM     22  S   UNL     1       0.902  11.062  18.927  0.00  0.00    +0.000 S 
BRANCH  22  23
ATOM     23  C   UNL     1      -0.747  10.580  19.518  0.00  0.00    +0.000 C 
BRANCH  23  24
ATOM     24  C   UNL     1      -1.778  10.660  18.417  0.00  0.00    +0.000 A 
ATOM     25  C   UNL     1      -2.891  11.506  18.545  0.00  0.00    +0.000 A 
ATOM     26  C   UNL     1      -3.855  11.569  17.536  0.00  0.00    +0.000 A 
ATOM     27  C   UNL     1      -3.721  10.785  16.392  0.00  0.00    +0.000 A 
ATOM     28  C   UNL     1      -2.623   9.940  16.253  0.00  0.00    +0.000 A 
ATOM     29  C   UNL     1      -1.657   9.876  17.260  0.00  0.00    +0.000 A 
ENDBRANCH  23  24
ENDBRANCH  22  23
ENDBRANCH   7  22
TORSDOF 4
ENDMDL
MODEL 7
REMARK VINA RESULT:      -8.5      2.605      3.386
REMARK  Name = 
REMARK  5 active torsions:
REMARK  status: ('A' for Active; 'I' for Inactive)
REMARK    1  A    between atoms: C_1  and  C_2
REMARK    2  A    between atoms: C_2  and  C_3
REMARK    3  A    between atoms: C_9  and  S_10
REMARK    4  A    between atoms: S_10  and  C_11
REMARK    5  A    between atoms: C_11  and  C_12
REMARK                            x       y       z     vdW  Elec       q    Type
REMARK                         _______ _______ _______ _____ _____    ______ ____
ROOT
ATOM      1  C   UNL     1       2.666   6.243  19.420  0.00  0.00    +0.000 C 
ATOM      2  O   UNL     1       3.014   6.742  18.352  0.00  0.00    +0.000 OA
ATOM      3  N   UNL     1       2.050   6.913  20.458  0.00  0.00    +0.000 N 
ATOM      4  C   UNL     1       1.607   8.216  20.442  0.00  0.00    +0.000 A 
ATOM      5  N   UNL     1       1.195   8.838  21.527  0.00  0.00    +0.000 NA
ATOM      6  N   UNL     1       0.804  10.140  21.266  0.00  0.00    +0.000 NA
ATOM      7  C   UNL     1       0.894  10.430  19.985  0.00  0.00    +0.000 A 
ATOM      8  S   UNL     1       1.473   9.143  19.016  0.00  0.00    +0.000 S 
ATOM      9  H   UNL     1       1.924   6.440  21.345  0.00  0.00    +0.000 HD
ENDROOT
BRANCH   1  11
ATOM     10  C   UNL     1       2.360   4.422  21.108  0.00  0.00    +0.000 C 
ATOM     11  C   UNL     1       2.996   4.761  19.753  0.00  0.00    +0.000 C 
ATOM     12  C   UNL     1       4.509   4.519  19.840  0.00  0.00    +0.000 C 
ATOM     13  C   UNL     1       5.109   4.508  18.465  0.00  0.00    +0.000 A 
ATOM     14  C   UNL     1       6.458   4.832  18.268  0.00  0.00    +0.000 A 
ATOM     15  C   UNL     1       7.007   4.801  16.986  0.00  0.00    +0.000 A 
ATOM     16  C   UNL     1       6.220   4.436  15.896  0.00  0.00    +0.000 A 
ATOM     17  C   UNL     1       4.882   4.090  16.086  0.00  0.00    +0.000 A 
ATOM     18  C   UNL     1       4.326   4.125  17.371  0.00  0.00    +0.000 A 
ATOM     19  C   UNL     1       2.911   3.717  17.556  0.00  0.00    +0.000 C 
ATOM     20  O   UNL     1       2.251   3.241  16.644  0.00  0.00    +0.000 OA
ATOM     21  O   UNL     1       2.384   3.871  18.799  0.00  0.00    +0.000 OA
ENDBRANCH   1  11
BRANCH   7  22
ATOM     22  S   UNL     1       0.439  11.985  19.327  0.00  0.00    +0.000 S 
BRANCH  22  23
ATOM     23  C   UNL     1       2.003  12.489  18.553  0.00  0.00    +0.000 C 
BRANCH  23  24
ATOM     24  C   UNL     1       2.108  13.992  18.438  0.00  0.00    +0.000 A 
ATOM     25  C   UNL     1       1.039  14.811  18.837  0.00  0.00    +0.000 A 
ATOM     26  C   UNL     1       1.126  16.200  18.716  0.00  0.00    +0.000 A 
ATOM     27  C   UNL     1       2.276  16.785  18.191  0.00  0.00    +0.000 A 
ATOM     28  C   UNL     1       3.342  15.984  17.789  0.00  0.00    +0.000 A 
ATOM     29  C   UNL     1       3.259  14.595  17.910  0.00  0.00    +0.000 A 
ENDBRANCH  23  24
ENDBRANCH  22  23
ENDBRANCH   7  22
TORSDOF 4
ENDMDL
MODEL 8
REMARK VINA RESULT:      -8.5      2.032      2.563
REMARK  Name = 
REMARK  5 active torsions:
REMARK  status: ('A' for Active; 'I' for Inactive)
REMARK    1  A    between atoms: C_1  and  C_2
REMARK    2  A    between atoms: C_2  and  C_3
REMARK    3  A    between atoms: C_9  and  S_10
REMARK    4  A    between atoms: S_10  and  C_11
REMARK    5  A    between atoms: C_11  and  C_12
REMARK                            x       y       z     vdW  Elec       q    Type
REMARK                         _______ _______ _______ _____ _____    ______ ____
ROOT
ATOM      1  C   UNL     1       2.515   6.156  19.550  0.00  0.00    +0.000 C 
ATOM      2  O   UNL     1       2.754   6.666  18.458  0.00  0.00    +0.000 OA
ATOM      3  N   UNL     1       2.025   6.818  20.657  0.00  0.00    +0.000 N 
ATOM      4  C   UNL     1       1.604   8.128  20.708  0.00  0.00    +0.000 A 
ATOM      5  N   UNL     1       1.322   8.738  21.840  0.00  0.00    +0.000 NA
ATOM      6  N   UNL     1       0.927  10.050  21.641  0.00  0.00    +0.000 NA
ATOM      7  C   UNL     1       0.882  10.359  20.362  0.00  0.00    +0.000 A 
ATOM      8  S   UNL     1       1.333   9.079  19.318  0.00  0.00    +0.000 S 
ATOM      9  H   UNL     1       1.988   6.333  21.546  0.00  0.00    +0.000 HD
ENDROOT
BRANCH   1  11
ATOM     10  C   UNL     1       2.218   4.267  21.164  0.00  0.00    +0.000 C 
ATOM     11  C   UNL     1       2.854   4.664  19.825  0.00  0.00    +0.000 C 
ATOM     12  C   UNL     1       4.368   4.429  19.906  0.00  0.00    +0.000 C 
ATOM     13  C   UNL     1       4.972   4.478  18.533  0.00  0.00    +0.000 A 
ATOM     14  C   UNL     1       6.319   4.818  18.352  0.00  0.00    +0.000 A 
ATOM     15  C   UNL     1       6.871   4.843  17.071  0.00  0.00    +0.000 A 
ATOM     16  C   UNL     1       6.089   4.516  15.965  0.00  0.00    +0.000 A 
ATOM     17  C   UNL     1       4.753   4.154  16.138  0.00  0.00    +0.000 A 
ATOM     18  C   UNL     1       4.194   4.133  17.422  0.00  0.00    +0.000 A 
ATOM     19  C   UNL     1       2.781   3.708  17.587  0.00  0.00    +0.000 C 
ATOM     20  O   UNL     1       2.127   3.265  16.655  0.00  0.00    +0.000 OA
ATOM     21  O   UNL     1       2.251   3.809  18.834  0.00  0.00    +0.000 OA
ENDBRANCH   1  11
BRANCH   7  22
ATOM     22  S   UNL     1       0.385  11.930  19.780  0.00  0.00    +0.000 S 
BRANCH  22  23
ATOM     23  C   UNL     1       0.088  12.791  21.353  0.00  0.00    +0.000 C 
BRANCH  23  24
ATOM     24  C   UNL     1      -1.368  12.735  21.751  0.00  0.00    +0.000 A 
ATOM     25  C   UNL     1      -2.369  13.111  20.841  0.00  0.00    +0.000 A 
ATOM     26  C   UNL     1      -3.715  13.077  21.212  0.00  0.00    +0.000 A 
ATOM     27  C   UNL     1      -4.076  12.674  22.495  0.00  0.00    +0.000 A 
ATOM     28  C   UNL     1      -3.093  12.301  23.409  0.00  0.00    +0.000 A 
ATOM     29  C   UNL     1      -1.746  12.332  23.040  0.00  0.00    +0.000 A 
ENDBRANCH  23  24
ENDBRANCH  22  23
ENDBRANCH   7  22
TORSDOF 4
ENDMDL
MODEL 9
REMARK VINA RESULT:      -8.5      0.917      1.736
REMARK  Name = 
REMARK  5 active torsions:
REMARK  status: ('A' for Active; 'I' for Inactive)
REMARK    1  A    between atoms: C_1  and  C_2
REMARK    2  A    between atoms: C_2  and  C_3
REMARK    3  A    between atoms: C_9  and  S_10
REMARK    4  A    between atoms: S_10  and  C_11
REMARK    5  A    between atoms: C_11  and  C_12
REMARK                            x       y       z     vdW  Elec       q    Type
REMARK                         _______ _______ _______ _____ _____    ______ ____
ROOT
ATOM      1  C   UNL     1       2.749   6.251  19.375  0.00  0.00    +0.000 C 
ATOM      2  O   UNL     1       3.143   6.757  18.327  0.00  0.00    +0.000 OA
ATOM      3  N   UNL     1       2.062   6.908  20.376  0.00  0.00    +0.000 N 
ATOM      4  C   UNL     1       1.591   8.201  20.333  0.00  0.00    +0.000 A 
ATOM      5  N   UNL     1       1.107   8.814  21.394  0.00  0.00    +0.000 NA
ATOM      6  N   UNL     1       0.701  10.106  21.108  0.00  0.00    +0.000 NA
ATOM      7  C   UNL     1       0.853  10.397  19.833  0.00  0.00    +0.000 A 
ATOM      8  S   UNL     1       1.513   9.122  18.900  0.00  0.00    +0.000 S 
ATOM      9  H   UNL     1       1.900   6.433  21.256  0.00  0.00    +0.000 HD
ENDROOT
BRANCH   1  11
ATOM     10  C   UNL     1       2.475   4.456  21.096  0.00  0.00    +0.000 C 
ATOM     11  C   UNL     1       3.094   4.778  19.729  0.00  0.00    +0.000 C 
ATOM     12  C   UNL     1       4.610   4.550  19.805  0.00  0.00    +0.000 C 
ATOM     13  C   UNL     1       5.197   4.521  18.425  0.00  0.00    +0.000 A 
ATOM     14  C   UNL     1       6.541   4.852  18.209  0.00  0.00    +0.000 A 
ATOM     15  C   UNL     1       7.077   4.805  16.922  0.00  0.00    +0.000 A 
ATOM     16  C   UNL     1       6.283   4.416  15.845  0.00  0.00    +0.000 A 
ATOM     17  C   UNL     1       4.950   4.062  16.055  0.00  0.00    +0.000 A 
ATOM     18  C   UNL     1       4.406   4.113  17.344  0.00  0.00    +0.000 A 
ATOM     19  C   UNL     1       2.996   3.697  17.550  0.00  0.00    +0.000 C 
ATOM     20  O   UNL     1       2.331   3.201  16.653  0.00  0.00    +0.000 OA
ATOM     21  O   UNL     1       2.481   3.868  18.795  0.00  0.00    +0.000 OA
ENDBRANCH   1  11
BRANCH   7  22
ATOM     22  S   UNL     1       0.399  11.940  19.148  0.00  0.00    +0.000 S 
BRANCH  22  23
ATOM     23  C   UNL     1      -1.177  11.503  18.357  0.00  0.00    +0.000 C 
BRANCH  23  24
ATOM     24  C   UNL     1      -2.358  11.945  19.188  0.00  0.00    +0.000 A 
ATOM     25  C   UNL     1      -2.171  12.401  20.503  0.00  0.00    +0.000 A 
ATOM     26  C   UNL     1      -3.263  12.795  21.280  0.00  0.00    +0.000 A 
ATOM     27  C   UNL     1      -4.553  12.731  20.756  0.00  0.00    +0.000 A 
ATOM     28  C   UNL     1      -4.752  12.278  19.455  0.00  0.00    +0.000 A 
ATOM     29  C   UNL     1      -3.662  11.886  18.675  0.00  0.00    +0.000 A 
ENDBRANCH  23  24
ENDBRANCH  22  23
ENDBRANCH   7  22
TORSDOF 4
ENDMDL
