MODEL 1
REMARK VINA RESULT:      -8.5      0.000      0.000
REMARK  Name = 
REMARK  12 active torsions:
REMARK  status: ('A' for Active; 'I' for Inactive)
REMARK    1  A    between atoms: C_1  and  O_2
REMARK    2  A    between atoms: O_2  and  C_3
REMARK    3  A    between atoms: C_5  and  C_6
REMARK    4  A    between atoms: N_8  and  C_9
REMARK    5  A    between atoms: C_9  and  C_10
REMARK    6  A    between atoms: C_9  and  C_11
REMARK    7  A    between atoms: C_14  and  O_15
REMARK    8  A    between atoms: O_15  and  C_16
REMARK    9  A    between atoms: N_19  and  C_20
REMARK   10  A    between atoms: C_20  and  C_21
REMARK   11  A    between atoms: C_21  and  C_22
REMARK   12  A    between atoms: C_21  and  C_28
REMARK                            x       y       z     vdW  Elec       q    Type
REMARK                         _______ _______ _______ _____ _____    ______ ____
ROOT
ATOM      1  C   UNL     1       0.276  11.562  18.895  0.00  0.00    +0.000 C 
ATOM      2  C   UNL     1      -0.522  10.239  18.866  0.00  0.00    +0.000 C 
ATOM      3  C   UNL     1       0.262   8.921  19.071  0.00  0.00    +0.000 C 
ATOM      4  N   UNL     1       1.556   8.826  18.375  0.00  0.00    +0.000 NA
ATOM      5  C   UNL     1       2.340  10.052  18.626  0.00  0.00    +0.000 C 
ATOM      6  C   UNL     1       1.679  11.387  18.320  0.00  0.00    +0.000 C 
ENDROOT
BRANCH   1   7
ATOM      7  O   UNL     1       0.305  12.208  20.202  0.00  0.00    +0.000 OA
BRANCH   7  13
ATOM      8  C   UNL     1      -0.916  11.585  22.214  0.00  0.00    +0.000 A 
ATOM      9  C   UNL     1      -2.075  11.718  23.024  0.00  0.00    +0.000 A 
ATOM     10  C   UNL     1      -3.207  12.433  22.616  0.00  0.00    +0.000 A 
ATOM     11  C   UNL     1      -3.188  12.994  21.346  0.00  0.00    +0.000 A 
ATOM     12  C   UNL     1      -2.047  12.866  20.525  0.00  0.00    +0.000 A 
ATOM     13  C   UNL     1      -0.871  12.206  20.951  0.00  0.00    +0.000 A 
BRANCH  10  14
ATOM     14  C   UNL     1      -4.348  12.584  23.578  0.00  0.00    +0.000 C 
ATOM     15  O   UNL     1      -4.167  12.440  24.777  0.00  0.00    +0.000 OA
ATOM     16  N   UNL     1      -5.598  12.880  23.032  0.00  0.00    +0.000 N 
ATOM     17  H   UNL     1      -5.739  12.724  22.038  0.00  0.00    +0.000 HD
BRANCH  16  18
ATOM     18  C   UNL     1      -6.805  12.963  23.867  0.00  0.00    +0.000 C 
ATOM     19  C   UNL     1      -7.307  14.403  23.945  0.00  0.00    +0.000 C 
ATOM     20  C   UNL     1      -7.914  12.061  23.329  0.00  0.00    +0.000 C 
ENDBRANCH  16  18
ENDBRANCH  10  14
BRANCH   8  22
ATOM     21  C   UNL     1       0.270   9.509  22.607  0.00  0.00    +0.000 C 
ATOM     22  O   UNL     1       0.039  10.874  22.883  0.00  0.00    +0.000 OA
ENDBRANCH   8  22
ENDBRANCH   7  13
ENDBRANCH   1   7
BRANCH   4  23
ATOM     23  C   UNL     1       2.412   7.690  18.893  0.00  0.00    +0.000 C 
BRANCH  23  24
ATOM     24  C   UNL     1       2.881   6.431  18.065  0.00  0.00    +0.000 C 
BRANCH  24  25
ATOM     25  C   UNL     1       4.391   6.205  17.953  0.00  0.00    +0.000 A 
ATOM     26  C   UNL     1       5.122   5.467  18.894  0.00  0.00    +0.000 A 
ATOM     27  C   UNL     1       6.520   5.513  18.907  0.00  0.00    +0.000 A 
ATOM     28  C   UNL     1       7.208   6.268  17.961  0.00  0.00    +0.000 A 
ATOM     29  C   UNL     1       6.502   6.891  16.935  0.00  0.00    +0.000 A 
ATOM     30  C   UNL     1       5.105   6.837  16.916  0.00  0.00    +0.000 A 
ENDBRANCH  24  25
BRANCH  24  31
ATOM     31  C   UNL     1       2.089   5.212  18.601  0.00  0.00    +0.000 A 
ATOM     32  C   UNL     1       1.628   5.216  19.931  0.00  0.00    +0.000 A 
ATOM     33  C   UNL     1       1.026   4.086  20.503  0.00  0.00    +0.000 A 
ATOM     34  C   UNL     1       0.873   2.921  19.753  0.00  0.00    +0.000 A 
ATOM     35  C   UNL     1       1.316   2.896  18.433  0.00  0.00    +0.000 A 
ATOM     36  C   UNL     1       1.917   4.026  17.861  0.00  0.00    +0.000 A 
ENDBRANCH  24  31
ENDBRANCH  23  24
ENDBRANCH   4  23
TORSDOF 9
ENDMDL
MODEL 2
REMARK VINA RESULT:      -8.2      2.392      4.266
REMARK  Name = 
REMARK  12 active torsions:
REMARK  status: ('A' for Active; 'I' for Inactive)
REMARK    1  A    between atoms: C_1  and  O_2
REMARK    2  A    between atoms: O_2  and  C_3
REMARK    3  A    between atoms: C_5  and  C_6
REMARK    4  A    between atoms: N_8  and  C_9
REMARK    5  A    between atoms: C_9  and  C_10
REMARK    6  A    between atoms: C_9  and  C_11
REMARK    7  A    between atoms: C_14  and  O_15
REMARK    8  A    between atoms: O_15  and  C_16
REMARK    9  A    between atoms: N_19  and  C_20
REMARK   10  A    between atoms: C_20  and  C_21
REMARK   11  A    between atoms: C_21  and  C_22
REMARK   12  A    between atoms: C_21  and  C_28
REMARK                            x       y       z     vdW  Elec       q    Type
REMARK                         _______ _______ _______ _____ _____    ______ ____
ROOT
ATOM      1  C   UNL     1       0.416  10.327  19.669  0.00  0.00    +0.000 C 
ATOM      2  C   UNL     1       0.740   9.065  20.497  0.00  0.00    +0.000 C 
ATOM      3  C   UNL     1       1.867   8.136  19.985  0.00  0.00    +0.000 C 
ATOM      4  N   UNL     1       1.890   7.891  18.533  0.00  0.00    +0.000 NA
ATOM      5  C   UNL     1       1.779   9.177  17.815  0.00  0.00    +0.000 C 
ATOM      6  C   UNL     1       0.615  10.088  18.174  0.00  0.00    +0.000 C 
ENDROOT
BRANCH   1   7
ATOM      7  O   UNL     1       1.112  11.527  20.120  0.00  0.00    +0.000 OA
BRANCH   7  13
ATOM      8  C   UNL     1      -0.207  12.515  21.911  0.00  0.00    +0.000 A 
ATOM      9  C   UNL     1      -0.868  13.650  22.452  0.00  0.00    +0.000 A 
ATOM     10  C   UNL     1      -1.027  14.845  21.740  0.00  0.00    +0.000 A 
ATOM     11  C   UNL     1      -0.544  14.886  20.439  0.00  0.00    +0.000 A 
ATOM     12  C   UNL     1       0.110  13.765  19.883  0.00  0.00    +0.000 A 
ATOM     13  C   UNL     1       0.339  12.576  20.614  0.00  0.00    +0.000 A 
BRANCH  10  14
ATOM     14  C   UNL     1      -1.667  16.013  22.430  0.00  0.00    +0.000 C 
ATOM     15  O   UNL     1      -1.890  17.045  21.816  0.00  0.00    +0.000 OA
ATOM     16  N   UNL     1      -1.972  15.856  23.783  0.00  0.00    +0.000 N 
ATOM     17  H   UNL     1      -1.529  15.098  24.292  0.00  0.00    +0.000 HD
BRANCH  16  18
ATOM     18  C   UNL     1      -2.519  16.962  24.584  0.00  0.00    +0.000 C 
ATOM     19  C   UNL     1      -3.999  16.731  24.880  0.00  0.00    +0.000 C 
ATOM     20  C   UNL     1      -1.753  17.127  25.895  0.00  0.00    +0.000 C 
ENDBRANCH  16  18
ENDBRANCH  10  14
BRANCH   8  22
ATOM     21  C   UNL     1      -1.327  10.799  23.204  0.00  0.00    +0.000 C 
ATOM     22  O   UNL     1      -0.166  11.515  22.841  0.00  0.00    +0.000 OA
ENDBRANCH   8  22
ENDBRANCH   7  13
ENDBRANCH   1   7
BRANCH   4  23
ATOM     23  C   UNL     1       3.195   7.283  18.066  0.00  0.00    +0.000 C 
BRANCH  23  24
ATOM     24  C   UNL     1       3.878   5.989  18.659  0.00  0.00    +0.000 C 
BRANCH  24  25
ATOM     25  C   UNL     1       2.953   4.820  19.004  0.00  0.00    +0.000 A 
ATOM     26  C   UNL     1       2.329   4.029  18.030  0.00  0.00    +0.000 A 
ATOM     27  C   UNL     1       1.290   3.158  18.375  0.00  0.00    +0.000 A 
ATOM     28  C   UNL     1       0.883   3.041  19.702  0.00  0.00    +0.000 A 
ATOM     29  C   UNL     1       1.586   3.712  20.697  0.00  0.00    +0.000 A 
ATOM     30  C   UNL     1       2.631   4.575  20.354  0.00  0.00    +0.000 A 
ENDBRANCH  24  25
BRANCH  24  31
ATOM     31  C   UNL     1       5.051   5.620  17.714  0.00  0.00    +0.000 A 
ATOM     32  C   UNL     1       4.920   5.837  16.330  0.00  0.00    +0.000 A 
ATOM     33  C   UNL     1       5.895   5.398  15.423  0.00  0.00    +0.000 A 
ATOM     34  C   UNL     1       7.027   4.727  15.884  0.00  0.00    +0.000 A 
ATOM     35  C   UNL     1       7.180   4.508  17.251  0.00  0.00    +0.000 A 
ATOM     36  C   UNL     1       6.206   4.948  18.157  0.00  0.00    +0.000 A 
ENDBRANCH  24  31
ENDBRANCH  23  24
ENDBRANCH   4  23
TORSDOF 9
ENDMDL
MODEL 3
REMARK VINA RESULT:      -8.2      2.359      3.040
REMARK  Name = 
REMARK  12 active torsions:
REMARK  status: ('A' for Active; 'I' for Inactive)
REMARK    1  A    between atoms: C_1  and  O_2
REMARK    2  A    between atoms: O_2  and  C_3
REMARK    3  A    between atoms: C_5  and  C_6
REMARK    4  A    between atoms: N_8  and  C_9
REMARK    5  A    between atoms: C_9  and  C_10
REMARK    6  A    between atoms: C_9  and  C_11
REMARK    7  A    between atoms: C_14  and  O_15
REMARK    8  A    between atoms: O_15  and  C_16
REMARK    9  A    between atoms: N_19  and  C_20
REMARK   10  A    between atoms: C_20  and  C_21
REMARK   11  A    between atoms: C_21  and  C_22
REMARK   12  A    between atoms: C_21  and  C_28
REMARK                            x       y       z     vdW  Elec       q    Type
REMARK                         _______ _______ _______ _____ _____    ______ ____
ROOT
ATOM      1  C   UNL     1       0.471  10.126  19.659  0.00  0.00    +0.000 C 
ATOM      2  C   UNL     1       0.787   8.934  20.589  0.00  0.00    +0.000 C 
ATOM      3  C   UNL     1       1.888   7.943  20.141  0.00  0.00    +0.000 C 
ATOM      4  N   UNL     1       1.882   7.574  18.716  0.00  0.00    +0.000 NA
ATOM      5  C   UNL     1       1.782   8.795  17.891  0.00  0.00    +0.000 C 
ATOM      6  C   UNL     1       0.640   9.755  18.188  0.00  0.00    +0.000 C 
ENDROOT
BRANCH   1   7
ATOM      7  O   UNL     1       1.196  11.347  19.994  0.00  0.00    +0.000 OA
BRANCH   7  13
ATOM      8  C   UNL     1       1.056  13.512  21.099  0.00  0.00    +0.000 A 
ATOM      9  C   UNL     1       0.396  14.366  22.021  0.00  0.00    +0.000 A 
ATOM     10  C   UNL     1      -0.635  13.925  22.859  0.00  0.00    +0.000 A 
ATOM     11  C   UNL     1      -0.984  12.582  22.796  0.00  0.00    +0.000 A 
ATOM     12  C   UNL     1      -0.334  11.717  21.889  0.00  0.00    +0.000 A 
ATOM     13  C   UNL     1       0.661  12.164  20.988  0.00  0.00    +0.000 A 
BRANCH  10  14
ATOM     14  C   UNL     1      -1.324  14.925  23.740  0.00  0.00    +0.000 C 
ATOM     15  O   UNL     1      -0.979  15.064  24.903  0.00  0.00    +0.000 OA
ATOM     16  N   UNL     1      -2.364  15.659  23.166  0.00  0.00    +0.000 N 
ATOM     17  H   UNL     1      -2.774  15.319  22.301  0.00  0.00    +0.000 HD
BRANCH  16  18
ATOM     18  C   UNL     1      -3.170  16.603  23.955  0.00  0.00    +0.000 C 
ATOM     19  C   UNL     1      -3.450  17.872  23.154  0.00  0.00    +0.000 C 
ATOM     20  C   UNL     1      -4.489  15.971  24.394  0.00  0.00    +0.000 C 
ENDBRANCH  16  18
ENDBRANCH  10  14
BRANCH   8  22
ATOM     21  C   UNL     1       1.666  14.820  19.153  0.00  0.00    +0.000 C 
ATOM     22  O   UNL     1       1.984  14.221  20.391  0.00  0.00    +0.000 OA
ENDBRANCH   8  22
ENDBRANCH   7  13
ENDBRANCH   1   7
BRANCH   4  23
ATOM     23  C   UNL     1       3.169   6.902  18.284  0.00  0.00    +0.000 C 
BRANCH  23  24
ATOM     24  C   UNL     1       3.312   5.417  17.770  0.00  0.00    +0.000 C 
BRANCH  24  25
ATOM     25  C   UNL     1       4.714   4.964  17.360  0.00  0.00    +0.000 A 
ATOM     26  C   UNL     1       5.875   5.387  18.023  0.00  0.00    +0.000 A 
ATOM     27  C   UNL     1       7.137   5.174  17.459  0.00  0.00    +0.000 A 
ATOM     28  C   UNL     1       7.260   4.506  16.243  0.00  0.00    +0.000 A 
ATOM     29  C   UNL     1       6.131   3.956  15.645  0.00  0.00    +0.000 A 
ATOM     30  C   UNL     1       4.870   4.160  16.213  0.00  0.00    +0.000 A 
ENDBRANCH  24  25
BRANCH  24  31
ATOM     31  C   UNL     1       2.623   4.505  18.816  0.00  0.00    +0.000 A 
ATOM     32  C   UNL     1       1.501   3.742  18.440  0.00  0.00    +0.000 A 
ATOM     33  C   UNL     1       0.764   3.008  19.380  0.00  0.00    +0.000 A 
ATOM     34  C   UNL     1       1.134   3.022  20.724  0.00  0.00    +0.000 A 
ATOM     35  C   UNL     1       2.245   3.764  21.118  0.00  0.00    +0.000 A 
ATOM     36  C   UNL     1       2.982   4.497  20.178  0.00  0.00    +0.000 A 
ENDBRANCH  24  31
ENDBRANCH  23  24
ENDBRANCH   4  23
TORSDOF 9
ENDMDL
MODEL 4
REMARK VINA RESULT:      -8.1      2.994      5.572
REMARK  Name = 
REMARK  12 active torsions:
REMARK  status: ('A' for Active; 'I' for Inactive)
REMARK    1  A    between atoms: C_1  and  O_2
REMARK    2  A    between atoms: O_2  and  C_3
REMARK    3  A    between atoms: C_5  and  C_6
REMARK    4  A    between atoms: N_8  and  C_9
REMARK    5  A    between atoms: C_9  and  C_10
REMARK    6  A    between atoms: C_9  and  C_11
REMARK    7  A    between atoms: C_14  and  O_15
REMARK    8  A    between atoms: O_15  and  C_16
REMARK    9  A    between atoms: N_19  and  C_20
REMARK   10  A    between atoms: C_20  and  C_21
REMARK   11  A    between atoms: C_21  and  C_22
REMARK   12  A    between atoms: C_21  and  C_28
REMARK                            x       y       z     vdW  Elec       q    Type
REMARK                         _______ _______ _______ _____ _____    ______ ____
ROOT
ATOM      1  C   UNL     1       0.495   9.907  20.057  0.00  0.00    +0.000 C 
ATOM      2  C   UNL     1       0.716   8.551  20.764  0.00  0.00    +0.000 C 
ATOM      3  C   UNL     1       1.847   7.638  20.232  0.00  0.00    +0.000 C 
ATOM      4  N   UNL     1       1.968   7.548  18.768  0.00  0.00    +0.000 NA
ATOM      5  C   UNL     1       1.952   8.906  18.188  0.00  0.00    +0.000 C 
ATOM      6  C   UNL     1       0.795   9.820  18.563  0.00  0.00    +0.000 C 
ENDROOT
BRANCH   1   7
ATOM      7  O   UNL     1       1.196  11.023  20.683  0.00  0.00    +0.000 OA
BRANCH   7  13
ATOM      8  C   UNL     1      -0.181  12.939  20.081  0.00  0.00    +0.000 A 
ATOM      9  C   UNL     1      -0.265  14.276  19.610  0.00  0.00    +0.000 A 
ATOM     10  C   UNL     1       0.844  14.982  19.128  0.00  0.00    +0.000 A 
ATOM     11  C   UNL     1       2.060  14.313  19.083  0.00  0.00    +0.000 A 
ATOM     12  C   UNL     1       2.161  12.981  19.542  0.00  0.00    +0.000 A 
ATOM     13  C   UNL     1       1.064  12.280  20.095  0.00  0.00    +0.000 A 
BRANCH  10  14
ATOM     14  C   UNL     1       0.666  16.417  18.731  0.00  0.00    +0.000 C 
ATOM     15  O   UNL     1       1.640  17.125  18.525  0.00  0.00    +0.000 OA
ATOM     16  N   UNL     1      -0.645  16.884  18.625  0.00  0.00    +0.000 N 
ATOM     17  H   UNL     1      -1.386  16.342  19.059  0.00  0.00    +0.000 HD
BRANCH  16  18
ATOM     18  C   UNL     1      -0.941  18.294  18.329  0.00  0.00    +0.000 C 
ATOM     19  C   UNL     1      -0.582  18.627  16.883  0.00  0.00    +0.000 C 
ATOM     20  C   UNL     1      -2.414  18.614  18.580  0.00  0.00    +0.000 C 
ENDBRANCH  16  18
ENDBRANCH  10  14
BRANCH   8  22
ATOM     21  C   UNL     1      -2.516  13.394  20.536  0.00  0.00    +0.000 C 
ATOM     22  O   UNL     1      -1.405  12.524  20.524  0.00  0.00    +0.000 OA
ENDBRANCH   8  22
ENDBRANCH   7  13
ENDBRANCH   1   7
BRANCH   4  23
ATOM     23  C   UNL     1       3.283   6.940  18.329  0.00  0.00    +0.000 C 
BRANCH  23  24
ATOM     24  C   UNL     1       3.895   5.581  18.849  0.00  0.00    +0.000 C 
BRANCH  24  25
ATOM     25  C   UNL     1       2.904   4.459  19.169  0.00  0.00    +0.000 A 
ATOM     26  C   UNL     1       2.194   3.765  18.180  0.00  0.00    +0.000 A 
ATOM     27  C   UNL     1       1.110   2.949  18.520  0.00  0.00    +0.000 A 
ATOM     28  C   UNL     1       0.742   2.787  19.853  0.00  0.00    +0.000 A 
ATOM     29  C   UNL     1       1.525   3.354  20.854  0.00  0.00    +0.000 A 
ATOM     30  C   UNL     1       2.613   4.163  20.516  0.00  0.00    +0.000 A 
ENDBRANCH  24  25
BRANCH  24  31
ATOM     31  C   UNL     1       5.019   5.180  17.860  0.00  0.00    +0.000 A 
ATOM     32  C   UNL     1       6.312   4.918  18.349  0.00  0.00    +0.000 A 
ATOM     33  C   UNL     1       7.391   4.684  17.485  0.00  0.00    +0.000 A 
ATOM     34  C   UNL     1       7.198   4.709  16.104  0.00  0.00    +0.000 A 
ATOM     35  C   UNL     1       5.925   4.960  15.598  0.00  0.00    +0.000 A 
ATOM     36  C   UNL     1       4.847   5.193  16.462  0.00  0.00    +0.000 A 
ENDBRANCH  24  31
ENDBRANCH  23  24
ENDBRANCH   4  23
TORSDOF 9
ENDMDL
MODEL 5
REMARK VINA RESULT:      -8.1      2.181      2.805
REMARK  Name = 
REMARK  12 active torsions:
REMARK  status: ('A' for Active; 'I' for Inactive)
REMARK    1  A    between atoms: C_1  and  O_2
REMARK    2  A    between atoms: O_2  and  C_3
REMARK    3  A    between atoms: C_5  and  C_6
REMARK    4  A    between atoms: N_8  and  C_9
REMARK    5  A    between atoms: C_9  and  C_10
REMARK    6  A    between atoms: C_9  and  C_11
REMARK    7  A    between atoms: C_14  and  O_15
REMARK    8  A    between atoms: O_15  and  C_16
REMARK    9  A    between atoms: N_19  and  C_20
REMARK   10  A    between atoms: C_20  and  C_21
REMARK   11  A    between atoms: C_21  and  C_22
REMARK   12  A    between atoms: C_21  and  C_28
REMARK                            x       y       z     vdW  Elec       q    Type
REMARK                         _______ _______ _______ _____ _____    ______ ____
ROOT
ATOM      1  C   UNL     1       0.090  10.405  19.970  0.00  0.00    +0.000 C 
ATOM      2  C   UNL     1       0.490   9.181  20.824  0.00  0.00    +0.000 C 
ATOM      3  C   UNL     1       1.631   8.279  20.298  0.00  0.00    +0.000 C 
ATOM      4  N   UNL     1       1.610   7.988  18.854  0.00  0.00    +0.000 NA
ATOM      5  C   UNL     1       1.426   9.246  18.103  0.00  0.00    +0.000 C 
ATOM      6  C   UNL     1       0.243  10.125  18.477  0.00  0.00    +0.000 C 
ENDROOT
BRANCH   1   7
ATOM      7  O   UNL     1       0.757  11.642  20.358  0.00  0.00    +0.000 OA
BRANCH   7  13
ATOM      8  C   UNL     1       0.509  13.750  21.551  0.00  0.00    +0.000 A 
ATOM      9  C   UNL     1      -0.188  14.528  22.513  0.00  0.00    +0.000 A 
ATOM     10  C   UNL     1      -1.185  13.998  23.340  0.00  0.00    +0.000 A 
ATOM     11  C   UNL     1      -1.459  12.641  23.225  0.00  0.00    +0.000 A 
ATOM     12  C   UNL     1      -0.772  11.851  22.278  0.00  0.00    +0.000 A 
ATOM     13  C   UNL     1       0.188  12.388  21.389  0.00  0.00    +0.000 A 
BRANCH  10  14
ATOM     14  C   UNL     1      -1.919  14.922  24.266  0.00  0.00    +0.000 C 
ATOM     15  O   UNL     1      -1.472  15.165  25.376  0.00  0.00    +0.000 OA
ATOM     16  N   UNL     1      -3.118  15.462  23.797  0.00  0.00    +0.000 N 
ATOM     17  H   UNL     1      -3.564  15.023  22.997  0.00  0.00    +0.000 HD
BRANCH  16  18
ATOM     18  C   UNL     1      -3.968  16.308  24.648  0.00  0.00    +0.000 C 
ATOM     19  C   UNL     1      -3.527  17.768  24.566  0.00  0.00    +0.000 C 
ATOM     20  C   UNL     1      -5.438  16.192  24.251  0.00  0.00    +0.000 C 
ENDBRANCH  16  18
ENDBRANCH  10  14
BRANCH   8  22
ATOM     21  C   UNL     1       1.031  15.157  19.649  0.00  0.00    +0.000 C 
ATOM     22  O   UNL     1       1.390  14.537  20.866  0.00  0.00    +0.000 OA
ENDBRANCH   8  22
ENDBRANCH   7  13
ENDBRANCH   1   7
BRANCH   4  23
ATOM     23  C   UNL     1       2.919   7.412  18.358  0.00  0.00    +0.000 C 
BRANCH  23  24
ATOM     24  C   UNL     1       3.114   5.998  17.685  0.00  0.00    +0.000 C 
BRANCH  24  25
ATOM     25  C   UNL     1       4.516   5.671  17.166  0.00  0.00    +0.000 A 
ATOM     26  C   UNL     1       4.812   4.494  16.463  0.00  0.00    +0.000 A 
ATOM     27  C   UNL     1       6.139   4.107  16.248  0.00  0.00    +0.000 A 
ATOM     28  C   UNL     1       7.187   4.904  16.702  0.00  0.00    +0.000 A 
ATOM     29  C   UNL     1       6.909   6.142  17.274  0.00  0.00    +0.000 A 
ATOM     30  C   UNL     1       5.584   6.534  17.480  0.00  0.00    +0.000 A 
ENDBRANCH  24  25
BRANCH  24  31
ATOM     31  C   UNL     1       2.529   4.945  18.660  0.00  0.00    +0.000 A 
ATOM     32  C   UNL     1       1.553   4.041  18.200  0.00  0.00    +0.000 A 
ATOM     33  C   UNL     1       0.898   3.161  19.074  0.00  0.00    +0.000 A 
ATOM     34  C   UNL     1       1.206   3.169  20.434  0.00  0.00    +0.000 A 
ATOM     35  C   UNL     1       2.173   4.051  20.910  0.00  0.00    +0.000 A 
ATOM     36  C   UNL     1       2.829   4.929  20.036  0.00  0.00    +0.000 A 
ENDBRANCH  24  31
ENDBRANCH  23  24
ENDBRANCH   4  23
TORSDOF 9
ENDMDL
MODEL 6
REMARK VINA RESULT:      -8.0      3.415      5.899
REMARK  Name = 
REMARK  12 active torsions:
REMARK  status: ('A' for Active; 'I' for Inactive)
REMARK    1  A    between atoms: C_1  and  O_2
REMARK    2  A    between atoms: O_2  and  C_3
REMARK    3  A    between atoms: C_5  and  C_6
REMARK    4  A    between atoms: N_8  and  C_9
REMARK    5  A    between atoms: C_9  and  C_10
REMARK    6  A    between atoms: C_9  and  C_11
REMARK    7  A    between atoms: C_14  and  O_15
REMARK    8  A    between atoms: O_15  and  C_16
REMARK    9  A    between atoms: N_19  and  C_20
REMARK   10  A    between atoms: C_20  and  C_21
REMARK   11  A    between atoms: C_21  and  C_22
REMARK   12  A    between atoms: C_21  and  C_28
REMARK                            x       y       z     vdW  Elec       q    Type
REMARK                         _______ _______ _______ _____ _____    ______ ____
ROOT
ATOM      1  C   UNL     1       2.198   5.649  19.694  0.00  0.00    +0.000 C 
ATOM      2  C   UNL     1       3.161   4.513  20.105  0.00  0.00    +0.000 C 
ATOM      3  C   UNL     1       4.222   4.061  19.073  0.00  0.00    +0.000 C 
ATOM      4  N   UNL     1       3.758   3.945  17.680  0.00  0.00    +0.000 NA
ATOM      5  C   UNL     1       3.019   5.167  17.305  0.00  0.00    +0.000 C 
ATOM      6  C   UNL     1       1.872   5.601  18.204  0.00  0.00    +0.000 C 
ENDROOT
BRANCH   1   7
ATOM      7  O   UNL     1       2.638   6.977  20.108  0.00  0.00    +0.000 OA
BRANCH   7  13
ATOM      8  C   UNL     1       1.082   8.740  20.738  0.00  0.00    +0.000 A 
ATOM      9  C   UNL     1       0.386   9.928  20.393  0.00  0.00    +0.000 A 
ATOM     10  C   UNL     1       0.390  10.461  19.099  0.00  0.00    +0.000 A 
ATOM     11  C   UNL     1       1.080   9.760  18.119  0.00  0.00    +0.000 A 
ATOM     12  C   UNL     1       1.773   8.573  18.443  0.00  0.00    +0.000 A 
ATOM     13  C   UNL     1       1.835   8.061  19.760  0.00  0.00    +0.000 A 
BRANCH  10  14
ATOM     14  C   UNL     1      -0.309  11.766  18.855  0.00  0.00    +0.000 C 
ATOM     15  O   UNL     1      -1.106  11.876  17.936  0.00  0.00    +0.000 OA
ATOM     16  N   UNL     1       0.007  12.820  19.714  0.00  0.00    +0.000 N 
ATOM     17  H   UNL     1       0.852  12.750  20.272  0.00  0.00    +0.000 HD
BRANCH  16  18
ATOM     18  C   UNL     1      -0.547  14.168  19.518  0.00  0.00    +0.000 C 
ATOM     19  C   UNL     1      -0.956  14.781  20.855  0.00  0.00    +0.000 C 
ATOM     20  C   UNL     1       0.456  15.083  18.818  0.00  0.00    +0.000 C 
ENDBRANCH  16  18
ENDBRANCH  10  14
BRANCH   8  22
ATOM     21  C   UNL     1      -0.189   8.950  22.790  0.00  0.00    +0.000 C 
ATOM     22  O   UNL     1       0.933   8.485  22.072  0.00  0.00    +0.000 OA
ENDBRANCH   8  22
ENDBRANCH   7  13
ENDBRANCH   1   7
BRANCH   4  23
ATOM     23  C   UNL     1       4.902   3.850  16.693  0.00  0.00    +0.000 C 
BRANCH  23  24
ATOM     24  C   UNL     1       5.673   5.067  16.048  0.00  0.00    +0.000 C 
BRANCH  24  25
ATOM     25  C   UNL     1       6.726   5.753  16.920  0.00  0.00    +0.000 A 
ATOM     26  C   UNL     1       7.376   5.106  17.980  0.00  0.00    +0.000 A 
ATOM     27  C   UNL     1       8.119   5.836  18.914  0.00  0.00    +0.000 A 
ATOM     28  C   UNL     1       8.252   7.216  18.783  0.00  0.00    +0.000 A 
ATOM     29  C   UNL     1       7.733   7.852  17.659  0.00  0.00    +0.000 A 
ATOM     30  C   UNL     1       6.998   7.121  16.721  0.00  0.00    +0.000 A 
ENDBRANCH  24  25
BRANCH  24  31
ATOM     31  C   UNL     1       6.194   4.595  14.666  0.00  0.00    +0.000 A 
ATOM     32  C   UNL     1       7.334   5.205  14.109  0.00  0.00    +0.000 A 
ATOM     33  C   UNL     1       7.763   4.909  12.808  0.00  0.00    +0.000 A 
ATOM     34  C   UNL     1       7.057   3.991  12.031  0.00  0.00    +0.000 A 
ATOM     35  C   UNL     1       5.931   3.370  12.564  0.00  0.00    +0.000 A 
ATOM     36  C   UNL     1       5.502   3.666  13.865  0.00  0.00    +0.000 A 
ENDBRANCH  24  31
ENDBRANCH  23  24
ENDBRANCH   4  23
TORSDOF 9
ENDMDL
MODEL 7
REMARK VINA RESULT:      -8.0      3.855      6.467
REMARK  Name = 
REMARK  12 active torsions:
REMARK  status: ('A' for Active; 'I' for Inactive)
REMARK    1  A    between atoms: C_1  and  O_2
REMARK    2  A    between atoms: O_2  and  C_3
REMARK    3  A    between atoms: C_5  and  C_6
REMARK    4  A    between atoms: N_8  and  C_9
REMARK    5  A    between atoms: C_9  and  C_10
REMARK    6  A    between atoms: C_9  and  C_11
REMARK    7  A    between atoms: C_14  and  O_15
REMARK    8  A    between atoms: O_15  and  C_16
REMARK    9  A    between atoms: N_19  and  C_20
REMARK   10  A    between atoms: C_20  and  C_21
REMARK   11  A    between atoms: C_21  and  C_22
REMARK   12  A    between atoms: C_21  and  C_28
REMARK                            x       y       z     vdW  Elec       q    Type
REMARK                         _______ _______ _______ _____ _____    ______ ____
ROOT
ATOM      1  C   UNL     1       2.189   5.048  19.723  0.00  0.00    +0.000 C 
ATOM      2  C   UNL     1       3.144   3.855  19.951  0.00  0.00    +0.000 C 
ATOM      3  C   UNL     1       4.193   3.553  18.854  0.00  0.00    +0.000 C 
ATOM      4  N   UNL     1       3.719   3.651  17.464  0.00  0.00    +0.000 NA
ATOM      5  C   UNL     1       2.988   4.921  17.281  0.00  0.00    +0.000 C 
ATOM      6  C   UNL     1       1.851   5.226  18.245  0.00  0.00    +0.000 C 
ENDROOT
BRANCH   1   7
ATOM      7  O   UNL     1       2.644   6.295  20.326  0.00  0.00    +0.000 OA
BRANCH   7  13
ATOM      8  C   UNL     1       1.241   8.252  20.685  0.00  0.00    +0.000 A 
ATOM      9  C   UNL     1       0.796   9.527  20.245  0.00  0.00    +0.000 A 
ATOM     10  C   UNL     1       1.140  10.062  18.998  0.00  0.00    +0.000 A 
ATOM     11  C   UNL     1       1.918   9.278  18.156  0.00  0.00    +0.000 A 
ATOM     12  C   UNL     1       2.364   8.005  18.575  0.00  0.00    +0.000 A 
ATOM     13  C   UNL     1       2.082   7.482  19.858  0.00  0.00    +0.000 A 
BRANCH  10  14
ATOM     14  C   UNL     1       0.687  11.452  18.661  0.00  0.00    +0.000 C 
ATOM     15  O   UNL     1      -0.461  11.655  18.298  0.00  0.00    +0.000 OA
ATOM     16  N   UNL     1       1.637  12.469  18.774  0.00  0.00    +0.000 N 
ATOM     17  H   UNL     1       2.618  12.209  18.816  0.00  0.00    +0.000 HD
BRANCH  16  18
ATOM     18  C   UNL     1       1.334  13.854  18.386  0.00  0.00    +0.000 C 
ATOM     19  C   UNL     1       0.432  14.518  19.424  0.00  0.00    +0.000 C 
ATOM     20  C   UNL     1       2.612  14.673  18.216  0.00  0.00    +0.000 C 
ENDBRANCH  16  18
ENDBRANCH  10  14
BRANCH   8  22
ATOM     21  C   UNL     1      -0.161   8.859  22.565  0.00  0.00    +0.000 C 
ATOM     22  O   UNL     1       0.786   8.012  21.950  0.00  0.00    +0.000 OA
ENDBRANCH   8  22
ENDBRANCH   7  13
ENDBRANCH   1   7
BRANCH   4  23
ATOM     23  C   UNL     1       4.855   3.694  16.464  0.00  0.00    +0.000 C 
BRANCH  23  24
ATOM     24  C   UNL     1       5.580   4.995  15.942  0.00  0.00    +0.000 C 
BRANCH  24  25
ATOM     25  C   UNL     1       6.643   5.604  16.859  0.00  0.00    +0.000 A 
ATOM     26  C   UNL     1       7.265   4.882  17.887  0.00  0.00    +0.000 A 
ATOM     27  C   UNL     1       8.019   5.539  18.866  0.00  0.00    +0.000 A 
ATOM     28  C   UNL     1       8.189   6.921  18.813  0.00  0.00    +0.000 A 
ATOM     29  C   UNL     1       7.698   7.631  17.722  0.00  0.00    +0.000 A 
ATOM     30  C   UNL     1       6.953   6.974  16.739  0.00  0.00    +0.000 A 
ENDBRANCH  24  25
BRANCH  24  31
ATOM     31  C   UNL     1       6.071   4.697  14.502  0.00  0.00    +0.000 A 
ATOM     32  C   UNL     1       5.336   3.813  13.689  0.00  0.00    +0.000 A 
ATOM     33  C   UNL     1       5.809   3.407  12.433  0.00  0.00    +0.000 A 
ATOM     34  C   UNL     1       7.034   3.877  11.962  0.00  0.00    +0.000 A 
ATOM     35  C   UNL     1       7.775   4.758  12.747  0.00  0.00    +0.000 A 
ATOM     36  C   UNL     1       7.302   5.164  14.002  0.00  0.00    +0.000 A 
ENDBRANCH  24  31
ENDBRANCH  23  24
ENDBRANCH   4  23
TORSDOF 9
ENDMDL
MODEL 8
REMARK VINA RESULT:      -8.0      1.968      2.523
REMARK  Name = 
REMARK  12 active torsions:
REMARK  status: ('A' for Active; 'I' for Inactive)
REMARK    1  A    between atoms: C_1  and  O_2
REMARK    2  A    between atoms: O_2  and  C_3
REMARK    3  A    between atoms: C_5  and  C_6
REMARK    4  A    between atoms: N_8  and  C_9
REMARK    5  A    between atoms: C_9  and  C_10
REMARK    6  A    between atoms: C_9  and  C_11
REMARK    7  A    between atoms: C_14  and  O_15
REMARK    8  A    between atoms: O_15  and  C_16
REMARK    9  A    between atoms: N_19  and  C_20
REMARK   10  A    between atoms: C_20  and  C_21
REMARK   11  A    between atoms: C_21  and  C_22
REMARK   12  A    between atoms: C_21  and  C_28
REMARK                            x       y       z     vdW  Elec       q    Type
REMARK                         _______ _______ _______ _____ _____    ______ ____
ROOT
ATOM      1  C   UNL     1       0.080  10.144  20.354  0.00  0.00    +0.000 C 
ATOM      2  C   UNL     1       0.485   8.846  21.088  0.00  0.00    +0.000 C 
ATOM      3  C   UNL     1       1.630   8.002  20.478  0.00  0.00    +0.000 C 
ATOM      4  N   UNL     1       1.609   7.850  19.014  0.00  0.00    +0.000 NA
ATOM      5  C   UNL     1       1.421   9.173  18.385  0.00  0.00    +0.000 C 
ATOM      6  C   UNL     1       0.234  10.009  18.842  0.00  0.00    +0.000 C 
ENDROOT
BRANCH   1   7
ATOM      7  O   UNL     1       0.743  11.342  20.858  0.00  0.00    +0.000 OA
BRANCH   7  13
ATOM      8  C   UNL     1       0.286  13.538  21.805  0.00  0.00    +0.000 A 
ATOM      9  C   UNL     1      -0.548  14.371  22.596  0.00  0.00    +0.000 A 
ATOM     10  C   UNL     1      -1.622  13.877  23.346  0.00  0.00    +0.000 A 
ATOM     11  C   UNL     1      -1.839  12.506  23.329  0.00  0.00    +0.000 A 
ATOM     12  C   UNL     1      -1.017  11.661  22.552  0.00  0.00    +0.000 A 
ATOM     13  C   UNL     1       0.029  12.154  21.737  0.00  0.00    +0.000 A 
BRANCH  10  14
ATOM     14  C   UNL     1      -2.493  14.851  24.083  0.00  0.00    +0.000 C 
ATOM     15  O   UNL     1      -2.123  15.327  25.146  0.00  0.00    +0.000 OA
ATOM     16  N   UNL     1      -3.724  15.162  23.503  0.00  0.00    +0.000 N 
ATOM     17  H   UNL     1      -4.084  14.547  22.779  0.00  0.00    +0.000 HD
BRANCH  16  18
ATOM     18  C   UNL     1      -4.697  16.033  24.177  0.00  0.00    +0.000 C 
ATOM     19  C   UNL     1      -4.567  17.471  23.679  0.00  0.00    +0.000 C 
ATOM     20  C   UNL     1      -6.127  15.541  23.956  0.00  0.00    +0.000 C 
ENDBRANCH  16  18
ENDBRANCH  10  14
BRANCH   8  22
ATOM     21  C   UNL     1       1.038  14.700  19.817  0.00  0.00    +0.000 C 
ATOM     22  O   UNL     1       1.220  14.295  21.157  0.00  0.00    +0.000 OA
ENDBRANCH   8  22
ENDBRANCH   7  13
ENDBRANCH   1   7
BRANCH   4  23
ATOM     23  C   UNL     1       2.921   7.330  18.465  0.00  0.00    +0.000 C 
BRANCH  23  24
ATOM     24  C   UNL     1       3.141   5.936  17.758  0.00  0.00    +0.000 C 
BRANCH  24  25
ATOM     25  C   UNL     1       4.574   5.593  17.345  0.00  0.00    +0.000 A 
ATOM     26  C   UNL     1       5.652   6.469  17.538  0.00  0.00    +0.000 A 
ATOM     27  C   UNL     1       6.880   6.239  16.909  0.00  0.00    +0.000 A 
ATOM     28  C   UNL     1       7.059   5.115  16.107  0.00  0.00    +0.000 A 
ATOM     29  C   UNL     1       6.047   4.164  16.021  0.00  0.00    +0.000 A 
ATOM     30  C   UNL     1       4.823   4.389  16.658  0.00  0.00    +0.000 A 
ENDBRANCH  24  25
BRANCH  24  31
ATOM     31  C   UNL     1       2.455   4.863  18.642  0.00  0.00    +0.000 A 
ATOM     32  C   UNL     1       2.922   4.642  19.951  0.00  0.00    +0.000 A 
ATOM     33  C   UNL     1       2.425   3.595  20.741  0.00  0.00    +0.000 A 
ATOM     34  C   UNL     1       1.446   2.741  20.234  0.00  0.00    +0.000 A 
ATOM     35  C   UNL     1       0.965   2.946  18.943  0.00  0.00    +0.000 A 
ATOM     36  C   UNL     1       1.461   3.993  18.154  0.00  0.00    +0.000 A 
ENDBRANCH  24  31
ENDBRANCH  23  24
ENDBRANCH   4  23
TORSDOF 9
ENDMDL
MODEL 9
REMARK VINA RESULT:      -7.9      1.766      3.864
REMARK  Name = 
REMARK  12 active torsions:
REMARK  status: ('A' for Active; 'I' for Inactive)
REMARK    1  A    between atoms: C_1  and  O_2
REMARK    2  A    between atoms: O_2  and  C_3
REMARK    3  A    between atoms: C_5  and  C_6
REMARK    4  A    between atoms: N_8  and  C_9
REMARK    5  A    between atoms: C_9  and  C_10
REMARK    6  A    between atoms: C_9  and  C_11
REMARK    7  A    between atoms: C_14  and  O_15
REMARK    8  A    between atoms: O_15  and  C_16
REMARK    9  A    between atoms: N_19  and  C_20
REMARK   10  A    between atoms: C_20  and  C_21
REMARK   11  A    between atoms: C_21  and  C_22
REMARK   12  A    between atoms: C_21  and  C_28
REMARK                            x       y       z     vdW  Elec       q    Type
REMARK                         _______ _______ _______ _____ _____    ______ ____
ROOT
ATOM      1  C   UNL     1       0.424  10.739  19.933  0.00  0.00    +0.000 C 
ATOM      2  C   UNL     1       1.237  10.922  18.632  0.00  0.00    +0.000 C 
ATOM      3  C   UNL     1       1.750   9.648  17.918  0.00  0.00    +0.000 C 
ATOM      4  N   UNL     1       2.293   8.594  18.792  0.00  0.00    +0.000 NA
ATOM      5  C   UNL     1       1.352   8.340  19.900  0.00  0.00    +0.000 C 
ATOM      6  C   UNL     1       0.905   9.531  20.734  0.00  0.00    +0.000 C 
ENDROOT
BRANCH   1   7
ATOM      7  O   UNL     1      -1.020  10.711  19.730  0.00  0.00    +0.000 OA
BRANCH   7  13
ATOM      8  C   UNL     1      -2.955  12.188  19.769  0.00  0.00    +0.000 A 
ATOM      9  C   UNL     1      -3.793  13.076  20.494  0.00  0.00    +0.000 A 
ATOM     10  C   UNL     1      -3.497  13.508  21.792  0.00  0.00    +0.000 A 
ATOM     11  C   UNL     1      -2.308  13.068  22.360  0.00  0.00    +0.000 A 
ATOM     12  C   UNL     1      -1.460  12.190  21.651  0.00  0.00    +0.000 A 
ATOM     13  C   UNL     1      -1.780  11.691  20.367  0.00  0.00    +0.000 A 
BRANCH  10  14
ATOM     14  C   UNL     1      -4.489  14.381  22.504  0.00  0.00    +0.000 C 
ATOM     15  O   UNL     1      -4.221  15.547  22.747  0.00  0.00    +0.000 OA
ATOM     16  N   UNL     1      -5.698  13.789  22.872  0.00  0.00    +0.000 N 
ATOM     17  H   UNL     1      -5.755  12.775  22.886  0.00  0.00    +0.000 HD
BRANCH  16  18
ATOM     18  C   UNL     1      -6.709  14.520  23.651  0.00  0.00    +0.000 C 
ATOM     19  C   UNL     1      -7.493  15.475  22.754  0.00  0.00    +0.000 C 
ATOM     20  C   UNL     1      -7.673  13.559  24.345  0.00  0.00    +0.000 C 
ENDBRANCH  16  18
ENDBRANCH  10  14
BRANCH   8  22
ATOM     21  C   UNL     1      -4.910  11.965  18.355  0.00  0.00    +0.000 C 
ATOM     22  O   UNL     1      -3.513  11.910  18.554  0.00  0.00    +0.000 OA
ENDBRANCH   8  22
ENDBRANCH   7  13
ENDBRANCH   1   7
BRANCH   4  23
ATOM     23  C   UNL     1       2.440   7.267  18.078  0.00  0.00    +0.000 C 
BRANCH  23  24
ATOM     24  C   UNL     1       3.337   6.056  18.549  0.00  0.00    +0.000 C 
BRANCH  24  25
ATOM     25  C   UNL     1       2.621   4.908  19.264  0.00  0.00    +0.000 A 
ATOM     26  C   UNL     1       1.573   4.183  18.679  0.00  0.00    +0.000 A 
ATOM     27  C   UNL     1       0.772   3.336  19.452  0.00  0.00    +0.000 A 
ATOM     28  C   UNL     1       1.026   3.176  20.812  0.00  0.00    +0.000 A 
ATOM     29  C   UNL     1       2.147   3.777  21.376  0.00  0.00    +0.000 A 
ATOM     30  C   UNL     1       2.954   4.616  20.601  0.00  0.00    +0.000 A 
ENDBRANCH  24  25
BRANCH  24  31
ATOM     31  C   UNL     1       4.190   5.620  17.331  0.00  0.00    +0.000 A 
ATOM     32  C   UNL     1       4.578   4.273  17.203  0.00  0.00    +0.000 A 
ATOM     33  C   UNL     1       5.459   3.856  16.195  0.00  0.00    +0.000 A 
ATOM     34  C   UNL     1       5.975   4.782  15.290  0.00  0.00    +0.000 A 
ATOM     35  C   UNL     1       5.598   6.120  15.394  0.00  0.00    +0.000 A 
ATOM     36  C   UNL     1       4.717   6.536  16.400  0.00  0.00    +0.000 A 
ENDBRANCH  24  31
ENDBRANCH  23  24
ENDBRANCH   4  23
TORSDOF 9
ENDMDL
