MODEL 1
REMARK VINA RESULT:      -7.3      0.000      0.000
REMARK  Name = 
REMARK  6 active torsions:
REMARK  status: ('A' for Active; 'I' for Inactive)
REMARK    1  A    between atoms: S_2  and  N_4
REMARK    2  A    between atoms: S_2  and  C_15
REMARK    3  A    between atoms: N_4  and  C_5
REMARK    4  A    between atoms: C_5  and  C_6
REMARK    5  A    between atoms: C_6  and  O_7
REMARK    6  A    between atoms: O_7  and  C_8
REMARK                            x       y       z     vdW  Elec       q    Type
REMARK                         _______ _______ _______ _____ _____    ______ ____
ROOT
ATOM      1  N   UNL     1       5.662   5.848  18.668  0.00  0.00    +0.000 NA
ATOM      2  H   UNL     1       5.684   4.970  19.182  0.00  0.00    +0.000 HD
ENDROOT
BRANCH   1   4
ATOM      3  O   UNL     1       3.462   7.099  18.777  0.00  0.00    +0.000 OA
ATOM      4  S   UNL     1       4.146   6.119  17.963  0.00  0.00    +0.000 S 
ATOM      5  O   UNL     1       4.339   6.285  16.542  0.00  0.00    +0.000 OA
BRANCH   4   6
ATOM      6  C   UNL     1       3.342   4.561  18.244  0.00  0.00    +0.000 A 
ATOM      7  C   UNL     1       3.241   3.625  17.213  0.00  0.00    +0.000 A 
ATOM      8  C   UNL     1       2.629   2.397  17.467  0.00  0.00    +0.000 A 
ATOM      9  C   UNL     1       2.128   2.111  18.738  0.00  0.00    +0.000 A 
ATOM     10  C   UNL     1       2.233   3.056  19.757  0.00  0.00    +0.000 A 
ATOM     11 BR   UNL     1       1.571   2.658  21.482  0.00  0.00    +0.000 Br
ATOM     12  C   UNL     1       2.832   4.291  19.519  0.00  0.00    +0.000 A 
ENDBRANCH   4   6
ENDBRANCH   1   4
BRANCH   1  13
ATOM     13  C   UNL     1       6.829   6.135  17.811  0.00  0.00    +0.000 C 
BRANCH  13  14
ATOM     14  C   UNL     1       7.053   5.001  16.817  0.00  0.00    +0.000 C 
BRANCH  14  15
ATOM     15  O   UNL     1       7.545   5.551  15.591  0.00  0.00    +0.000 OA
BRANCH  15  16
ATOM     16  C   UNL     1       7.130   4.926  14.447  0.00  0.00    +0.000 A 
ATOM     17  C   UNL     1       6.003   4.105  14.593  0.00  0.00    +0.000 A 
ATOM     18  C   UNL     1       5.480   3.420  13.492  0.00  0.00    +0.000 A 
ATOM     19  C   UNL     1       6.076   3.545  12.238  0.00  0.00    +0.000 A 
ATOM     20  C   UNL     1       7.201   4.351  12.088  0.00  0.00    +0.000 A 
ATOM     21  C   UNL     1       7.721   5.029  13.183  0.00  0.00    +0.000 A 
ATOM     22  F   UNL     1       8.814   5.778  12.967  0.00  0.00    +0.000 F 
ENDBRANCH  15  16
ENDBRANCH  14  15
ENDBRANCH  13  14
ENDBRANCH   1  13
TORSDOF 6
ENDMDL
MODEL 2
REMARK VINA RESULT:      -7.2      3.680      7.316
REMARK  Name = 
REMARK  6 active torsions:
REMARK  status: ('A' for Active; 'I' for Inactive)
REMARK    1  A    between atoms: S_2  and  N_4
REMARK    2  A    between atoms: S_2  and  C_15
REMARK    3  A    between atoms: N_4  and  C_5
REMARK    4  A    between atoms: C_5  and  C_6
REMARK    5  A    between atoms: C_6  and  O_7
REMARK    6  A    between atoms: O_7  and  C_8
REMARK                            x       y       z     vdW  Elec       q    Type
REMARK                         _______ _______ _______ _____ _____    ______ ____
ROOT
ATOM      1  N   UNL     1       5.532   3.948  16.630  0.00  0.00    +0.000 NA
ATOM      2  H   UNL     1       5.748   3.165  17.244  0.00  0.00    +0.000 HD
ENDROOT
BRANCH   1   4
ATOM      3  O   UNL     1       6.564   6.261  16.600  0.00  0.00    +0.000 OA
ATOM      4  S   UNL     1       6.905   4.886  16.309  0.00  0.00    +0.000 S 
ATOM      5  O   UNL     1       8.044   4.224  16.897  0.00  0.00    +0.000 OA
BRANCH   4   6
ATOM      6  C   UNL     1       7.022   4.746  14.542  0.00  0.00    +0.000 A 
ATOM      7  C   UNL     1       7.899   5.566  13.829  0.00  0.00    +0.000 A 
ATOM      8  C   UNL     1       7.993   5.418  12.445  0.00  0.00    +0.000 A 
ATOM      9  C   UNL     1       7.222   4.460  11.785  0.00  0.00    +0.000 A 
ATOM     10  C   UNL     1       6.349   3.650  12.511  0.00  0.00    +0.000 A 
ATOM     11 BR   UNL     1       5.321   2.340  11.618  0.00  0.00    +0.000 Br
ATOM     12  C   UNL     1       6.234   3.790  13.891  0.00  0.00    +0.000 A 
ENDBRANCH   4   6
ENDBRANCH   1   4
BRANCH   1  13
ATOM     13  C   UNL     1       4.299   4.700  16.939  0.00  0.00    +0.000 C 
BRANCH  13  14
ATOM     14  C   UNL     1       3.085   3.779  16.886  0.00  0.00    +0.000 C 
BRANCH  14  15
ATOM     15  O   UNL     1       2.015   4.382  17.620  0.00  0.00    +0.000 OA
BRANCH  15  16
ATOM     16  C   UNL     1       1.891   3.990  18.926  0.00  0.00    +0.000 A 
ATOM     17  C   UNL     1       2.381   4.901  19.870  0.00  0.00    +0.000 A 
ATOM     18  C   UNL     1       2.303   4.616  21.237  0.00  0.00    +0.000 A 
ATOM     19  C   UNL     1       1.736   3.418  21.672  0.00  0.00    +0.000 A 
ATOM     20  C   UNL     1       1.256   2.504  20.740  0.00  0.00    +0.000 A 
ATOM     21  C   UNL     1       1.337   2.788  19.382  0.00  0.00    +0.000 A 
ATOM     22  F   UNL     1       0.866   1.856  18.540  0.00  0.00    +0.000 F 
ENDBRANCH  15  16
ENDBRANCH  14  15
ENDBRANCH  13  14
ENDBRANCH   1  13
TORSDOF 6
ENDMDL
MODEL 3
REMARK VINA RESULT:      -7.2      4.788      6.589
REMARK  Name = 
REMARK  6 active torsions:
REMARK  status: ('A' for Active; 'I' for Inactive)
REMARK    1  A    between atoms: S_2  and  N_4
REMARK    2  A    between atoms: S_2  and  C_15
REMARK    3  A    between atoms: N_4  and  C_5
REMARK    4  A    between atoms: C_5  and  C_6
REMARK    5  A    between atoms: C_6  and  O_7
REMARK    6  A    between atoms: O_7  and  C_8
REMARK                            x       y       z     vdW  Elec       q    Type
REMARK                         _______ _______ _______ _____ _____    ______ ____
ROOT
ATOM      1  N   UNL     1       7.729   6.645  17.690  0.00  0.00    +0.000 NA
ATOM      2  H   UNL     1       6.944   6.858  17.078  0.00  0.00    +0.000 HD
ENDROOT
BRANCH   1   4
ATOM      3  O   UNL     1       8.264   4.170  17.776  0.00  0.00    +0.000 OA
ATOM      4  S   UNL     1       7.508   5.172  18.496  0.00  0.00    +0.000 S 
ATOM      5  O   UNL     1       7.676   5.407  19.909  0.00  0.00    +0.000 OA
BRANCH   4   6
ATOM      6  C   UNL     1       5.791   4.849  18.178  0.00  0.00    +0.000 A 
ATOM      7  C   UNL     1       5.398   4.254  16.978  0.00  0.00    +0.000 A 
ATOM      8  C   UNL     1       4.045   3.985  16.764  0.00  0.00    +0.000 A 
ATOM      9  C   UNL     1       3.101   4.306  17.740  0.00  0.00    +0.000 A 
ATOM     10  C   UNL     1       3.508   4.902  18.933  0.00  0.00    +0.000 A 
ATOM     11 BR   UNL     1       2.230   5.317  20.261  0.00  0.00    +0.000 Br
ATOM     12  C   UNL     1       4.852   5.187  19.160  0.00  0.00    +0.000 A 
ENDBRANCH   4   6
ENDBRANCH   1   4
BRANCH   1  13
ATOM     13  C   UNL     1       8.237   7.758  18.516  0.00  0.00    +0.000 C 
BRANCH  13  14
ATOM     14  C   UNL     1       8.300   9.043  17.698  0.00  0.00    +0.000 C 
BRANCH  14  15
ATOM     15  O   UNL     1       8.191  10.161  18.585  0.00  0.00    +0.000 OA
BRANCH  15  16
ATOM     16  C   UNL     1       9.366  10.788  18.903  0.00  0.00    +0.000 A 
ATOM     17  C   UNL     1      10.164  11.145  17.808  0.00  0.00    +0.000 A 
ATOM     18  C   UNL     1      11.385  11.798  18.006  0.00  0.00    +0.000 A 
ATOM     19  C   UNL     1      11.819  12.100  19.296  0.00  0.00    +0.000 A 
ATOM     20  C   UNL     1      11.036  11.739  20.388  0.00  0.00    +0.000 A 
ATOM     21  C   UNL     1       9.825  11.088  20.190  0.00  0.00    +0.000 A 
ATOM     22  F   UNL     1       9.128  10.760  21.289  0.00  0.00    +0.000 F 
ENDBRANCH  15  16
ENDBRANCH  14  15
ENDBRANCH  13  14
ENDBRANCH   1  13
TORSDOF 6
ENDMDL
MODEL 4
REMARK VINA RESULT:      -7.2      4.670      6.657
REMARK  Name = 
REMARK  6 active torsions:
REMARK  status: ('A' for Active; 'I' for Inactive)
REMARK    1  A    between atoms: S_2  and  N_4
REMARK    2  A    between atoms: S_2  and  C_15
REMARK    3  A    between atoms: N_4  and  C_5
REMARK    4  A    between atoms: C_5  and  C_6
REMARK    5  A    between atoms: C_6  and  O_7
REMARK    6  A    between atoms: O_7  and  C_8
REMARK                            x       y       z     vdW  Elec       q    Type
REMARK                         _______ _______ _______ _____ _____    ______ ____
ROOT
ATOM      1  N   UNL     1       7.357   6.973  16.545  0.00  0.00    +0.000 NA
ATOM      2  H   UNL     1       6.672   7.582  16.103  0.00  0.00    +0.000 HD
ENDROOT
BRANCH   1   4
ATOM      3  O   UNL     1       6.850   5.084  14.935  0.00  0.00    +0.000 OA
ATOM      4  S   UNL     1       6.952   5.340  16.355  0.00  0.00    +0.000 S 
ATOM      5  O   UNL     1       7.802   4.565  17.226  0.00  0.00    +0.000 OA
BRANCH   4   6
ATOM      6  C   UNL     1       5.299   5.307  17.005  0.00  0.00    +0.000 A 
ATOM      7  C   UNL     1       4.632   6.500  17.288  0.00  0.00    +0.000 A 
ATOM      8  C   UNL     1       3.324   6.449  17.771  0.00  0.00    +0.000 A 
ATOM      9  C   UNL     1       2.693   5.219  17.965  0.00  0.00    +0.000 A 
ATOM     10  C   UNL     1       3.373   4.035  17.681  0.00  0.00    +0.000 A 
ATOM     11 BR   UNL     1       2.510   2.373  17.926  0.00  0.00    +0.000 Br
ATOM     12  C   UNL     1       4.682   4.067  17.207  0.00  0.00    +0.000 A 
ENDBRANCH   4   6
ENDBRANCH   1   4
BRANCH   1  13
ATOM     13  C   UNL     1       7.811   7.369  17.893  0.00  0.00    +0.000 C 
BRANCH  13  14
ATOM     14  C   UNL     1       8.122   8.861  17.935  0.00  0.00    +0.000 C 
BRANCH  14  15
ATOM     15  O   UNL     1       8.866   9.144  19.123  0.00  0.00    +0.000 OA
BRANCH  15  16
ATOM     16  C   UNL     1       9.340  10.423  19.240  0.00  0.00    +0.000 A 
ATOM     17  C   UNL     1       9.707  11.034  18.033  0.00  0.00    +0.000 A 
ATOM     18  C   UNL     1      10.198  12.343  18.023  0.00  0.00    +0.000 A 
ATOM     19  C   UNL     1      10.329  13.053  19.216  0.00  0.00    +0.000 A 
ATOM     20  C   UNL     1       9.977  12.450  20.419  0.00  0.00    +0.000 A 
ATOM     21  C   UNL     1       9.491  11.148  20.428  0.00  0.00    +0.000 A 
ATOM     22  F   UNL     1       9.182  10.626  21.625  0.00  0.00    +0.000 F 
ENDBRANCH  15  16
ENDBRANCH  14  15
ENDBRANCH  13  14
ENDBRANCH   1  13
TORSDOF 6
ENDMDL
MODEL 5
REMARK VINA RESULT:      -7.2      4.965      6.884
REMARK  Name = 
REMARK  6 active torsions:
REMARK  status: ('A' for Active; 'I' for Inactive)
REMARK    1  A    between atoms: S_2  and  N_4
REMARK    2  A    between atoms: S_2  and  C_15
REMARK    3  A    between atoms: N_4  and  C_5
REMARK    4  A    between atoms: C_5  and  C_6
REMARK    5  A    between atoms: C_6  and  O_7
REMARK    6  A    between atoms: O_7  and  C_8
REMARK                            x       y       z     vdW  Elec       q    Type
REMARK                         _______ _______ _______ _____ _____    ______ ____
ROOT
ATOM      1  N   UNL     1       7.505   7.076  16.628  0.00  0.00    +0.000 NA
ATOM      2  H   UNL     1       6.989   7.748  16.063  0.00  0.00    +0.000 HD
ENDROOT
BRANCH   1   4
ATOM      3  O   UNL     1       6.382   5.351  15.153  0.00  0.00    +0.000 OA
ATOM      4  S   UNL     1       6.840   5.523  16.514  0.00  0.00    +0.000 S 
ATOM      5  O   UNL     1       7.748   4.602  17.153  0.00  0.00    +0.000 OA
BRANCH   4   6
ATOM      6  C   UNL     1       5.392   5.684  17.529  0.00  0.00    +0.000 A 
ATOM      7  C   UNL     1       5.129   4.749  18.532  0.00  0.00    +0.000 A 
ATOM      8  C   UNL     1       4.000   4.912  19.335  0.00  0.00    +0.000 A 
ATOM      9  C   UNL     1       3.148   5.999  19.137  0.00  0.00    +0.000 A 
ATOM     10  C   UNL     1       3.421   6.924  18.130  0.00  0.00    +0.000 A 
ATOM     11 BR   UNL     1       2.276   8.406  17.878  0.00  0.00    +0.000 Br
ATOM     12  C   UNL     1       4.538   6.772  17.313  0.00  0.00    +0.000 A 
ENDBRANCH   4   6
ENDBRANCH   1   4
BRANCH   1  13
ATOM     13  C   UNL     1       7.880   7.516  17.987  0.00  0.00    +0.000 C 
BRANCH  13  14
ATOM     14  C   UNL     1       8.226   9.001  17.990  0.00  0.00    +0.000 C 
BRANCH  14  15
ATOM     15  O   UNL     1       8.866   9.323  19.229  0.00  0.00    +0.000 OA
BRANCH  15  16
ATOM     16  C   UNL     1       9.452  10.559  19.296  0.00  0.00    +0.000 A 
ATOM     17  C   UNL     1       9.935  11.054  18.077  0.00  0.00    +0.000 A 
ATOM     18  C   UNL     1      10.547  12.309  18.016  0.00  0.00    +0.000 A 
ATOM     19  C   UNL     1      10.683  13.081  19.170  0.00  0.00    +0.000 A 
ATOM     20  C   UNL     1      10.215  12.591  20.385  0.00  0.00    +0.000 A 
ATOM     21  C   UNL     1       9.609  11.342  20.444  0.00  0.00    +0.000 A 
ATOM     22  F   UNL     1       9.192  10.929  21.651  0.00  0.00    +0.000 F 
ENDBRANCH  15  16
ENDBRANCH  14  15
ENDBRANCH  13  14
ENDBRANCH   1  13
TORSDOF 6
ENDMDL
MODEL 6
REMARK VINA RESULT:      -7.2      3.904      6.469
REMARK  Name = 
REMARK  6 active torsions:
REMARK  status: ('A' for Active; 'I' for Inactive)
REMARK    1  A    between atoms: S_2  and  N_4
REMARK    2  A    between atoms: S_2  and  C_15
REMARK    3  A    between atoms: N_4  and  C_5
REMARK    4  A    between atoms: C_5  and  C_6
REMARK    5  A    between atoms: C_6  and  O_7
REMARK    6  A    between atoms: O_7  and  C_8
REMARK                            x       y       z     vdW  Elec       q    Type
REMARK                         _______ _______ _______ _____ _____    ______ ____
ROOT
ATOM      1  N   UNL     1       2.607   3.767  18.743  0.00  0.00    +0.000 NA
ATOM      2  H   UNL     1       2.008   3.641  17.929  0.00  0.00    +0.000 HD
ENDROOT
BRANCH   1   4
ATOM      3  O   UNL     1       4.714   2.937  19.877  0.00  0.00    +0.000 OA
ATOM      4  S   UNL     1       4.060   2.912  18.587  0.00  0.00    +0.000 S 
ATOM      5  O   UNL     1       3.782   1.687  17.878  0.00  0.00    +0.000 OA
BRANCH   4   6
ATOM      6  C   UNL     1       4.988   3.985  17.518  0.00  0.00    +0.000 A 
ATOM      7  C   UNL     1       4.819   3.915  16.134  0.00  0.00    +0.000 A 
ATOM      8  C   UNL     1       5.538   4.788  15.317  0.00  0.00    +0.000 A 
ATOM      9  C   UNL     1       6.413   5.719  15.880  0.00  0.00    +0.000 A 
ATOM     10  C   UNL     1       6.573   5.775  17.264  0.00  0.00    +0.000 A 
ATOM     11 BR   UNL     1       7.743   7.049  18.024  0.00  0.00    +0.000 Br
ATOM     12  C   UNL     1       5.871   4.905  18.094  0.00  0.00    +0.000 A 
ENDBRANCH   4   6
ENDBRANCH   1   4
BRANCH   1  13
ATOM     13  C   UNL     1       1.946   3.676  20.061  0.00  0.00    +0.000 C 
BRANCH  13  14
ATOM     14  C   UNL     1       1.658   5.068  20.611  0.00  0.00    +0.000 C 
BRANCH  14  15
ATOM     15  O   UNL     1       2.700   5.954  20.193  0.00  0.00    +0.000 OA
BRANCH  15  16
ATOM     16  C   UNL     1       2.290   7.124  19.611  0.00  0.00    +0.000 A 
ATOM     17  C   UNL     1       1.560   7.980  20.446  0.00  0.00    +0.000 A 
ATOM     18  C   UNL     1       1.094   9.209  19.967  0.00  0.00    +0.000 A 
ATOM     19  C   UNL     1       1.352   9.593  18.651  0.00  0.00    +0.000 A 
ATOM     20  C   UNL     1       2.068   8.743  17.814  0.00  0.00    +0.000 A 
ATOM     21  C   UNL     1       2.528   7.522  18.290  0.00  0.00    +0.000 A 
ATOM     22  F   UNL     1       3.200   6.749  17.423  0.00  0.00    +0.000 F 
ENDBRANCH  15  16
ENDBRANCH  14  15
ENDBRANCH  13  14
ENDBRANCH   1  13
TORSDOF 6
ENDMDL
MODEL 7
REMARK VINA RESULT:      -7.2      4.545      6.516
REMARK  Name = 
REMARK  6 active torsions:
REMARK  status: ('A' for Active; 'I' for Inactive)
REMARK    1  A    between atoms: S_2  and  N_4
REMARK    2  A    between atoms: S_2  and  C_15
REMARK    3  A    between atoms: N_4  and  C_5
REMARK    4  A    between atoms: C_5  and  C_6
REMARK    5  A    between atoms: C_6  and  O_7
REMARK    6  A    between atoms: O_7  and  C_8
REMARK                            x       y       z     vdW  Elec       q    Type
REMARK                         _______ _______ _______ _____ _____    ______ ____
ROOT
ATOM      1  N   UNL     1       7.422   6.572  18.155  0.00  0.00    +0.000 NA
ATOM      2  H   UNL     1       8.016   6.246  18.915  0.00  0.00    +0.000 HD
ENDROOT
BRANCH   1   4
ATOM      3  O   UNL     1       7.226   6.006  15.694  0.00  0.00    +0.000 OA
ATOM      4  S   UNL     1       7.181   5.367  16.991  0.00  0.00    +0.000 S 
ATOM      5  O   UNL     1       8.018   4.243  17.333  0.00  0.00    +0.000 OA
BRANCH   4   6
ATOM      6  C   UNL     1       5.488   4.921  17.288  0.00  0.00    +0.000 A 
ATOM      7  C   UNL     1       4.934   3.805  16.658  0.00  0.00    +0.000 A 
ATOM      8  C   UNL     1       3.609   3.459  16.930  0.00  0.00    +0.000 A 
ATOM      9  C   UNL     1       2.853   4.220  17.822  0.00  0.00    +0.000 A 
ATOM     10  C   UNL     1       3.419   5.333  18.442  0.00  0.00    +0.000 A 
ATOM     11 BR   UNL     1       2.398   6.349  19.665  0.00  0.00    +0.000 Br
ATOM     12  C   UNL     1       4.736   5.699  18.175  0.00  0.00    +0.000 A 
ENDBRANCH   4   6
ENDBRANCH   1   4
BRANCH   1  13
ATOM     13  C   UNL     1       7.712   7.922  17.632  0.00  0.00    +0.000 C 
BRANCH  13  14
ATOM     14  C   UNL     1       8.583   8.699  18.612  0.00  0.00    +0.000 C 
BRANCH  14  15
ATOM     15  O   UNL     1       8.705  10.048  18.153  0.00  0.00    +0.000 OA
BRANCH  15  16
ATOM     16  C   UNL     1       9.584  10.838  18.845  0.00  0.00    +0.000 A 
ATOM     17  C   UNL     1       9.281  11.016  20.202  0.00  0.00    +0.000 A 
ATOM     18  C   UNL     1      10.109  11.796  21.015  0.00  0.00    +0.000 A 
ATOM     19  C   UNL     1      11.245  12.405  20.481  0.00  0.00    +0.000 A 
ATOM     20  C   UNL     1      11.546  12.241  19.133  0.00  0.00    +0.000 A 
ATOM     21  C   UNL     1      10.720  11.468  18.326  0.00  0.00    +0.000 A 
ATOM     22  F   UNL     1      11.065  11.363  17.033  0.00  0.00    +0.000 F 
ENDBRANCH  15  16
ENDBRANCH  14  15
ENDBRANCH  13  14
ENDBRANCH   1  13
TORSDOF 6
ENDMDL
MODEL 8
REMARK VINA RESULT:      -7.1      4.174      6.632
REMARK  Name = 
REMARK  6 active torsions:
REMARK  status: ('A' for Active; 'I' for Inactive)
REMARK    1  A    between atoms: S_2  and  N_4
REMARK    2  A    between atoms: S_2  and  C_15
REMARK    3  A    between atoms: N_4  and  C_5
REMARK    4  A    between atoms: C_5  and  C_6
REMARK    5  A    between atoms: C_6  and  O_7
REMARK    6  A    between atoms: O_7  and  C_8
REMARK                            x       y       z     vdW  Elec       q    Type
REMARK                         _______ _______ _______ _____ _____    ______ ____
ROOT
ATOM      1  N   UNL     1       3.645   3.450  19.567  0.00  0.00    +0.000 NA
ATOM      2  H   UNL     1       4.270   4.246  19.681  0.00  0.00    +0.000 HD
ENDROOT
BRANCH   1   4
ATOM      3  O   UNL     1       3.673   1.667  17.768  0.00  0.00    +0.000 OA
ATOM      4  S   UNL     1       3.402   3.078  17.933  0.00  0.00    +0.000 S 
ATOM      5  O   UNL     1       2.161   3.686  17.517  0.00  0.00    +0.000 OA
BRANCH   4   6
ATOM      6  C   UNL     1       4.744   3.954  17.168  0.00  0.00    +0.000 A 
ATOM      7  C   UNL     1       4.944   3.867  15.789  0.00  0.00    +0.000 A 
ATOM      8  C   UNL     1       5.989   4.588  15.207  0.00  0.00    +0.000 A 
ATOM      9  C   UNL     1       6.818   5.385  15.996  0.00  0.00    +0.000 A 
ATOM     10  C   UNL     1       6.607   5.461  17.373  0.00  0.00    +0.000 A 
ATOM     11 BR   UNL     1       7.719   6.557  18.436  0.00  0.00    +0.000 Br
ATOM     12  C   UNL     1       5.576   4.741  17.972  0.00  0.00    +0.000 A 
ENDBRANCH   4   6
ENDBRANCH   1   4
BRANCH   1  13
ATOM     13  C   UNL     1       2.436   3.440  20.415  0.00  0.00    +0.000 C 
BRANCH  13  14
ATOM     14  C   UNL     1       1.918   4.859  20.622  0.00  0.00    +0.000 C 
BRANCH  14  15
ATOM     15  O   UNL     1       2.922   5.784  20.193  0.00  0.00    +0.000 OA
BRANCH  15  16
ATOM     16  C   UNL     1       2.463   6.952  19.646  0.00  0.00    +0.000 A 
ATOM     17  C   UNL     1       2.849   7.178  18.318  0.00  0.00    +0.000 A 
ATOM     18  C   UNL     1       2.435   8.334  17.648  0.00  0.00    +0.000 A 
ATOM     19  C   UNL     1       1.635   9.274  18.297  0.00  0.00    +0.000 A 
ATOM     20  C   UNL     1       1.257   9.060  19.620  0.00  0.00    +0.000 A 
ATOM     21  C   UNL     1       1.671   7.913  20.284  0.00  0.00    +0.000 A 
ATOM     22  F   UNL     1       1.278   7.779  21.561  0.00  0.00    +0.000 F 
ENDBRANCH  15  16
ENDBRANCH  14  15
ENDBRANCH  13  14
ENDBRANCH   1  13
TORSDOF 6
ENDMDL
MODEL 9
REMARK VINA RESULT:      -7.1      4.650      6.446
REMARK  Name = 
REMARK  6 active torsions:
REMARK  status: ('A' for Active; 'I' for Inactive)
REMARK    1  A    between atoms: S_2  and  N_4
REMARK    2  A    between atoms: S_2  and  C_15
REMARK    3  A    between atoms: N_4  and  C_5
REMARK    4  A    between atoms: C_5  and  C_6
REMARK    5  A    between atoms: C_6  and  O_7
REMARK    6  A    between atoms: O_7  and  C_8
REMARK                            x       y       z     vdW  Elec       q    Type
REMARK                         _______ _______ _______ _____ _____    ______ ____
ROOT
ATOM      1  N   UNL     1       7.599   6.854  17.117  0.00  0.00    +0.000 NA
ATOM      2  H   UNL     1       6.850   7.261  16.561  0.00  0.00    +0.000 HD
ENDROOT
BRANCH   1   4
ATOM      3  O   UNL     1       7.396   4.485  16.244  0.00  0.00    +0.000 OA
ATOM      4  S   UNL     1       7.293   5.229  17.480  0.00  0.00    +0.000 S 
ATOM      5  O   UNL     1       8.047   4.886  18.661  0.00  0.00    +0.000 OA
BRANCH   4   6
ATOM      6  C   UNL     1       5.569   5.281  17.907  0.00  0.00    +0.000 A 
ATOM      7  C   UNL     1       4.760   6.316  17.436  0.00  0.00    +0.000 A 
ATOM      8  C   UNL     1       3.403   6.320  17.762  0.00  0.00    +0.000 A 
ATOM      9  C   UNL     1       2.865   5.299  18.547  0.00  0.00    +0.000 A 
ATOM     10  C   UNL     1       3.687   4.272  19.013  0.00  0.00    +0.000 A 
ATOM     11 BR   UNL     1       2.952   2.881  20.058  0.00  0.00    +0.000 Br
ATOM     12  C   UNL     1       5.045   4.258  18.705  0.00  0.00    +0.000 A 
ENDBRANCH   4   6
ENDBRANCH   1   4
BRANCH   1  13
ATOM     13  C   UNL     1       8.108   7.676  18.233  0.00  0.00    +0.000 C 
BRANCH  13  14
ATOM     14  C   UNL     1       8.234   9.134  17.807  0.00  0.00    +0.000 C 
BRANCH  14  15
ATOM     15  O   UNL     1       8.700   9.902  18.921  0.00  0.00    +0.000 OA
BRANCH  15  16
ATOM     16  C   UNL     1       9.418  11.026  18.613  0.00  0.00    +0.000 A 
ATOM     17  C   UNL     1      10.689  11.099  19.199  0.00  0.00    +0.000 A 
ATOM     18  C   UNL     1      11.520  12.196  18.953  0.00  0.00    +0.000 A 
ATOM     19  C   UNL     1      11.091  13.230  18.121  0.00  0.00    +0.000 A 
ATOM     20  C   UNL     1       9.826  13.169  17.544  0.00  0.00    +0.000 A 
ATOM     21  C   UNL     1       9.001  12.079  17.791  0.00  0.00    +0.000 A 
ATOM     22  F   UNL     1       7.791  12.093  17.211  0.00  0.00    +0.000 F 
ENDBRANCH  15  16
ENDBRANCH  14  15
ENDBRANCH  13  14
ENDBRANCH   1  13
TORSDOF 6
ENDMDL
