MODEL 1
REMARK VINA RESULT:      -8.7      0.000      0.000
REMARK  Name = 
REMARK  7 active torsions:
REMARK  status: ('A' for Active; 'I' for Inactive)
REMARK    1  A    between atoms: C_2  and  C_3
REMARK    2  A    between atoms: C_7  and  N_8
REMARK    3  A    between atoms: N_11  and  C_12
REMARK    4  A    between atoms: C_17  and  C_18
REMARK    5  A    between atoms: C_18  and  N_19
REMARK    6  A    between atoms: C_22  and  C_23
REMARK    7  A    between atoms: C_23  and  C_24
REMARK                            x       y       z     vdW  Elec       q    Type
REMARK                         _______ _______ _______ _____ _____    ______ ____
ROOT
ATOM      1  C   UNL     1       4.122   4.607  18.938  0.00  0.00    +0.000 A 
ATOM      2  C   UNL     1       4.317   3.617  19.916  0.00  0.00    +0.000 A 
ATOM      3  C   UNL     1       3.240   3.198  20.660  0.00  0.00    +0.000 A 
ATOM      4  C   UNL     1       1.995   3.742  20.499  0.00  0.00    +0.000 A 
ATOM      5  C   UNL     1       1.777   4.769  19.606  0.00  0.00    +0.000 A 
ATOM      6  C   UNL     1       2.850   5.227  18.806  0.00  0.00    +0.000 A 
ATOM      7  O   UNL     1       1.066   3.165  21.302  0.00  0.00    +0.000 OA
ATOM      8  C   UNL     1       1.855   2.120  21.909  0.00  0.00    +0.000 C 
ATOM      9  O   UNL     1       3.260   2.223  21.609  0.00  0.00    +0.000 OA
ENDROOT
BRANCH   1  13
ATOM     10  N   UNL     1       6.348   5.128  16.103  0.00  0.00    +0.000 N 
ATOM     11  C   UNL     1       5.287   4.513  16.749  0.00  0.00    +0.000 C 
ATOM     12  O   UNL     1       4.551   3.686  16.226  0.00  0.00    +0.000 OA
ATOM     13  N   UNL     1       5.169   4.972  18.056  0.00  0.00    +0.000 N 
ATOM     14  H   UNL     1       6.975   5.645  16.699  0.00  0.00    +0.000 HD
ATOM     15  H   UNL     1       5.575   5.884  18.255  0.00  0.00    +0.000 HD
BRANCH  10  20
ATOM     16  C   UNL     1       6.333   3.769  12.664  0.00  0.00    +0.000 A 
ATOM     17  C   UNL     1       7.353   4.496  12.048  0.00  0.00    +0.000 A 
ATOM     18  C   UNL     1       8.082   5.422  12.788  0.00  0.00    +0.000 A 
ATOM     19  C   UNL     1       7.779   5.637  14.137  0.00  0.00    +0.000 A 
ATOM     20  C   UNL     1       6.741   4.935  14.759  0.00  0.00    +0.000 A 
ATOM     21  C   UNL     1       6.035   3.982  14.018  0.00  0.00    +0.000 A 
BRANCH  16  23
ATOM     22  N   UNL     1       4.979   2.029  11.296  0.00  0.00    +0.000 NA
ATOM     23  C   UNL     1       5.579   2.812  11.912  0.00  0.00    +0.000 C 
ENDBRANCH  16  23
ENDBRANCH  10  20
ENDBRANCH   1  13
BRANCH   6  24
ATOM     24  C   UNL     1       2.556   6.435  17.929  0.00  0.00    +0.000 C 
BRANCH  24  25
ATOM     25  N   UNL     1       2.576   7.793  18.546  0.00  0.00    +0.000 NA
ATOM     26  C   UNL     1       2.370   8.827  17.515  0.00  0.00    +0.000 C 
ATOM     27  C   UNL     1       2.060  10.199  18.124  0.00  0.00    +0.000 C 
ATOM     28  C   UNL     1       0.754  10.164  18.927  0.00  0.00    +0.000 C 
ATOM     29  C   UNL     1       0.973   9.147  20.053  0.00  0.00    +0.000 C 
ATOM     30  C   UNL     1       1.529   7.792  19.599  0.00  0.00    +0.000 C 
BRANCH  28  31
ATOM     31  C   UNL     1      -0.434   9.929  17.962  0.00  0.00    +0.000 C 
BRANCH  31  32
ATOM     32  C   UNL     1      -1.740  10.596  18.298  0.00  0.00    +0.000 A 
ATOM     33  C   UNL     1      -1.797  11.658  19.211  0.00  0.00    +0.000 A 
ATOM     34  C   UNL     1      -3.012  12.292  19.481  0.00  0.00    +0.000 A 
ATOM     35  C   UNL     1      -4.178  11.871  18.840  0.00  0.00    +0.000 A 
ATOM     36  C   UNL     1      -4.125  10.834  17.913  0.00  0.00    +0.000 A 
ATOM     37  C   UNL     1      -2.912  10.203  17.639  0.00  0.00    +0.000 A 
ENDBRANCH  31  32
ENDBRANCH  28  31
ENDBRANCH  24  25
ENDBRANCH   6  24
TORSDOF 7
ENDMDL
MODEL 2
REMARK VINA RESULT:      -8.5      5.254      8.816
REMARK  Name = 
REMARK  7 active torsions:
REMARK  status: ('A' for Active; 'I' for Inactive)
REMARK    1  A    between atoms: C_2  and  C_3
REMARK    2  A    between atoms: C_7  and  N_8
REMARK    3  A    between atoms: N_11  and  C_12
REMARK    4  A    between atoms: C_17  and  C_18
REMARK    5  A    between atoms: C_18  and  N_19
REMARK    6  A    between atoms: C_22  and  C_23
REMARK    7  A    between atoms: C_23  and  C_24
REMARK                            x       y       z     vdW  Elec       q    Type
REMARK                         _______ _______ _______ _____ _____    ______ ____
ROOT
ATOM      1  C   UNL     1      -0.000  11.291  18.801  0.00  0.00    +0.000 A 
ATOM      2  C   UNL     1      -1.378  11.023  18.831  0.00  0.00    +0.000 A 
ATOM      3  C   UNL     1      -2.216  11.924  19.444  0.00  0.00    +0.000 A 
ATOM      4  C   UNL     1      -1.741  13.054  20.053  0.00  0.00    +0.000 A 
ATOM      5  C   UNL     1      -0.389  13.315  20.115  0.00  0.00    +0.000 A 
ATOM      6  C   UNL     1       0.514  12.425  19.486  0.00  0.00    +0.000 A 
ATOM      7  O   UNL     1      -2.732  13.826  20.565  0.00  0.00    +0.000 OA
ATOM      8  C   UNL     1      -3.894  13.101  20.109  0.00  0.00    +0.000 C 
ATOM      9  O   UNL     1      -3.571  11.827  19.518  0.00  0.00    +0.000 OA
ENDROOT
BRANCH   1  13
ATOM     10  N   UNL     1       2.198   8.656  17.581  0.00  0.00    +0.000 N 
ATOM     11  C   UNL     1       1.472   9.307  18.565  0.00  0.00    +0.000 C 
ATOM     12  O   UNL     1       1.358   8.902  19.716  0.00  0.00    +0.000 OA
ATOM     13  N   UNL     1       0.884  10.463  18.065  0.00  0.00    +0.000 N 
ATOM     14  H   UNL     1       2.357   9.187  16.739  0.00  0.00    +0.000 HD
ATOM     15  H   UNL     1       0.740  10.500  17.058  0.00  0.00    +0.000 HD
BRANCH  10  20
ATOM     16  C   UNL     1       4.978   6.227  17.369  0.00  0.00    +0.000 A 
ATOM     17  C   UNL     1       4.441   5.098  17.992  0.00  0.00    +0.000 A 
ATOM     18  C   UNL     1       3.129   5.127  18.455  0.00  0.00    +0.000 A 
ATOM     19  C   UNL     1       2.361   6.287  18.316  0.00  0.00    +0.000 A 
ATOM     20  C   UNL     1       2.896   7.434  17.718  0.00  0.00    +0.000 A 
ATOM     21  C   UNL     1       4.204   7.387  17.226  0.00  0.00    +0.000 A 
BRANCH  16  23
ATOM     22  N   UNL     1       7.415   6.188  16.480  0.00  0.00    +0.000 NA
ATOM     23  C   UNL     1       6.326   6.207  16.886  0.00  0.00    +0.000 C 
ENDBRANCH  16  23
ENDBRANCH  10  20
ENDBRANCH   1  13
BRANCH   6  24
ATOM     24  C   UNL     1       1.992  12.722  19.694  0.00  0.00    +0.000 C 
BRANCH  24  25
ATOM     25  N   UNL     1       2.474  14.124  19.521  0.00  0.00    +0.000 NA
ATOM     26  C   UNL     1       3.793  14.294  20.159  0.00  0.00    +0.000 C 
ATOM     27  C   UNL     1       4.474  15.601  19.741  0.00  0.00    +0.000 C 
ATOM     28  C   UNL     1       4.750  15.622  18.232  0.00  0.00    +0.000 C 
ATOM     29  C   UNL     1       3.382  15.521  17.547  0.00  0.00    +0.000 C 
ATOM     30  C   UNL     1       2.486  14.387  18.061  0.00  0.00    +0.000 C 
BRANCH  28  31
ATOM     31  C   UNL     1       5.809  14.546  17.891  0.00  0.00    +0.000 C 
BRANCH  31  32
ATOM     32  C   UNL     1       7.257  14.923  18.057  0.00  0.00    +0.000 A 
ATOM     33  C   UNL     1       8.262  13.947  18.077  0.00  0.00    +0.000 A 
ATOM     34  C   UNL     1       9.604  14.319  18.191  0.00  0.00    +0.000 A 
ATOM     35  C   UNL     1       9.951  15.666  18.283  0.00  0.00    +0.000 A 
ATOM     36  C   UNL     1       8.960  16.644  18.238  0.00  0.00    +0.000 A 
ATOM     37  C   UNL     1       7.620  16.274  18.119  0.00  0.00    +0.000 A 
ENDBRANCH  31  32
ENDBRANCH  28  31
ENDBRANCH  24  25
ENDBRANCH   6  24
TORSDOF 7
ENDMDL
MODEL 3
REMARK VINA RESULT:      -8.4      4.698      7.618
REMARK  Name = 
REMARK  7 active torsions:
REMARK  status: ('A' for Active; 'I' for Inactive)
REMARK    1  A    between atoms: C_2  and  C_3
REMARK    2  A    between atoms: C_7  and  N_8
REMARK    3  A    between atoms: N_11  and  C_12
REMARK    4  A    between atoms: C_17  and  C_18
REMARK    5  A    between atoms: C_18  and  N_19
REMARK    6  A    between atoms: C_22  and  C_23
REMARK    7  A    between atoms: C_23  and  C_24
REMARK                            x       y       z     vdW  Elec       q    Type
REMARK                         _______ _______ _______ _____ _____    ______ ____
ROOT
ATOM      1  C   UNL     1      -0.369  10.879  21.940  0.00  0.00    +0.000 A 
ATOM      2  C   UNL     1      -1.174  10.822  23.090  0.00  0.00    +0.000 A 
ATOM      3  C   UNL     1      -2.269  11.648  23.175  0.00  0.00    +0.000 A 
ATOM      4  C   UNL     1      -2.576  12.545  22.189  0.00  0.00    +0.000 A 
ATOM      5  C   UNL     1      -1.769  12.690  21.082  0.00  0.00    +0.000 A 
ATOM      6  C   UNL     1      -0.636  11.853  20.940  0.00  0.00    +0.000 A 
ATOM      7  O   UNL     1      -3.714  13.237  22.449  0.00  0.00    +0.000 OA
ATOM      8  C   UNL     1      -4.144  12.589  23.665  0.00  0.00    +0.000 C 
ATOM      9  O   UNL     1      -3.164  11.677  24.199  0.00  0.00    +0.000 OA
ENDROOT
BRANCH   1  13
ATOM     10  N   UNL     1       1.768   8.086  20.994  0.00  0.00    +0.000 N 
ATOM     11  C   UNL     1       0.541   8.716  21.137  0.00  0.00    +0.000 C 
ATOM     12  O   UNL     1      -0.522   8.239  20.761  0.00  0.00    +0.000 OA
ATOM     13  N   UNL     1       0.688   9.956  21.746  0.00  0.00    +0.000 N 
ATOM     14  H   UNL     1       2.530   8.505  21.505  0.00  0.00    +0.000 HD
ATOM     15  H   UNL     1       1.606  10.390  21.676  0.00  0.00    +0.000 HD
BRANCH  10  20
ATOM     16  C   UNL     1       1.967   4.413  20.625  0.00  0.00    +0.000 A 
ATOM     17  C   UNL     1       2.358   4.263  19.293  0.00  0.00    +0.000 A 
ATOM     18  C   UNL     1       2.595   5.393  18.515  0.00  0.00    +0.000 A 
ATOM     19  C   UNL     1       2.423   6.670  19.060  0.00  0.00    +0.000 A 
ATOM     20  C   UNL     1       2.006   6.833  20.386  0.00  0.00    +0.000 A 
ATOM     21  C   UNL     1       1.800   5.693  21.171  0.00  0.00    +0.000 A 
BRANCH  16  23
ATOM     22  N   UNL     1       1.533   2.325  22.103  0.00  0.00    +0.000 NA
ATOM     23  C   UNL     1       1.723   3.257  21.435  0.00  0.00    +0.000 C 
ENDBRANCH  16  23
ENDBRANCH  10  20
ENDBRANCH   1  13
BRANCH   6  24
ATOM     24  C   UNL     1       0.263  12.149  19.749  0.00  0.00    +0.000 C 
BRANCH  24  25
ATOM     25  N   UNL     1      -0.110  11.600  18.412  0.00  0.00    +0.000 NA
ATOM     26  C   UNL     1      -0.644  10.232  18.552  0.00  0.00    +0.000 C 
ATOM     27  C   UNL     1      -1.335   9.747  17.273  0.00  0.00    +0.000 C 
ATOM     28  C   UNL     1      -2.549  10.621  16.936  0.00  0.00    +0.000 C 
ATOM     29  C   UNL     1      -2.006  12.038  16.713  0.00  0.00    +0.000 C 
ATOM     30  C   UNL     1      -1.080  12.555  17.821  0.00  0.00    +0.000 C 
BRANCH  28  31
ATOM     31  C   UNL     1      -3.636  10.428  18.022  0.00  0.00    +0.000 C 
BRANCH  31  32
ATOM     32  C   UNL     1      -4.693  11.493  18.139  0.00  0.00    +0.000 A 
ATOM     33  C   UNL     1      -4.932  12.144  19.357  0.00  0.00    +0.000 A 
ATOM     34  C   UNL     1      -5.888  13.159  19.438  0.00  0.00    +0.000 A 
ATOM     35  C   UNL     1      -6.611  13.531  18.305  0.00  0.00    +0.000 A 
ATOM     36  C   UNL     1      -6.363  12.906  17.086  0.00  0.00    +0.000 A 
ATOM     37  C   UNL     1      -5.403  11.896  17.002  0.00  0.00    +0.000 A 
ENDBRANCH  31  32
ENDBRANCH  28  31
ENDBRANCH  24  25
ENDBRANCH   6  24
TORSDOF 7
ENDMDL
MODEL 4
REMARK VINA RESULT:      -8.3      3.755      6.798
REMARK  Name = 
REMARK  7 active torsions:
REMARK  status: ('A' for Active; 'I' for Inactive)
REMARK    1  A    between atoms: C_2  and  C_3
REMARK    2  A    between atoms: C_7  and  N_8
REMARK    3  A    between atoms: N_11  and  C_12
REMARK    4  A    between atoms: C_17  and  C_18
REMARK    5  A    between atoms: C_18  and  N_19
REMARK    6  A    between atoms: C_22  and  C_23
REMARK    7  A    between atoms: C_23  and  C_24
REMARK                            x       y       z     vdW  Elec       q    Type
REMARK                         _______ _______ _______ _____ _____    ______ ____
ROOT
ATOM      1  C   UNL     1      -0.043  10.235  18.021  0.00  0.00    +0.000 A 
ATOM      2  C   UNL     1      -1.182   9.765  17.349  0.00  0.00    +0.000 A 
ATOM      3  C   UNL     1      -2.393  10.371  17.588  0.00  0.00    +0.000 A 
ATOM      4  C   UNL     1      -2.522  11.395  18.487  0.00  0.00    +0.000 A 
ATOM      5  C   UNL     1      -1.445  11.835  19.226  0.00  0.00    +0.000 A 
ATOM      6  C   UNL     1      -0.174  11.252  19.006  0.00  0.00    +0.000 A 
ATOM      7  O   UNL     1      -3.789  11.878  18.548  0.00  0.00    +0.000 OA
ATOM      8  C   UNL     1      -4.416  11.107  17.502  0.00  0.00    +0.000 C 
ATOM      9  O   UNL     1      -3.572  10.059  16.985  0.00  0.00    +0.000 OA
ENDROOT
BRANCH   1  13
ATOM     10  N   UNL     1       2.998   8.268  17.641  0.00  0.00    +0.000 N 
ATOM     11  C   UNL     1       1.766   8.547  18.210  0.00  0.00    +0.000 C 
ATOM     12  O   UNL     1       1.214   7.832  19.036  0.00  0.00    +0.000 OA
ATOM     13  N   UNL     1       1.245   9.734  17.707  0.00  0.00    +0.000 N 
ATOM     14  H   UNL     1       3.414   9.024  17.119  0.00  0.00    +0.000 HD
ATOM     15  H   UNL     1       1.592  10.033  16.799  0.00  0.00    +0.000 HD
BRANCH  10  20
ATOM     16  C   UNL     1       5.649   5.742  17.131  0.00  0.00    +0.000 A 
ATOM     17  C   UNL     1       5.530   4.944  18.271  0.00  0.00    +0.000 A 
ATOM     18  C   UNL     1       4.535   5.222  19.204  0.00  0.00    +0.000 A 
ATOM     19  C   UNL     1       3.674   6.307  19.009  0.00  0.00    +0.000 A 
ATOM     20  C   UNL     1       3.800   7.130  17.885  0.00  0.00    +0.000 A 
ATOM     21  C   UNL     1       4.781   6.825  16.935  0.00  0.00    +0.000 A 
BRANCH  16  23
ATOM     22  N   UNL     1       7.491   5.222  15.379  0.00  0.00    +0.000 NA
ATOM     23  C   UNL     1       6.667   5.463  16.164  0.00  0.00    +0.000 C 
ENDBRANCH  16  23
ENDBRANCH  10  20
ENDBRANCH   1  13
BRANCH   6  24
ATOM     24  C   UNL     1       0.937  11.713  19.937  0.00  0.00    +0.000 C 
BRANCH  24  25
ATOM     25  N   UNL     1       0.623  11.929  21.380  0.00  0.00    +0.000 NA
ATOM     26  C   UNL     1      -0.147  13.176  21.554  0.00  0.00    +0.000 C 
ATOM     27  C   UNL     1      -0.768  13.281  22.951  0.00  0.00    +0.000 C 
ATOM     28  C   UNL     1      -1.773  12.149  23.194  0.00  0.00    +0.000 C 
ATOM     29  C   UNL     1      -0.978  10.843  23.091  0.00  0.00    +0.000 C 
ATOM     30  C   UNL     1      -0.103  10.718  21.838  0.00  0.00    +0.000 C 
BRANCH  28  31
ATOM     31  C   UNL     1      -2.988  12.331  22.252  0.00  0.00    +0.000 C 
BRANCH  31  32
ATOM     32  C   UNL     1      -4.022  13.351  22.646  0.00  0.00    +0.000 A 
ATOM     33  C   UNL     1      -4.008  14.643  22.104  0.00  0.00    +0.000 A 
ATOM     34  C   UNL     1      -5.000  15.564  22.451  0.00  0.00    +0.000 A 
ATOM     35  C   UNL     1      -6.012  15.201  23.338  0.00  0.00    +0.000 A 
ATOM     36  C   UNL     1      -6.048  13.911  23.862  0.00  0.00    +0.000 A 
ATOM     37  C   UNL     1      -5.061  12.989  23.512  0.00  0.00    +0.000 A 
ENDBRANCH  31  32
ENDBRANCH  28  31
ENDBRANCH  24  25
ENDBRANCH   6  24
TORSDOF 7
ENDMDL
MODEL 5
REMARK VINA RESULT:      -8.3      3.725      6.665
REMARK  Name = 
REMARK  7 active torsions:
REMARK  status: ('A' for Active; 'I' for Inactive)
REMARK    1  A    between atoms: C_2  and  C_3
REMARK    2  A    between atoms: C_7  and  N_8
REMARK    3  A    between atoms: N_11  and  C_12
REMARK    4  A    between atoms: C_17  and  C_18
REMARK    5  A    between atoms: C_18  and  N_19
REMARK    6  A    between atoms: C_22  and  C_23
REMARK    7  A    between atoms: C_23  and  C_24
REMARK                            x       y       z     vdW  Elec       q    Type
REMARK                         _______ _______ _______ _____ _____    ______ ____
ROOT
ATOM      1  C   UNL     1       0.400  10.122  18.329  0.00  0.00    +0.000 A 
ATOM      2  C   UNL     1      -0.623   9.527  17.573  0.00  0.00    +0.000 A 
ATOM      3  C   UNL     1      -1.846  10.150  17.502  0.00  0.00    +0.000 A 
ATOM      4  C   UNL     1      -2.103  11.314  18.174  0.00  0.00    +0.000 A 
ATOM      5  C   UNL     1      -1.154  11.890  18.990  0.00  0.00    +0.000 A 
ATOM      6  C   UNL     1       0.126  11.294  19.086  0.00  0.00    +0.000 A 
ATOM      7  O   UNL     1      -3.355  11.783  17.943  0.00  0.00    +0.000 OA
ATOM      8  C   UNL     1      -3.816  10.833  16.959  0.00  0.00    +0.000 C 
ATOM      9  O   UNL     1      -2.916   9.722  16.779  0.00  0.00    +0.000 OA
ENDROOT
BRANCH   1  13
ATOM     10  N   UNL     1       3.403   8.104  17.921  0.00  0.00    +0.000 N 
ATOM     11  C   UNL     1       2.031   8.298  17.922  0.00  0.00    +0.000 C 
ATOM     12  O   UNL     1       1.217   7.442  17.599  0.00  0.00    +0.000 OA
ATOM     13  N   UNL     1       1.713   9.591  18.322  0.00  0.00    +0.000 N 
ATOM     14  H   UNL     1       3.941   8.825  18.379  0.00  0.00    +0.000 HD
ATOM     15  H   UNL     1       2.441  10.293  18.208  0.00  0.00    +0.000 HD
BRANCH  10  20
ATOM     16  C   UNL     1       4.735   4.662  18.131  0.00  0.00    +0.000 A 
ATOM     17  C   UNL     1       5.341   4.495  16.884  0.00  0.00    +0.000 A 
ATOM     18  C   UNL     1       5.343   5.549  15.974  0.00  0.00    +0.000 A 
ATOM     19  C   UNL     1       4.723   6.759  16.301  0.00  0.00    +0.000 A 
ATOM     20  C   UNL     1       4.088   6.929  17.536  0.00  0.00    +0.000 A 
ATOM     21  C   UNL     1       4.118   5.877  18.458  0.00  0.00    +0.000 A 
BRANCH  16  23
ATOM     22  N   UNL     1       4.732   2.719  19.851  0.00  0.00    +0.000 NA
ATOM     23  C   UNL     1       4.730   3.585  19.075  0.00  0.00    +0.000 C 
ENDBRANCH  16  23
ENDBRANCH  10  20
ENDBRANCH   1  13
BRANCH   6  24
ATOM     24  C   UNL     1       1.078  11.926  20.090  0.00  0.00    +0.000 C 
BRANCH  24  25
ATOM     25  N   UNL     1       0.647  12.043  21.514  0.00  0.00    +0.000 NA
ATOM     26  C   UNL     1      -0.127  13.283  21.714  0.00  0.00    +0.000 C 
ATOM     27  C   UNL     1      -0.862  13.297  23.059  0.00  0.00    +0.000 C 
ATOM     28  C   UNL     1      -1.891  12.163  23.137  0.00  0.00    +0.000 C 
ATOM     29  C   UNL     1      -1.097  10.857  23.006  0.00  0.00    +0.000 C 
ATOM     30  C   UNL     1      -0.122  10.812  21.824  0.00  0.00    +0.000 C 
BRANCH  28  31
ATOM     31  C   UNL     1      -3.021  12.426  22.113  0.00  0.00    +0.000 C 
BRANCH  31  32
ATOM     32  C   UNL     1      -4.108  13.387  22.515  0.00  0.00    +0.000 A 
ATOM     33  C   UNL     1      -4.166  14.680  21.978  0.00  0.00    +0.000 A 
ATOM     34  C   UNL     1      -5.205  15.544  22.332  0.00  0.00    +0.000 A 
ATOM     35  C   UNL     1      -6.193  15.123  23.221  0.00  0.00    +0.000 A 
ATOM     36  C   UNL     1      -6.157  13.831  23.739  0.00  0.00    +0.000 A 
ATOM     37  C   UNL     1      -5.123  12.965  23.383  0.00  0.00    +0.000 A 
ENDBRANCH  31  32
ENDBRANCH  28  31
ENDBRANCH  24  25
ENDBRANCH   6  24
TORSDOF 7
ENDMDL
MODEL 6
REMARK VINA RESULT:      -8.3      3.717      7.407
REMARK  Name = 
REMARK  7 active torsions:
REMARK  status: ('A' for Active; 'I' for Inactive)
REMARK    1  A    between atoms: C_2  and  C_3
REMARK    2  A    between atoms: C_7  and  N_8
REMARK    3  A    between atoms: N_11  and  C_12
REMARK    4  A    between atoms: C_17  and  C_18
REMARK    5  A    between atoms: C_18  and  N_19
REMARK    6  A    between atoms: C_22  and  C_23
REMARK    7  A    between atoms: C_23  and  C_24
REMARK                            x       y       z     vdW  Elec       q    Type
REMARK                         _______ _______ _______ _____ _____    ______ ____
ROOT
ATOM      1  C   UNL     1      -0.384  10.843  22.012  0.00  0.00    +0.000 A 
ATOM      2  C   UNL     1      -1.206  10.784  23.149  0.00  0.00    +0.000 A 
ATOM      3  C   UNL     1      -2.292  11.623  23.227  0.00  0.00    +0.000 A 
ATOM      4  C   UNL     1      -2.573  12.535  22.246  0.00  0.00    +0.000 A 
ATOM      5  C   UNL     1      -1.748  12.679  21.151  0.00  0.00    +0.000 A 
ATOM      6  C   UNL     1      -0.625  11.829  21.017  0.00  0.00    +0.000 A 
ATOM      7  O   UNL     1      -3.705  13.238  22.497  0.00  0.00    +0.000 OA
ATOM      8  C   UNL     1      -4.161  12.584  23.700  0.00  0.00    +0.000 C 
ATOM      9  O   UNL     1      -3.201  11.655  24.239  0.00  0.00    +0.000 OA
ENDROOT
BRANCH   1  13
ATOM     10  N   UNL     1       1.713   8.002  21.121  0.00  0.00    +0.000 N 
ATOM     11  C   UNL     1       0.494   8.641  21.277  0.00  0.00    +0.000 C 
ATOM     12  O   UNL     1      -0.583   8.152  20.961  0.00  0.00    +0.000 OA
ATOM     13  N   UNL     1       0.664   9.908  21.824  0.00  0.00    +0.000 N 
ATOM     14  H   UNL     1       2.493   8.440  21.586  0.00  0.00    +0.000 HD
ATOM     15  H   UNL     1       1.580  10.335  21.702  0.00  0.00    +0.000 HD
BRANCH  10  20
ATOM     16  C   UNL     1       3.020   5.410  18.831  0.00  0.00    +0.000 A 
ATOM     17  C   UNL     1       2.512   4.233  19.384  0.00  0.00    +0.000 A 
ATOM     18  C   UNL     1       1.694   4.300  20.508  0.00  0.00    +0.000 A 
ATOM     19  C   UNL     1       1.401   5.537  21.092  0.00  0.00    +0.000 A 
ATOM     20  C   UNL     1       1.927   6.721  20.563  0.00  0.00    +0.000 A 
ATOM     21  C   UNL     1       2.721   6.650  19.414  0.00  0.00    +0.000 A 
BRANCH  16  23
ATOM     22  N   UNL     1       4.552   5.300  16.739  0.00  0.00    +0.000 NA
ATOM     23  C   UNL     1       3.860   5.354  17.672  0.00  0.00    +0.000 C 
ENDBRANCH  16  23
ENDBRANCH  10  20
ENDBRANCH   1  13
BRANCH   6  24
ATOM     24  C   UNL     1       0.296  12.126  19.842  0.00  0.00    +0.000 C 
BRANCH  24  25
ATOM     25  N   UNL     1      -0.059  11.584  18.497  0.00  0.00    +0.000 NA
ATOM     26  C   UNL     1      -0.626  10.228  18.625  0.00  0.00    +0.000 C 
ATOM     27  C   UNL     1      -1.298   9.758  17.331  0.00  0.00    +0.000 C 
ATOM     28  C   UNL     1      -2.485  10.658  16.967  0.00  0.00    +0.000 C 
ATOM     29  C   UNL     1      -1.906  12.062  16.756  0.00  0.00    +0.000 C 
ATOM     30  C   UNL     1      -0.995  12.559  17.884  0.00  0.00    +0.000 C 
BRANCH  28  31
ATOM     31  C   UNL     1      -3.600  10.488  18.027  0.00  0.00    +0.000 C 
BRANCH  31  32
ATOM     32  C   UNL     1      -4.628  11.583  18.131  0.00  0.00    +0.000 A 
ATOM     33  C   UNL     1      -5.419  11.939  17.031  0.00  0.00    +0.000 A 
ATOM     34  C   UNL     1      -6.396  12.930  17.156  0.00  0.00    +0.000 A 
ATOM     35  C   UNL     1      -6.591  13.569  18.380  0.00  0.00    +0.000 A 
ATOM     36  C   UNL     1      -5.825  13.204  19.485  0.00  0.00    +0.000 A 
ATOM     37  C   UNL     1      -4.853  12.211  19.362  0.00  0.00    +0.000 A 
ENDBRANCH  31  32
ENDBRANCH  28  31
ENDBRANCH  24  25
ENDBRANCH   6  24
TORSDOF 7
ENDMDL
MODEL 7
REMARK VINA RESULT:      -8.3      5.486      9.241
REMARK  Name = 
REMARK  7 active torsions:
REMARK  status: ('A' for Active; 'I' for Inactive)
REMARK    1  A    between atoms: C_2  and  C_3
REMARK    2  A    between atoms: C_7  and  N_8
REMARK    3  A    between atoms: N_11  and  C_12
REMARK    4  A    between atoms: C_17  and  C_18
REMARK    5  A    between atoms: C_18  and  N_19
REMARK    6  A    between atoms: C_22  and  C_23
REMARK    7  A    between atoms: C_23  and  C_24
REMARK                            x       y       z     vdW  Elec       q    Type
REMARK                         _______ _______ _______ _____ _____    ______ ____
ROOT
ATOM      1  C   UNL     1      -0.282  11.172  22.128  0.00  0.00    +0.000 A 
ATOM      2  C   UNL     1      -1.327  11.002  23.051  0.00  0.00    +0.000 A 
ATOM      3  C   UNL     1      -2.326  11.945  23.104  0.00  0.00    +0.000 A 
ATOM      4  C   UNL     1      -2.312  13.058  22.308  0.00  0.00    +0.000 A 
ATOM      5  C   UNL     1      -1.267  13.303  21.444  0.00  0.00    +0.000 A 
ATOM      6  C   UNL     1      -0.220  12.355  21.342  0.00  0.00    +0.000 A 
ATOM      7  O   UNL     1      -3.405  13.841  22.489  0.00  0.00    +0.000 OA
ATOM      8  C   UNL     1      -4.160  13.032  23.415  0.00  0.00    +0.000 C 
ATOM      9  O   UNL     1      -3.421  11.899  23.910  0.00  0.00    +0.000 OA
ENDROOT
BRANCH   1  13
ATOM     10  N   UNL     1       1.718   8.338  21.019  0.00  0.00    +0.000 N 
ATOM     11  C   UNL     1       0.559   9.096  21.061  0.00  0.00    +0.000 C 
ATOM     12  O   UNL     1      -0.442   8.857  20.396  0.00  0.00    +0.000 OA
ATOM     13  N   UNL     1       0.694  10.162  21.942  0.00  0.00    +0.000 N 
ATOM     14  H   UNL     1       2.390   8.538  21.744  0.00  0.00    +0.000 HD
ATOM     15  H   UNL     1       1.644  10.467  22.143  0.00  0.00    +0.000 HD
BRANCH  10  20
ATOM     16  C   UNL     1       1.883   4.780  20.030  0.00  0.00    +0.000 A 
ATOM     17  C   UNL     1       2.301   4.855  18.699  0.00  0.00    +0.000 A 
ATOM     18  C   UNL     1       2.568   6.097  18.132  0.00  0.00    +0.000 A 
ATOM     19  C   UNL     1       2.399   7.264  18.884  0.00  0.00    +0.000 A 
ATOM     20  C   UNL     1       1.955   7.204  20.210  0.00  0.00    +0.000 A 
ATOM     21  C   UNL     1       1.719   5.950  20.784  0.00  0.00    +0.000 A 
BRANCH  16  23
ATOM     22  N   UNL     1       1.371   2.474  21.103  0.00  0.00    +0.000 NA
ATOM     23  C   UNL     1       1.608   3.506  20.624  0.00  0.00    +0.000 C 
ENDBRANCH  16  23
ENDBRANCH  10  20
ENDBRANCH   1  13
BRANCH   6  24
ATOM     24  C   UNL     1       0.949  12.751  20.452  0.00  0.00    +0.000 C 
BRANCH  24  25
ATOM     25  N   UNL     1       1.282  14.198  20.305  0.00  0.00    +0.000 NA
ATOM     26  C   UNL     1       2.445  14.543  21.145  0.00  0.00    +0.000 C 
ATOM     27  C   UNL     1       3.026  15.917  20.793  0.00  0.00    +0.000 C 
ATOM     28  C   UNL     1       3.549  15.941  19.352  0.00  0.00    +0.000 C 
ATOM     29  C   UNL     1       2.339  15.658  18.454  0.00  0.00    +0.000 C 
ATOM     30  C   UNL     1       1.510  14.432  18.857  0.00  0.00    +0.000 C 
BRANCH  28  31
ATOM     31  C   UNL     1       4.771  14.999  19.235  0.00  0.00    +0.000 C 
BRANCH  31  32
ATOM     32  C   UNL     1       6.086  15.617  18.840  0.00  0.00    +0.000 A 
ATOM     33  C   UNL     1       6.356  16.968  19.096  0.00  0.00    +0.000 A 
ATOM     34  C   UNL     1       7.597  17.515  18.760  0.00  0.00    +0.000 A 
ATOM     35  C   UNL     1       8.575  16.717  18.167  0.00  0.00    +0.000 A 
ATOM     36  C   UNL     1       8.324  15.368  17.932  0.00  0.00    +0.000 A 
ATOM     37  C   UNL     1       7.087  14.819  18.273  0.00  0.00    +0.000 A 
ENDBRANCH  31  32
ENDBRANCH  28  31
ENDBRANCH  24  25
ENDBRANCH   6  24
TORSDOF 7
ENDMDL
MODEL 8
REMARK VINA RESULT:      -8.2      2.949      9.649
REMARK  Name = 
REMARK  7 active torsions:
REMARK  status: ('A' for Active; 'I' for Inactive)
REMARK    1  A    between atoms: C_2  and  C_3
REMARK    2  A    between atoms: C_7  and  N_8
REMARK    3  A    between atoms: N_11  and  C_12
REMARK    4  A    between atoms: C_17  and  C_18
REMARK    5  A    between atoms: C_18  and  N_19
REMARK    6  A    between atoms: C_22  and  C_23
REMARK    7  A    between atoms: C_23  and  C_24
REMARK                            x       y       z     vdW  Elec       q    Type
REMARK                         _______ _______ _______ _____ _____    ______ ____
ROOT
ATOM      1  C   UNL     1       1.901   5.983  20.031  0.00  0.00    +0.000 A 
ATOM      2  C   UNL     1       1.050   4.920  20.373  0.00  0.00    +0.000 A 
ATOM      3  C   UNL     1       1.146   3.741  19.672  0.00  0.00    +0.000 A 
ATOM      4  C   UNL     1       2.021   3.589  18.631  0.00  0.00    +0.000 A 
ATOM      5  C   UNL     1       2.817   4.633  18.212  0.00  0.00    +0.000 A 
ATOM      6  C   UNL     1       2.767   5.862  18.910  0.00  0.00    +0.000 A 
ATOM      7  O   UNL     1       1.985   2.342  18.097  0.00  0.00    +0.000 OA
ATOM      8  C   UNL     1       1.060   1.696  18.998  0.00  0.00    +0.000 C 
ATOM      9  O   UNL     1       0.425   2.612  19.911  0.00  0.00    +0.000 OA
ENDROOT
BRANCH   1  13
ATOM     10  N   UNL     1       1.358   9.262  21.520  0.00  0.00    +0.000 N 
ATOM     11  C   UNL     1       1.203   8.313  20.522  0.00  0.00    +0.000 C 
ATOM     12  O   UNL     1       0.504   8.470  19.529  0.00  0.00    +0.000 OA
ATOM     13  N   UNL     1       1.934   7.166  20.810  0.00  0.00    +0.000 N 
ATOM     14  H   UNL     1       2.097   9.077  22.181  0.00  0.00    +0.000 HD
ATOM     15  H   UNL     1       2.163   7.008  21.789  0.00  0.00    +0.000 HD
BRANCH  10  20
ATOM     16  C   UNL     1      -1.129  11.845  22.419  0.00  0.00    +0.000 A 
ATOM     17  C   UNL     1      -0.581  13.001  21.860  0.00  0.00    +0.000 A 
ATOM     18  C   UNL     1       0.609  12.920  21.142  0.00  0.00    +0.000 A 
ATOM     19  C   UNL     1       1.261  11.690  21.002  0.00  0.00    +0.000 A 
ATOM     20  C   UNL     1       0.736  10.530  21.581  0.00  0.00    +0.000 A 
ATOM     21  C   UNL     1      -0.477  10.613  22.273  0.00  0.00    +0.000 A 
BRANCH  16  23
ATOM     22  N   UNL     1      -3.352  11.990  23.752  0.00  0.00    +0.000 NA
ATOM     23  C   UNL     1      -2.355  11.917  23.157  0.00  0.00    +0.000 C 
ENDBRANCH  16  23
ENDBRANCH  10  20
ENDBRANCH   1  13
BRANCH   6  24
ATOM     24  C   UNL     1       3.591   6.996  18.319  0.00  0.00    +0.000 C 
BRANCH  24  25
ATOM     25  N   UNL     1       5.080   6.887  18.338  0.00  0.00    +0.000 NA
ATOM     26  C   UNL     1       5.488   5.514  18.692  0.00  0.00    +0.000 C 
ATOM     27  C   UNL     1       6.974   5.263  18.414  0.00  0.00    +0.000 C 
ATOM     28  C   UNL     1       7.288   5.405  16.919  0.00  0.00    +0.000 C 
ATOM     29  C   UNL     1       6.940   6.851  16.546  0.00  0.00    +0.000 C 
ATOM     30  C   UNL     1       5.550   7.316  16.997  0.00  0.00    +0.000 C 
BRANCH  28  31
ATOM     31  C   UNL     1       6.584   4.269  16.139  0.00  0.00    +0.000 C 
BRANCH  31  32
ATOM     32  C   UNL     1       6.737   4.260  14.641  0.00  0.00    +0.000 A 
ATOM     33  C   UNL     1       5.894   3.488  13.832  0.00  0.00    +0.000 A 
ATOM     34  C   UNL     1       6.024   3.524  12.441  0.00  0.00    +0.000 A 
ATOM     35  C   UNL     1       6.995   4.332  11.850  0.00  0.00    +0.000 A 
ATOM     36  C   UNL     1       7.820   5.122  12.646  0.00  0.00    +0.000 A 
ATOM     37  C   UNL     1       7.688   5.091  14.035  0.00  0.00    +0.000 A 
ENDBRANCH  31  32
ENDBRANCH  28  31
ENDBRANCH  24  25
ENDBRANCH   6  24
TORSDOF 7
ENDMDL
MODEL 9
REMARK VINA RESULT:      -8.2      5.121      8.387
REMARK  Name = 
REMARK  7 active torsions:
REMARK  status: ('A' for Active; 'I' for Inactive)
REMARK    1  A    between atoms: C_2  and  C_3
REMARK    2  A    between atoms: C_7  and  N_8
REMARK    3  A    between atoms: N_11  and  C_12
REMARK    4  A    between atoms: C_17  and  C_18
REMARK    5  A    between atoms: C_18  and  N_19
REMARK    6  A    between atoms: C_22  and  C_23
REMARK    7  A    between atoms: C_23  and  C_24
REMARK                            x       y       z     vdW  Elec       q    Type
REMARK                         _______ _______ _______ _____ _____    ______ ____
ROOT
ATOM      1  C   UNL     1       0.769  10.758  19.904  0.00  0.00    +0.000 A 
ATOM      2  C   UNL     1       0.155  10.188  21.031  0.00  0.00    +0.000 A 
ATOM      3  C   UNL     1      -0.547  11.002  21.888  0.00  0.00    +0.000 A 
ATOM      4  C   UNL     1      -0.633  12.353  21.693  0.00  0.00    +0.000 A 
ATOM      5  C   UNL     1       0.020  12.964  20.644  0.00  0.00    +0.000 A 
ATOM      6  C   UNL     1       0.744  12.168  19.725  0.00  0.00    +0.000 A 
ATOM      7  O   UNL     1      -1.400  12.968  22.629  0.00  0.00    +0.000 OA
ATOM      8  C   UNL     1      -1.873  11.825  23.373  0.00  0.00    +0.000 C 
ATOM      9  O   UNL     1      -1.229  10.594  22.993  0.00  0.00    +0.000 OA
ENDROOT
BRANCH   1  13
ATOM     10  N   UNL     1       2.323   8.079  17.990  0.00  0.00    +0.000 N 
ATOM     11  C   UNL     1       1.877   8.666  19.163  0.00  0.00    +0.000 C 
ATOM     12  O   UNL     1       1.906   8.119  20.258  0.00  0.00    +0.000 OA
ATOM     13  N   UNL     1       1.386   9.944  18.922  0.00  0.00    +0.000 N 
ATOM     14  H   UNL     1       2.409   8.702  17.201  0.00  0.00    +0.000 HD
ATOM     15  H   UNL     1       1.078  10.141  17.972  0.00  0.00    +0.000 HD
BRANCH  10  20
ATOM     16  C   UNL     1       2.428   4.383  17.961  0.00  0.00    +0.000 A 
ATOM     17  C   UNL     1       3.731   4.121  17.531  0.00  0.00    +0.000 A 
ATOM     18  C   UNL     1       4.599   5.180  17.283  0.00  0.00    +0.000 A 
ATOM     19  C   UNL     1       4.162   6.499  17.444  0.00  0.00    +0.000 A 
ATOM     20  C   UNL     1       2.851   6.775  17.847  0.00  0.00    +0.000 A 
ATOM     21  C   UNL     1       1.994   5.706  18.126  0.00  0.00    +0.000 A 
BRANCH  16  23
ATOM     22  N   UNL     1       0.806   2.417  18.443  0.00  0.00    +0.000 NA
ATOM     23  C   UNL     1       1.528   3.301  18.222  0.00  0.00    +0.000 C 
ENDBRANCH  16  23
ENDBRANCH  10  20
ENDBRANCH   1  13
BRANCH   6  24
ATOM     24  C   UNL     1       1.526  12.926  18.663  0.00  0.00    +0.000 C 
BRANCH  24  25
ATOM     25  N   UNL     1       2.253  14.170  19.056  0.00  0.00    +0.000 NA
ATOM     26  C   UNL     1       3.509  13.830  19.751  0.00  0.00    +0.000 C 
ATOM     27  C   UNL     1       4.440  15.039  19.887  0.00  0.00    +0.000 C 
ATOM     28  C   UNL     1       4.869  15.563  18.511  0.00  0.00    +0.000 C 
ATOM     29  C   UNL     1       3.582  15.992  17.798  0.00  0.00    +0.000 C 
ATOM     30  C   UNL     1       2.460  14.948  17.809  0.00  0.00    +0.000 C 
BRANCH  28  31
ATOM     31  C   UNL     1       5.761  14.506  17.817  0.00  0.00    +0.000 C 
BRANCH  31  32
ATOM     32  C   UNL     1       7.252  14.690  17.910  0.00  0.00    +0.000 A 
ATOM     33  C   UNL     1       7.813  15.955  18.132  0.00  0.00    +0.000 A 
ATOM     34  C   UNL     1       9.196  16.102  18.256  0.00  0.00    +0.000 A 
ATOM     35  C   UNL     1      10.029  14.986  18.163  0.00  0.00    +0.000 A 
ATOM     36  C   UNL     1       9.478  13.723  17.968  0.00  0.00    +0.000 A 
ATOM     37  C   UNL     1       8.096  13.574  17.849  0.00  0.00    +0.000 A 
ENDBRANCH  31  32
ENDBRANCH  28  31
ENDBRANCH  24  25
ENDBRANCH   6  24
TORSDOF 7
ENDMDL
