MODEL 1
REMARK VINA RESULT:      -7.0      0.000      0.000
REMARK  Name = 
REMARK  8 active torsions:
REMARK  status: ('A' for Active; 'I' for Inactive)
REMARK    1  A    between atoms: C_1  and  C_2
REMARK    2  A    between atoms: C_2  and  C_3
REMARK    3  A    between atoms: C_2  and  C_4
REMARK    4  A    between atoms: C_2  and  C_5
REMARK    5  A    between atoms: C_5  and  O_7
REMARK    6  A    between atoms: O_7  and  N_8
REMARK    7  A    between atoms: C_9  and  C_11
REMARK    8  A    between atoms: C_14  and  N_15
REMARK                            x       y       z     vdW  Elec       q    Type
REMARK                         _______ _______ _______ _____ _____    ______ ____
ROOT
ATOM      1  N   UNL     1       4.256   4.280  18.176  0.00  0.00    +0.000 NA
ATOM      2  C   UNL     1       5.520   4.319  17.864  0.00  0.00    +0.000 C 
ATOM      3  N   UNL     1       6.515   4.292  18.813  0.00  0.00    +0.000 N 
ATOM      4  H   UNL     1       6.199   4.557  19.739  0.00  0.00    +0.000 HD
ATOM      5  H   UNL     1       7.394   4.711  18.538  0.00  0.00    +0.000 HD
ENDROOT
BRANCH   2   6
ATOM      6  C   UNL     1       5.796   4.401  16.429  0.00  0.00    +0.000 A 
ATOM      7  C   UNL     1       5.031   3.920  15.379  0.00  0.00    +0.000 A 
ATOM      8  C   UNL     1       5.637   4.145  14.107  0.00  0.00    +0.000 A 
ATOM      9  C   UNL     1       6.845   4.792  14.236  0.00  0.00    +0.000 A 
ATOM     10  S   UNL     1       7.227   5.154  15.852  0.00  0.00    +0.000 S 
BRANCH   9  11
ATOM     11  N   UNL     1       7.743   5.154  13.170  0.00  0.00    +0.000 N 
ATOM     12  O   UNL     1       8.675   5.913  13.469  0.00  0.00    +0.000 OA
ATOM     13  O   UNL     1       7.530   4.692  12.042  0.00  0.00    +0.000 OA
ENDBRANCH   9  11
ENDBRANCH   2   6
BRANCH   1  14
ATOM     14  O   UNL     1       4.034   4.168  19.565  0.00  0.00    +0.000 OA
BRANCH  14  15
ATOM     15  C   UNL     1       3.286   3.037  19.813  0.00  0.00    +0.000 C 
ATOM     16  O   UNL     1       3.628   1.884  19.576  0.00  0.00    +0.000 OA
BRANCH  15  18
ATOM     17  C   UNL     1       0.808   3.052  19.452  0.00  0.00    +0.000 C 
ATOM     18  C   UNL     1       1.935   3.407  20.440  0.00  0.00    +0.000 C 
ATOM     19  C   UNL     1       1.885   4.913  20.724  0.00  0.00    +0.000 C 
ATOM     20  C   UNL     1       1.725   2.611  21.734  0.00  0.00    +0.000 C 
ENDBRANCH  15  18
ENDBRANCH  14  15
ENDBRANCH   1  14
TORSDOF 5
ENDMDL
MODEL 2
REMARK VINA RESULT:      -6.6      0.653      1.441
REMARK  Name = 
REMARK  8 active torsions:
REMARK  status: ('A' for Active; 'I' for Inactive)
REMARK    1  A    between atoms: C_1  and  C_2
REMARK    2  A    between atoms: C_2  and  C_3
REMARK    3  A    between atoms: C_2  and  C_4
REMARK    4  A    between atoms: C_2  and  C_5
REMARK    5  A    between atoms: C_5  and  O_7
REMARK    6  A    between atoms: O_7  and  N_8
REMARK    7  A    between atoms: C_9  and  C_11
REMARK    8  A    between atoms: C_14  and  N_15
REMARK                            x       y       z     vdW  Elec       q    Type
REMARK                         _______ _______ _______ _____ _____    ______ ____
ROOT
ATOM      1  N   UNL     1       4.429   4.996  18.094  0.00  0.00    +0.000 NA
ATOM      2  C   UNL     1       5.648   4.610  17.845  0.00  0.00    +0.000 C 
ATOM      3  N   UNL     1       6.545   4.312  18.843  0.00  0.00    +0.000 N 
ATOM      4  H   UNL     1       6.299   4.710  19.742  0.00  0.00    +0.000 HD
ATOM      5  H   UNL     1       7.523   4.410  18.598  0.00  0.00    +0.000 HD
ENDROOT
BRANCH   2   6
ATOM      6  C   UNL     1       5.988   4.527  16.424  0.00  0.00    +0.000 A 
ATOM      7  C   UNL     1       5.465   3.674  15.465  0.00  0.00    +0.000 A 
ATOM      8  C   UNL     1       6.069   3.847  14.184  0.00  0.00    +0.000 A 
ATOM      9  C   UNL     1       7.032   4.831  14.215  0.00  0.00    +0.000 A 
ATOM     10  S   UNL     1       7.183   5.555  15.745  0.00  0.00    +0.000 S 
BRANCH   9  11
ATOM     11  N   UNL     1       7.862   5.253  13.116  0.00  0.00    +0.000 N 
ATOM     12  O   UNL     1       7.544   4.834  11.994  0.00  0.00    +0.000 OA
ATOM     13  O   UNL     1       8.823   5.995  13.357  0.00  0.00    +0.000 OA
ENDBRANCH   9  11
ENDBRANCH   2   6
BRANCH   1  14
ATOM     14  O   UNL     1       4.134   5.032  19.473  0.00  0.00    +0.000 OA
BRANCH  14  15
ATOM     15  C   UNL     1       3.512   3.855  19.832  0.00  0.00    +0.000 C 
ATOM     16  O   UNL     1       4.068   2.777  20.013  0.00  0.00    +0.000 OA
BRANCH  15  18
ATOM     17  C   UNL     1       1.734   5.502  20.459  0.00  0.00    +0.000 C 
ATOM     18  C   UNL     1       2.000   4.063  19.982  0.00  0.00    +0.000 C 
ATOM     19  C   UNL     1       1.439   3.087  21.024  0.00  0.00    +0.000 C 
ATOM     20  C   UNL     1       1.309   3.855  18.628  0.00  0.00    +0.000 C 
ENDBRANCH  15  18
ENDBRANCH  14  15
ENDBRANCH   1  14
TORSDOF 5
ENDMDL
MODEL 3
REMARK VINA RESULT:      -6.5      0.888      1.664
REMARK  Name = 
REMARK  8 active torsions:
REMARK  status: ('A' for Active; 'I' for Inactive)
REMARK    1  A    between atoms: C_1  and  C_2
REMARK    2  A    between atoms: C_2  and  C_3
REMARK    3  A    between atoms: C_2  and  C_4
REMARK    4  A    between atoms: C_2  and  C_5
REMARK    5  A    between atoms: C_5  and  O_7
REMARK    6  A    between atoms: O_7  and  N_8
REMARK    7  A    between atoms: C_9  and  C_11
REMARK    8  A    between atoms: C_14  and  N_15
REMARK                            x       y       z     vdW  Elec       q    Type
REMARK                         _______ _______ _______ _____ _____    ______ ____
ROOT
ATOM      1  N   UNL     1       4.238   4.786  18.169  0.00  0.00    +0.000 NA
ATOM      2  C   UNL     1       5.467   4.496  17.849  0.00  0.00    +0.000 C 
ATOM      3  N   UNL     1       6.421   4.189  18.790  0.00  0.00    +0.000 N 
ATOM      4  H   UNL     1       6.188   4.509  19.723  0.00  0.00    +0.000 HD
ATOM      5  H   UNL     1       7.380   4.366  18.517  0.00  0.00    +0.000 HD
ENDROOT
BRANCH   2   6
ATOM      6  C   UNL     1       5.753   4.532  16.414  0.00  0.00    +0.000 A 
ATOM      7  C   UNL     1       4.980   4.045  15.373  0.00  0.00    +0.000 A 
ATOM      8  C   UNL     1       5.599   4.217  14.099  0.00  0.00    +0.000 A 
ATOM      9  C   UNL     1       6.825   4.833  14.218  0.00  0.00    +0.000 A 
ATOM     10  S   UNL     1       7.208   5.228  15.826  0.00  0.00    +0.000 S 
BRANCH   9  11
ATOM     11  N   UNL     1       7.739   5.140  13.147  0.00  0.00    +0.000 N 
ATOM     12  O   UNL     1       7.499   4.612  12.052  0.00  0.00    +0.000 OA
ATOM     13  O   UNL     1       8.688   5.897  13.384  0.00  0.00    +0.000 OA
ENDBRANCH   9  11
ENDBRANCH   2   6
BRANCH   1  14
ATOM     14  O   UNL     1       3.997   4.709  19.557  0.00  0.00    +0.000 OA
BRANCH  14  15
ATOM     15  C   UNL     1       2.665   4.425  19.769  0.00  0.00    +0.000 C 
ATOM     16  O   UNL     1       1.734   5.210  19.628  0.00  0.00    +0.000 OA
BRANCH  15  18
ATOM     17  C   UNL     1       1.537   2.928  21.428  0.00  0.00    +0.000 C 
ATOM     18  C   UNL     1       2.483   2.968  20.214  0.00  0.00    +0.000 C 
ATOM     19  C   UNL     1       3.836   2.375  20.625  0.00  0.00    +0.000 C 
ATOM     20  C   UNL     1       1.863   2.149  19.076  0.00  0.00    +0.000 C 
ENDBRANCH  15  18
ENDBRANCH  14  15
ENDBRANCH   1  14
TORSDOF 5
ENDMDL
MODEL 4
REMARK VINA RESULT:      -6.5      1.283      1.872
REMARK  Name = 
REMARK  8 active torsions:
REMARK  status: ('A' for Active; 'I' for Inactive)
REMARK    1  A    between atoms: C_1  and  C_2
REMARK    2  A    between atoms: C_2  and  C_3
REMARK    3  A    between atoms: C_2  and  C_4
REMARK    4  A    between atoms: C_2  and  C_5
REMARK    5  A    between atoms: C_5  and  O_7
REMARK    6  A    between atoms: O_7  and  N_8
REMARK    7  A    between atoms: C_9  and  C_11
REMARK    8  A    between atoms: C_14  and  N_15
REMARK                            x       y       z     vdW  Elec       q    Type
REMARK                         _______ _______ _______ _____ _____    ______ ____
ROOT
ATOM      1  N   UNL     1       4.366   4.372  18.210  0.00  0.00    +0.000 NA
ATOM      2  C   UNL     1       5.637   4.565  18.003  0.00  0.00    +0.000 C 
ATOM      3  N   UNL     1       6.525   4.789  19.029  0.00  0.00    +0.000 N 
ATOM      4  H   UNL     1       6.084   5.101  19.886  0.00  0.00    +0.000 HD
ATOM      5  H   UNL     1       7.362   5.302  18.780  0.00  0.00    +0.000 HD
ENDROOT
BRANCH   2   6
ATOM      6  C   UNL     1       6.044   4.533  16.598  0.00  0.00    +0.000 A 
ATOM      7  C   UNL     1       7.069   5.234  15.985  0.00  0.00    +0.000 A 
ATOM      8  C   UNL     1       7.147   4.985  14.582  0.00  0.00    +0.000 A 
ATOM      9  C   UNL     1       6.174   4.098  14.177  0.00  0.00    +0.000 A 
ATOM     10  S   UNL     1       5.210   3.549  15.464  0.00  0.00    +0.000 S 
BRANCH   9  11
ATOM     11  N   UNL     1       5.937   3.640  12.832  0.00  0.00    +0.000 N 
ATOM     12  O   UNL     1       6.941   3.425  12.140  0.00  0.00    +0.000 OA
ATOM     13  O   UNL     1       4.766   3.494  12.461  0.00  0.00    +0.000 OA
ENDBRANCH   9  11
ENDBRANCH   2   6
BRANCH   1  14
ATOM     14  O   UNL     1       4.023   4.378  19.578  0.00  0.00    +0.000 OA
BRANCH  14  15
ATOM     15  C   UNL     1       3.407   3.186  19.895  0.00  0.00    +0.000 C 
ATOM     16  O   UNL     1       3.922   2.075  19.835  0.00  0.00    +0.000 OA
BRANCH  15  18
ATOM     17  C   UNL     1       1.697   2.636  21.639  0.00  0.00    +0.000 C 
ATOM     18  C   UNL     1       1.959   3.425  20.343  0.00  0.00    +0.000 C 
ATOM     19  C   UNL     1       0.990   2.932  19.262  0.00  0.00    +0.000 C 
ATOM     20  C   UNL     1       1.738   4.917  20.620  0.00  0.00    +0.000 C 
ENDBRANCH  15  18
ENDBRANCH  14  15
ENDBRANCH   1  14
TORSDOF 5
ENDMDL
MODEL 5
REMARK VINA RESULT:      -6.5      1.277      1.564
REMARK  Name = 
REMARK  8 active torsions:
REMARK  status: ('A' for Active; 'I' for Inactive)
REMARK    1  A    between atoms: C_1  and  C_2
REMARK    2  A    between atoms: C_2  and  C_3
REMARK    3  A    between atoms: C_2  and  C_4
REMARK    4  A    between atoms: C_2  and  C_5
REMARK    5  A    between atoms: C_5  and  O_7
REMARK    6  A    between atoms: O_7  and  N_8
REMARK    7  A    between atoms: C_9  and  C_11
REMARK    8  A    between atoms: C_14  and  N_15
REMARK                            x       y       z     vdW  Elec       q    Type
REMARK                         _______ _______ _______ _____ _____    ______ ____
ROOT
ATOM      1  N   UNL     1       4.333   4.474  18.266  0.00  0.00    +0.000 NA
ATOM      2  C   UNL     1       5.614   4.613  18.074  0.00  0.00    +0.000 C 
ATOM      3  N   UNL     1       6.500   4.791  19.110  0.00  0.00    +0.000 N 
ATOM      4  H   UNL     1       6.064   5.117  19.964  0.00  0.00    +0.000 HD
ATOM      5  H   UNL     1       7.361   5.269  18.873  0.00  0.00    +0.000 HD
ENDROOT
BRANCH   2   6
ATOM      6  C   UNL     1       6.033   4.572  16.672  0.00  0.00    +0.000 A 
ATOM      7  C   UNL     1       7.079   5.252  16.069  0.00  0.00    +0.000 A 
ATOM      8  C   UNL     1       7.165   5.001  14.667  0.00  0.00    +0.000 A 
ATOM      9  C   UNL     1       6.178   4.134  14.253  0.00  0.00    +0.000 A 
ATOM     10  S   UNL     1       5.190   3.605  15.531  0.00  0.00    +0.000 S 
BRANCH   9  11
ATOM     11  N   UNL     1       5.944   3.681  12.906  0.00  0.00    +0.000 N 
ATOM     12  O   UNL     1       6.951   3.451  12.221  0.00  0.00    +0.000 OA
ATOM     13  O   UNL     1       4.774   3.553  12.525  0.00  0.00    +0.000 OA
ENDBRANCH   9  11
ENDBRANCH   2   6
BRANCH   1  14
ATOM     14  O   UNL     1       3.976   4.487  19.631  0.00  0.00    +0.000 OA
BRANCH  14  15
ATOM     15  C   UNL     1       3.406   3.276  19.960  0.00  0.00    +0.000 C 
ATOM     16  O   UNL     1       3.973   2.189  19.942  0.00  0.00    +0.000 OA
BRANCH  15  18
ATOM     17  C   UNL     1       1.037   2.919  19.235  0.00  0.00    +0.000 C 
ATOM     18  C   UNL     1       1.937   3.458  20.362  0.00  0.00    +0.000 C 
ATOM     19  C   UNL     1       1.632   4.947  20.567  0.00  0.00    +0.000 C 
ATOM     20  C   UNL     1       1.647   2.671  21.646  0.00  0.00    +0.000 C 
ENDBRANCH  15  18
ENDBRANCH  14  15
ENDBRANCH   1  14
TORSDOF 5
ENDMDL
MODEL 6
REMARK VINA RESULT:      -6.5      1.303      2.005
REMARK  Name = 
REMARK  8 active torsions:
REMARK  status: ('A' for Active; 'I' for Inactive)
REMARK    1  A    between atoms: C_1  and  C_2
REMARK    2  A    between atoms: C_2  and  C_3
REMARK    3  A    between atoms: C_2  and  C_4
REMARK    4  A    between atoms: C_2  and  C_5
REMARK    5  A    between atoms: C_5  and  O_7
REMARK    6  A    between atoms: O_7  and  N_8
REMARK    7  A    between atoms: C_9  and  C_11
REMARK    8  A    between atoms: C_14  and  N_15
REMARK                            x       y       z     vdW  Elec       q    Type
REMARK                         _______ _______ _______ _____ _____    ______ ____
ROOT
ATOM      1  N   UNL     1       3.950   2.846  17.697  0.00  0.00    +0.000 NA
ATOM      2  C   UNL     1       4.048   4.073  17.270  0.00  0.00    +0.000 C 
ATOM      3  N   UNL     1       3.077   5.017  17.510  0.00  0.00    +0.000 N 
ATOM      4  H   UNL     1       2.176   4.620  17.750  0.00  0.00    +0.000 HD
ATOM      5  H   UNL     1       3.032   5.779  16.845  0.00  0.00    +0.000 HD
ENDROOT
BRANCH   2   6
ATOM      6  C   UNL     1       5.264   4.365  16.511  0.00  0.00    +0.000 A 
ATOM      7  C   UNL     1       6.514   4.717  16.995  0.00  0.00    +0.000 A 
ATOM      8  C   UNL     1       7.458   4.970  15.955  0.00  0.00    +0.000 A 
ATOM      9  C   UNL     1       6.889   4.799  14.712  0.00  0.00    +0.000 A 
ATOM     10  S   UNL     1       5.263   4.310  14.795  0.00  0.00    +0.000 S 
BRANCH   9  11
ATOM     11  N   UNL     1       7.534   4.996  13.440  0.00  0.00    +0.000 N 
ATOM     12  O   UNL     1       7.066   4.364  12.482  0.00  0.00    +0.000 OA
ATOM     13  O   UNL     1       8.498   5.770  13.384  0.00  0.00    +0.000 OA
ENDBRANCH   9  11
ENDBRANCH   2   6
BRANCH   1  14
ATOM     14  O   UNL     1       2.780   2.617  18.450  0.00  0.00    +0.000 OA
BRANCH  14  15
ATOM     15  C   UNL     1       3.086   2.685  19.793  0.00  0.00    +0.000 C 
ATOM     16  O   UNL     1       4.137   2.320  20.307  0.00  0.00    +0.000 OA
BRANCH  15  18
ATOM     17  C   UNL     1       1.722   2.478  21.882  0.00  0.00    +0.000 C 
ATOM     18  C   UNL     1       1.919   3.286  20.586  0.00  0.00    +0.000 C 
ATOM     19  C   UNL     1       0.630   3.213  19.759  0.00  0.00    +0.000 C 
ATOM     20  C   UNL     1       2.236   4.741  20.956  0.00  0.00    +0.000 C 
ENDBRANCH  15  18
ENDBRANCH  14  15
ENDBRANCH   1  14
TORSDOF 5
ENDMDL
MODEL 7
REMARK VINA RESULT:      -6.5      1.188      1.862
REMARK  Name = 
REMARK  8 active torsions:
REMARK  status: ('A' for Active; 'I' for Inactive)
REMARK    1  A    between atoms: C_1  and  C_2
REMARK    2  A    between atoms: C_2  and  C_3
REMARK    3  A    between atoms: C_2  and  C_4
REMARK    4  A    between atoms: C_2  and  C_5
REMARK    5  A    between atoms: C_5  and  O_7
REMARK    6  A    between atoms: O_7  and  N_8
REMARK    7  A    between atoms: C_9  and  C_11
REMARK    8  A    between atoms: C_14  and  N_15
REMARK                            x       y       z     vdW  Elec       q    Type
REMARK                         _______ _______ _______ _____ _____    ______ ____
ROOT
ATOM      1  N   UNL     1       4.319   4.232  18.151  0.00  0.00    +0.000 NA
ATOM      2  C   UNL     1       5.576   4.540  18.006  0.00  0.00    +0.000 C 
ATOM      3  N   UNL     1       6.388   4.847  19.073  0.00  0.00    +0.000 N 
ATOM      4  H   UNL     1       5.878   5.121  19.905  0.00  0.00    +0.000 HD
ATOM      5  H   UNL     1       7.185   5.434  18.862  0.00  0.00    +0.000 HD
ENDROOT
BRANCH   2   6
ATOM      6  C   UNL     1       6.053   4.542  16.623  0.00  0.00    +0.000 A 
ATOM      7  C   UNL     1       7.158   5.191  16.097  0.00  0.00    +0.000 A 
ATOM      8  C   UNL     1       7.292   5.002  14.689  0.00  0.00    +0.000 A 
ATOM      9  C   UNL     1       6.279   4.210  14.193  0.00  0.00    +0.000 A 
ATOM     10  S   UNL     1       5.210   3.678  15.402  0.00  0.00    +0.000 S 
BRANCH   9  11
ATOM     11  N   UNL     1       6.080   3.834  12.817  0.00  0.00    +0.000 N 
ATOM     12  O   UNL     1       4.931   3.497  12.500  0.00  0.00    +0.000 OA
ATOM     13  O   UNL     1       7.052   3.871  12.053  0.00  0.00    +0.000 OA
ENDBRANCH   9  11
ENDBRANCH   2   6
BRANCH   1  14
ATOM     14  O   UNL     1       3.909   4.211  19.501  0.00  0.00    +0.000 OA
BRANCH  14  15
ATOM     15  C   UNL     1       3.212   3.047  19.743  0.00  0.00    +0.000 C 
ATOM     16  O   UNL     1       3.610   1.911  19.509  0.00  0.00    +0.000 OA
BRANCH  15  18
ATOM     17  C   UNL     1       1.703   4.873  20.552  0.00  0.00    +0.000 C 
ATOM     18  C   UNL     1       1.840   3.352  20.357  0.00  0.00    +0.000 C 
ATOM     19  C   UNL     1       1.714   2.667  21.723  0.00  0.00    +0.000 C 
ATOM     20  C   UNL     1       0.728   2.873  19.414  0.00  0.00    +0.000 C 
ENDBRANCH  15  18
ENDBRANCH  14  15
ENDBRANCH   1  14
TORSDOF 5
ENDMDL
MODEL 8
REMARK VINA RESULT:      -6.4      1.195      1.727
REMARK  Name = 
REMARK  8 active torsions:
REMARK  status: ('A' for Active; 'I' for Inactive)
REMARK    1  A    between atoms: C_1  and  C_2
REMARK    2  A    between atoms: C_2  and  C_3
REMARK    3  A    between atoms: C_2  and  C_4
REMARK    4  A    between atoms: C_2  and  C_5
REMARK    5  A    between atoms: C_5  and  O_7
REMARK    6  A    between atoms: O_7  and  N_8
REMARK    7  A    between atoms: C_9  and  C_11
REMARK    8  A    between atoms: C_14  and  N_15
REMARK                            x       y       z     vdW  Elec       q    Type
REMARK                         _______ _______ _______ _____ _____    ______ ____
ROOT
ATOM      1  N   UNL     1       4.535   5.308  17.993  0.00  0.00    +0.000 NA
ATOM      2  C   UNL     1       5.568   4.568  17.708  0.00  0.00    +0.000 C 
ATOM      3  N   UNL     1       6.279   3.892  18.671  0.00  0.00    +0.000 N 
ATOM      4  H   UNL     1       6.143   4.258  19.607  0.00  0.00    +0.000 HD
ATOM      5  H   UNL     1       7.243   3.686  18.441  0.00  0.00    +0.000 HD
ENDROOT
BRANCH   2   6
ATOM      6  C   UNL     1       5.915   4.519  16.288  0.00  0.00    +0.000 A 
ATOM      7  C   UNL     1       5.345   3.743  15.291  0.00  0.00    +0.000 A 
ATOM      8  C   UNL     1       5.972   3.927  14.022  0.00  0.00    +0.000 A 
ATOM      9  C   UNL     1       7.000   4.840  14.100  0.00  0.00    +0.000 A 
ATOM     10  S   UNL     1       7.185   5.489  15.660  0.00  0.00    +0.000 S 
BRANCH   9  11
ATOM     11  N   UNL     1       7.868   5.248  13.026  0.00  0.00    +0.000 N 
ATOM     12  O   UNL     1       7.574   4.835  11.895  0.00  0.00    +0.000 OA
ATOM     13  O   UNL     1       8.835   5.972  13.295  0.00  0.00    +0.000 OA
ENDBRANCH   9  11
ENDBRANCH   2   6
BRANCH   1  14
ATOM     14  O   UNL     1       4.215   5.302  19.367  0.00  0.00    +0.000 OA
BRANCH  14  15
ATOM     15  C   UNL     1       2.856   5.485  19.515  0.00  0.00    +0.000 C 
ATOM     16  O   UNL     1       2.283   6.566  19.592  0.00  0.00    +0.000 OA
BRANCH  15  18
ATOM     17  C   UNL     1       1.620   3.775  18.168  0.00  0.00    +0.000 C 
ATOM     18  C   UNL     1       2.129   4.136  19.576  0.00  0.00    +0.000 C 
ATOM     19  C   UNL     1       0.929   4.231  20.525  0.00  0.00    +0.000 C 
ATOM     20  C   UNL     1       3.097   3.043  20.046  0.00  0.00    +0.000 C 
ENDBRANCH  15  18
ENDBRANCH  14  15
ENDBRANCH   1  14
TORSDOF 5
ENDMDL
MODEL 9
REMARK VINA RESULT:      -6.4      0.441      1.316
REMARK  Name = 
REMARK  8 active torsions:
REMARK  status: ('A' for Active; 'I' for Inactive)
REMARK    1  A    between atoms: C_1  and  C_2
REMARK    2  A    between atoms: C_2  and  C_3
REMARK    3  A    between atoms: C_2  and  C_4
REMARK    4  A    between atoms: C_2  and  C_5
REMARK    5  A    between atoms: C_5  and  O_7
REMARK    6  A    between atoms: O_7  and  N_8
REMARK    7  A    between atoms: C_9  and  C_11
REMARK    8  A    between atoms: C_14  and  N_15
REMARK                            x       y       z     vdW  Elec       q    Type
REMARK                         _______ _______ _______ _____ _____    ______ ____
ROOT
ATOM      1  N   UNL     1       4.528   3.871  18.290  0.00  0.00    +0.000 NA
ATOM      2  C   UNL     1       5.409   4.743  17.891  0.00  0.00    +0.000 C 
ATOM      3  N   UNL     1       5.992   5.646  18.747  0.00  0.00    +0.000 N 
ATOM      4  H   UNL     1       5.469   5.789  19.603  0.00  0.00    +0.000 HD
ATOM      5  H   UNL     1       6.333   6.499  18.320  0.00  0.00    +0.000 HD
ENDROOT
BRANCH   2   6
ATOM      6  C   UNL     1       5.721   4.692  16.462  0.00  0.00    +0.000 A 
ATOM      7  C   UNL     1       4.976   4.125  15.440  0.00  0.00    +0.000 A 
ATOM      8  C   UNL     1       5.615   4.227  14.169  0.00  0.00    +0.000 A 
ATOM      9  C   UNL     1       6.828   4.871  14.270  0.00  0.00    +0.000 A 
ATOM     10  S   UNL     1       7.175   5.374  15.855  0.00  0.00    +0.000 S 
BRANCH   9  11
ATOM     11  N   UNL     1       7.756   5.124  13.198  0.00  0.00    +0.000 N 
ATOM     12  O   UNL     1       7.499   4.590  12.110  0.00  0.00    +0.000 OA
ATOM     13  O   UNL     1       8.734   5.846  13.427  0.00  0.00    +0.000 OA
ENDBRANCH   9  11
ENDBRANCH   2   6
BRANCH   1  14
ATOM     14  O   UNL     1       4.280   3.933  19.677  0.00  0.00    +0.000 OA
BRANCH  14  15
ATOM     15  C   UNL     1       3.459   2.885  20.036  0.00  0.00    +0.000 C 
ATOM     16  O   UNL     1       3.774   1.701  20.053  0.00  0.00    +0.000 OA
BRANCH  15  18
ATOM     17  C   UNL     1       1.594   2.661  21.691  0.00  0.00    +0.000 C 
ATOM     18  C   UNL     1       2.064   3.395  20.422  0.00  0.00    +0.000 C 
ATOM     19  C   UNL     1       1.071   3.109  19.290  0.00  0.00    +0.000 C 
ATOM     20  C   UNL     1       2.122   4.900  20.715  0.00  0.00    +0.000 C 
ENDBRANCH  15  18
ENDBRANCH  14  15
ENDBRANCH   1  14
TORSDOF 5
ENDMDL
