MODEL 1
REMARK VINA RESULT:      -8.2      0.000      0.000
REMARK  Name = 
REMARK  7 active torsions:
REMARK  status: ('A' for Active; 'I' for Inactive)
REMARK    1  A    between atoms: C_1  and  C_2
REMARK    2  A    between atoms: C_2  and  C_3
REMARK    3  A    between atoms: C_6  and  C_7
REMARK    4  A    between atoms: C_6  and  C_8
REMARK    5  A    between atoms: C_11  and  C_12
REMARK    6  A    between atoms: C_13  and  C_14
REMARK    7  A    between atoms: C_17  and  N_18
REMARK                            x       y       z     vdW  Elec       q    Type
REMARK                         _______ _______ _______ _____ _____    ______ ____
ROOT
ATOM      1  C   UNL     1       6.478   4.712  17.239  0.00  0.00    +0.000 C 
ATOM      2  C   UNL     1       5.050   4.557  16.670  0.00  0.00    +0.000 C 
ATOM      3  C   UNL     1       5.079   4.888  15.155  0.00  0.00    +0.000 C 
ATOM      4  C   UNL     1       4.583   3.086  16.762  0.00  0.00    +0.000 C 
ATOM      5  C   UNL     1       3.976   2.685  18.089  0.00  0.00    +0.000 C 
ATOM      6  C   UNL     1       2.892   3.639  18.653  0.00  0.00    +0.000 C 
ATOM      7  C   UNL     1       1.497   3.197  18.152  0.00  0.00    +0.000 C 
ATOM      8  C   UNL     1       2.936   3.451  20.189  0.00  0.00    +0.000 C 
ATOM      9  C   UNL     1       3.122   5.112  18.295  0.00  0.00    +0.000 A 
ATOM     10  C   UNL     1       2.291   6.106  18.876  0.00  0.00    +0.000 A 
ATOM     11  C   UNL     1       2.468   7.481  18.636  0.00  0.00    +0.000 A 
ATOM     12  C   UNL     1       3.522   7.873  17.820  0.00  0.00    +0.000 A 
ATOM     13  C   UNL     1       4.326   6.913  17.215  0.00  0.00    +0.000 A 
ATOM     14  C   UNL     1       4.129   5.529  17.406  0.00  0.00    +0.000 A 
ENDROOT
BRANCH  11  15
ATOM     15  C   UNL     1       1.589   8.464  19.295  0.00  0.00    +0.000 C 
ATOM     16  C   UNL     1       1.302   8.463  20.601  0.00  0.00    +0.000 C 
BRANCH  16  17
ATOM     17  C   UNL     1       0.442   9.453  21.268  0.00  0.00    +0.000 A 
ATOM     18  C   UNL     1       0.006   9.300  22.588  0.00  0.00    +0.000 A 
ATOM     19  C   UNL     1      -0.810  10.271  23.184  0.00  0.00    +0.000 A 
ATOM     20  C   UNL     1      -1.157  11.431  22.498  0.00  0.00    +0.000 A 
ATOM     21  C   UNL     1      -0.746  11.574  21.171  0.00  0.00    +0.000 A 
ATOM     22  C   UNL     1       0.069  10.606  20.569  0.00  0.00    +0.000 A 
BRANCH  20  23
ATOM     23  N   UNL     1      -2.088  12.321  23.045  0.00  0.00    +0.000 N 
ATOM     24  H   UNL     1      -2.440  12.037  23.955  0.00  0.00    +0.000 HD
ATOM     25  H   UNL     1      -1.785  13.290  23.032  0.00  0.00    +0.000 HD
ENDBRANCH  20  23
ENDBRANCH  16  17
ENDBRANCH  11  15
TORSDOF 3
ENDMDL
MODEL 2
REMARK VINA RESULT:      -8.2      1.173      1.421
REMARK  Name = 
REMARK  7 active torsions:
REMARK  status: ('A' for Active; 'I' for Inactive)
REMARK    1  A    between atoms: C_1  and  C_2
REMARK    2  A    between atoms: C_2  and  C_3
REMARK    3  A    between atoms: C_6  and  C_7
REMARK    4  A    between atoms: C_6  and  C_8
REMARK    5  A    between atoms: C_11  and  C_12
REMARK    6  A    between atoms: C_13  and  C_14
REMARK    7  A    between atoms: C_17  and  N_18
REMARK                            x       y       z     vdW  Elec       q    Type
REMARK                         _______ _______ _______ _____ _____    ______ ____
ROOT
ATOM      1  C   UNL     1       5.663   4.044  18.328  0.00  0.00    +0.000 C 
ATOM      2  C   UNL     1       4.188   3.956  17.879  0.00  0.00    +0.000 C 
ATOM      3  C   UNL     1       4.099   4.346  16.381  0.00  0.00    +0.000 C 
ATOM      4  C   UNL     1       3.681   2.497  17.956  0.00  0.00    +0.000 C 
ATOM      5  C   UNL     1       3.176   2.062  19.315  0.00  0.00    +0.000 C 
ATOM      6  C   UNL     1       2.176   3.026  20.004  0.00  0.00    +0.000 C 
ATOM      7  C   UNL     1       0.729   2.646  19.610  0.00  0.00    +0.000 C 
ATOM      8  C   UNL     1       2.343   2.775  21.524  0.00  0.00    +0.000 C 
ATOM      9  C   UNL     1       2.425   4.504  19.683  0.00  0.00    +0.000 A 
ATOM     10  C   UNL     1       1.679   5.499  20.370  0.00  0.00    +0.000 A 
ATOM     11  C   UNL     1       1.882   6.876  20.167  0.00  0.00    +0.000 A 
ATOM     12  C   UNL     1       2.875   7.268  19.279  0.00  0.00    +0.000 A 
ATOM     13  C   UNL     1       3.593   6.308  18.571  0.00  0.00    +0.000 A 
ATOM     14  C   UNL     1       3.366   4.924  18.727  0.00  0.00    +0.000 A 
ENDROOT
BRANCH  11  15
ATOM     15  C   UNL     1       1.096   7.858  20.935  0.00  0.00    +0.000 C 
ATOM     16  C   UNL     1       0.632   9.009  20.437  0.00  0.00    +0.000 C 
BRANCH  16  17
ATOM     17  C   UNL     1      -0.170   9.984  21.192  0.00  0.00    +0.000 A 
ATOM     18  C   UNL     1      -0.407   9.858  22.565  0.00  0.00    +0.000 A 
ATOM     19  C   UNL     1      -1.176  10.813  23.244  0.00  0.00    +0.000 A 
ATOM     20  C   UNL     1      -1.670  11.934  22.582  0.00  0.00    +0.000 A 
ATOM     21  C   UNL     1      -1.457  12.048  21.207  0.00  0.00    +0.000 A 
ATOM     22  C   UNL     1      -0.692  11.096  20.522  0.00  0.00    +0.000 A 
BRANCH  20  23
ATOM     23  N   UNL     1      -2.554  12.802  23.232  0.00  0.00    +0.000 N 
ATOM     24  H   UNL     1      -3.498  12.782  22.856  0.00  0.00    +0.000 HD
ATOM     25  H   UNL     1      -2.538  12.721  24.243  0.00  0.00    +0.000 HD
ENDBRANCH  20  23
ENDBRANCH  16  17
ENDBRANCH  11  15
TORSDOF 3
ENDMDL
MODEL 3
REMARK VINA RESULT:      -8.1      1.583      2.067
REMARK  Name = 
REMARK  7 active torsions:
REMARK  status: ('A' for Active; 'I' for Inactive)
REMARK    1  A    between atoms: C_1  and  C_2
REMARK    2  A    between atoms: C_2  and  C_3
REMARK    3  A    between atoms: C_6  and  C_7
REMARK    4  A    between atoms: C_6  and  C_8
REMARK    5  A    between atoms: C_11  and  C_12
REMARK    6  A    between atoms: C_13  and  C_14
REMARK    7  A    between atoms: C_17  and  N_18
REMARK                            x       y       z     vdW  Elec       q    Type
REMARK                         _______ _______ _______ _____ _____    ______ ____
ROOT
ATOM      1  C   UNL     1       6.544   4.774  17.415  0.00  0.00    +0.000 C 
ATOM      2  C   UNL     1       5.154   4.589  16.766  0.00  0.00    +0.000 C 
ATOM      3  C   UNL     1       5.298   4.742  15.229  0.00  0.00    +0.000 C 
ATOM      4  C   UNL     1       4.637   3.149  16.990  0.00  0.00    +0.000 C 
ATOM      5  C   UNL     1       3.927   2.918  18.307  0.00  0.00    +0.000 C 
ATOM      6  C   UNL     1       2.837   3.956  18.679  0.00  0.00    +0.000 C 
ATOM      7  C   UNL     1       1.467   3.491  18.132  0.00  0.00    +0.000 C 
ATOM      8  C   UNL     1       2.768   3.944  20.226  0.00  0.00    +0.000 C 
ATOM      9  C   UNL     1       3.138   5.371  18.174  0.00  0.00    +0.000 A 
ATOM     10  C   UNL     1       2.300   6.445  18.577  0.00  0.00    +0.000 A 
ATOM     11  C   UNL     1       2.536   7.778  18.196  0.00  0.00    +0.000 A 
ATOM     12  C   UNL     1       3.655   8.049  17.420  0.00  0.00    +0.000 A 
ATOM     13  C   UNL     1       4.469   7.007  16.987  0.00  0.00    +0.000 A 
ATOM     14  C   UNL     1       4.216   5.659  17.319  0.00  0.00    +0.000 A 
ENDROOT
BRANCH  11  15
ATOM     15  C   UNL     1       1.645   8.851  18.675  0.00  0.00    +0.000 C 
ATOM     16  C   UNL     1       0.584   9.309  18.000  0.00  0.00    +0.000 C 
BRANCH  16  17
ATOM     17  C   UNL     1      -0.320  10.364  18.481  0.00  0.00    +0.000 A 
ATOM     18  C   UNL     1      -1.550  10.634  17.872  0.00  0.00    +0.000 A 
ATOM     19  C   UNL     1      -2.380  11.648  18.367  0.00  0.00    +0.000 A 
ATOM     20  C   UNL     1      -2.028  12.369  19.504  0.00  0.00    +0.000 A 
ATOM     21  C   UNL     1      -0.788  12.120  20.098  0.00  0.00    +0.000 A 
ATOM     22  C   UNL     1       0.047  11.109  19.607  0.00  0.00    +0.000 A 
BRANCH  20  23
ATOM     23  N   UNL     1      -2.790  13.473  19.903  0.00  0.00    +0.000 N 
ATOM     24  H   UNL     1      -2.359  14.022  20.642  0.00  0.00    +0.000 HD
ATOM     25  H   UNL     1      -3.113  14.048  19.132  0.00  0.00    +0.000 HD
ENDBRANCH  20  23
ENDBRANCH  16  17
ENDBRANCH  11  15
TORSDOF 3
ENDMDL
MODEL 4
REMARK VINA RESULT:      -8.0      1.849      2.038
REMARK  Name = 
REMARK  7 active torsions:
REMARK  status: ('A' for Active; 'I' for Inactive)
REMARK    1  A    between atoms: C_1  and  C_2
REMARK    2  A    between atoms: C_2  and  C_3
REMARK    3  A    between atoms: C_6  and  C_7
REMARK    4  A    between atoms: C_6  and  C_8
REMARK    5  A    between atoms: C_11  and  C_12
REMARK    6  A    between atoms: C_13  and  C_14
REMARK    7  A    between atoms: C_17  and  N_18
REMARK                            x       y       z     vdW  Elec       q    Type
REMARK                         _______ _______ _______ _____ _____    ______ ____
ROOT
ATOM      1  C   UNL     1       6.437   4.419  17.596  0.00  0.00    +0.000 C 
ATOM      2  C   UNL     1       5.040   4.289  16.950  0.00  0.00    +0.000 C 
ATOM      3  C   UNL     1       5.190   4.404  15.411  0.00  0.00    +0.000 C 
ATOM      4  C   UNL     1       4.451   2.882  17.203  0.00  0.00    +0.000 C 
ATOM      5  C   UNL     1       3.731   2.714  18.524  0.00  0.00    +0.000 C 
ATOM      6  C   UNL     1       2.695   3.812  18.874  0.00  0.00    +0.000 C 
ATOM      7  C   UNL     1       1.303   3.406  18.337  0.00  0.00    +0.000 C 
ATOM      8  C   UNL     1       2.627   3.836  20.422  0.00  0.00    +0.000 C 
ATOM      9  C   UNL     1       3.066   5.201  18.341  0.00  0.00    +0.000 A 
ATOM     10  C   UNL     1       2.283   6.323  18.722  0.00  0.00    +0.000 A 
ATOM     11  C   UNL     1       2.585   7.635  18.314  0.00  0.00    +0.000 A 
ATOM     12  C   UNL     1       3.716   7.833  17.533  0.00  0.00    +0.000 A 
ATOM     13  C   UNL     1       4.477   6.743  17.121  0.00  0.00    +0.000 A 
ATOM     14  C   UNL     1       4.157   5.417  17.481  0.00  0.00    +0.000 A 
ENDROOT
BRANCH  11  15
ATOM     15  C   UNL     1       1.749   8.760  18.770  0.00  0.00    +0.000 C 
ATOM     16  C   UNL     1       0.806   9.350  18.027  0.00  0.00    +0.000 C 
BRANCH  16  17
ATOM     17  C   UNL     1      -0.044  10.459  18.483  0.00  0.00    +0.000 A 
ATOM     18  C   UNL     1       0.462  11.548  19.201  0.00  0.00    +0.000 A 
ATOM     19  C   UNL     1      -0.386  12.584  19.613  0.00  0.00    +0.000 A 
ATOM     20  C   UNL     1      -1.735  12.582  19.269  0.00  0.00    +0.000 A 
ATOM     21  C   UNL     1      -2.249  11.484  18.576  0.00  0.00    +0.000 A 
ATOM     22  C   UNL     1      -1.406  10.444  18.164  0.00  0.00    +0.000 A 
BRANCH  20  23
ATOM     23  N   UNL     1      -2.600  13.542  19.806  0.00  0.00    +0.000 N 
ATOM     24  H   UNL     1      -3.004  14.164  19.111  0.00  0.00    +0.000 HD
ATOM     25  H   UNL     1      -3.298  13.158  20.435  0.00  0.00    +0.000 HD
ENDBRANCH  20  23
ENDBRANCH  16  17
ENDBRANCH  11  15
TORSDOF 3
ENDMDL
MODEL 5
REMARK VINA RESULT:      -8.0      0.466      1.102
REMARK  Name = 
REMARK  7 active torsions:
REMARK  status: ('A' for Active; 'I' for Inactive)
REMARK    1  A    between atoms: C_1  and  C_2
REMARK    2  A    between atoms: C_2  and  C_3
REMARK    3  A    between atoms: C_6  and  C_7
REMARK    4  A    between atoms: C_6  and  C_8
REMARK    5  A    between atoms: C_11  and  C_12
REMARK    6  A    between atoms: C_13  and  C_14
REMARK    7  A    between atoms: C_17  and  N_18
REMARK                            x       y       z     vdW  Elec       q    Type
REMARK                         _______ _______ _______ _____ _____    ______ ____
ROOT
ATOM      1  C   UNL     1       6.248   4.504  17.775  0.00  0.00    +0.000 C 
ATOM      2  C   UNL     1       4.832   4.362  17.175  0.00  0.00    +0.000 C 
ATOM      3  C   UNL     1       4.916   4.590  15.643  0.00  0.00    +0.000 C 
ATOM      4  C   UNL     1       4.309   2.917  17.349  0.00  0.00    +0.000 C 
ATOM      5  C   UNL     1       3.650   2.627  18.680  0.00  0.00    +0.000 C 
ATOM      6  C   UNL     1       2.587   3.655  19.146  0.00  0.00    +0.000 C 
ATOM      7  C   UNL     1       1.191   3.230  18.633  0.00  0.00    +0.000 C 
ATOM      8  C   UNL     1       2.580   3.568  20.693  0.00  0.00    +0.000 C 
ATOM      9  C   UNL     1       2.881   5.091  18.700  0.00  0.00    +0.000 A 
ATOM     10  C   UNL     1       2.071   6.151  19.189  0.00  0.00    +0.000 A 
ATOM     11  C   UNL     1       2.306   7.499  18.864  0.00  0.00    +0.000 A 
ATOM     12  C   UNL     1       3.396   7.799  18.057  0.00  0.00    +0.000 A 
ATOM     13  C   UNL     1       4.182   6.772  17.541  0.00  0.00    +0.000 A 
ATOM     14  C   UNL     1       3.928   5.412  17.817  0.00  0.00    +0.000 A 
ENDROOT
BRANCH  11  15
ATOM     15  C   UNL     1       1.446   8.554  19.430  0.00  0.00    +0.000 C 
ATOM     16  C   UNL     1       1.008   8.574  20.693  0.00  0.00    +0.000 C 
BRANCH  16  17
ATOM     17  C   UNL     1       0.166   9.634  21.269  0.00  0.00    +0.000 A 
ATOM     18  C   UNL     1      -0.307  10.711  20.513  0.00  0.00    +0.000 A 
ATOM     19  C   UNL     1      -1.108  11.697  21.104  0.00  0.00    +0.000 A 
ATOM     20  C   UNL     1      -1.497  11.597  22.437  0.00  0.00    +0.000 A 
ATOM     21  C   UNL     1      -1.004  10.537  23.201  0.00  0.00    +0.000 A 
ATOM     22  C   UNL     1      -0.201   9.550  22.617  0.00  0.00    +0.000 A 
BRANCH  20  23
ATOM     23  N   UNL     1      -2.173  12.655  23.055  0.00  0.00    +0.000 N 
ATOM     24  H   UNL     1      -3.044  12.909  22.596  0.00  0.00    +0.000 HD
ATOM     25  H   UNL     1      -2.283  12.541  24.057  0.00  0.00    +0.000 HD
ENDBRANCH  20  23
ENDBRANCH  16  17
ENDBRANCH  11  15
TORSDOF 3
ENDMDL
MODEL 6
REMARK VINA RESULT:      -8.0      3.114      8.910
REMARK  Name = 
REMARK  7 active torsions:
REMARK  status: ('A' for Active; 'I' for Inactive)
REMARK    1  A    between atoms: C_1  and  C_2
REMARK    2  A    between atoms: C_2  and  C_3
REMARK    3  A    between atoms: C_6  and  C_7
REMARK    4  A    between atoms: C_6  and  C_8
REMARK    5  A    between atoms: C_11  and  C_12
REMARK    6  A    between atoms: C_13  and  C_14
REMARK    7  A    between atoms: C_17  and  N_18
REMARK                            x       y       z     vdW  Elec       q    Type
REMARK                         _______ _______ _______ _____ _____    ______ ____
ROOT
ATOM      1  C   UNL     1      -1.024  13.601  23.132  0.00  0.00    +0.000 C 
ATOM      2  C   UNL     1      -1.929  12.635  22.335  0.00  0.00    +0.000 C 
ATOM      3  C   UNL     1      -3.167  12.283  23.201  0.00  0.00    +0.000 C 
ATOM      4  C   UNL     1      -2.493  13.332  21.074  0.00  0.00    +0.000 C 
ATOM      5  C   UNL     1      -1.586  13.302  19.863  0.00  0.00    +0.000 C 
ATOM      6  C   UNL     1      -0.986  11.918  19.502  0.00  0.00    +0.000 C 
ATOM      7  C   UNL     1      -1.927  11.182  18.519  0.00  0.00    +0.000 C 
ATOM      8  C   UNL     1       0.340  12.225  18.762  0.00  0.00    +0.000 C 
ATOM      9  C   UNL     1      -0.718  11.027  20.720  0.00  0.00    +0.000 A 
ATOM     10  C   UNL     1      -0.027   9.798  20.543  0.00  0.00    +0.000 A 
ATOM     11  C   UNL     1       0.299   8.948  21.615  0.00  0.00    +0.000 A 
ATOM     12  C   UNL     1      -0.045   9.352  22.898  0.00  0.00    +0.000 A 
ATOM     13  C   UNL     1      -0.750  10.535  23.090  0.00  0.00    +0.000 A 
ATOM     14  C   UNL     1      -1.129  11.373  22.019  0.00  0.00    +0.000 A 
ENDROOT
BRANCH  11  15
ATOM     15  C   UNL     1       1.044   7.701  21.366  0.00  0.00    +0.000 C 
ATOM     16  C   UNL     1       1.727   7.439  20.246  0.00  0.00    +0.000 C 
BRANCH  16  17
ATOM     17  C   UNL     1       2.489   6.206  20.001  0.00  0.00    +0.000 A 
ATOM     18  C   UNL     1       2.173   4.992  20.621  0.00  0.00    +0.000 A 
ATOM     19  C   UNL     1       2.926   3.841  20.354  0.00  0.00    +0.000 A 
ATOM     20  C   UNL     1       3.964   3.865  19.427  0.00  0.00    +0.000 A 
ATOM     21  C   UNL     1       4.299   5.081  18.827  0.00  0.00    +0.000 A 
ATOM     22  C   UNL     1       3.552   6.235  19.091  0.00  0.00    +0.000 A 
BRANCH  20  23
ATOM     23  N   UNL     1       4.800   2.753  19.276  0.00  0.00    +0.000 N 
ATOM     24  H   UNL     1       4.872   2.422  18.317  0.00  0.00    +0.000 HD
ATOM     25  H   UNL     1       5.707   2.859  19.719  0.00  0.00    +0.000 HD
ENDBRANCH  20  23
ENDBRANCH  16  17
ENDBRANCH  11  15
TORSDOF 3
ENDMDL
MODEL 7
REMARK VINA RESULT:      -8.0      3.750      8.778
REMARK  Name = 
REMARK  7 active torsions:
REMARK  status: ('A' for Active; 'I' for Inactive)
REMARK    1  A    between atoms: C_1  and  C_2
REMARK    2  A    between atoms: C_2  and  C_3
REMARK    3  A    between atoms: C_6  and  C_7
REMARK    4  A    between atoms: C_6  and  C_8
REMARK    5  A    between atoms: C_11  and  C_12
REMARK    6  A    between atoms: C_13  and  C_14
REMARK    7  A    between atoms: C_17  and  N_18
REMARK                            x       y       z     vdW  Elec       q    Type
REMARK                         _______ _______ _______ _____ _____    ______ ____
ROOT
ATOM      1  C   UNL     1      -1.214  13.851  19.656  0.00  0.00    +0.000 C 
ATOM      2  C   UNL     1      -1.760  12.446  19.995  0.00  0.00    +0.000 C 
ATOM      3  C   UNL     1      -1.746  12.265  21.535  0.00  0.00    +0.000 C 
ATOM      4  C   UNL     1      -3.244  12.323  19.578  0.00  0.00    +0.000 C 
ATOM      5  C   UNL     1      -3.477  11.941  18.132  0.00  0.00    +0.000 C 
ATOM      6  C   UNL     1      -2.660  10.730  17.613  0.00  0.00    +0.000 C 
ATOM      7  C   UNL     1      -3.461   9.426  17.838  0.00  0.00    +0.000 C 
ATOM      8  C   UNL     1      -2.518  10.952  16.087  0.00  0.00    +0.000 C 
ATOM      9  C   UNL     1      -1.276  10.599  18.258  0.00  0.00    +0.000 A 
ATOM     10  C   UNL     1      -0.367   9.626  17.762  0.00  0.00    +0.000 A 
ATOM     11  C   UNL     1       0.937   9.476  18.268  0.00  0.00    +0.000 A 
ATOM     12  C   UNL     1       1.354  10.340  19.272  0.00  0.00    +0.000 A 
ATOM     13  C   UNL     1       0.468  11.277  19.794  0.00  0.00    +0.000 A 
ATOM     14  C   UNL     1      -0.859  11.406  19.332  0.00  0.00    +0.000 A 
ENDROOT
BRANCH  11  15
ATOM     15  C   UNL     1       1.841   8.467  17.687  0.00  0.00    +0.000 C 
ATOM     16  C   UNL     1       2.460   7.513  18.392  0.00  0.00    +0.000 C 
BRANCH  16  17
ATOM     17  C   UNL     1       3.347   6.491  17.816  0.00  0.00    +0.000 A 
ATOM     18  C   UNL     1       3.030   5.129  17.828  0.00  0.00    +0.000 A 
ATOM     19  C   UNL     1       3.906   4.191  17.265  0.00  0.00    +0.000 A 
ATOM     20  C   UNL     1       5.078   4.597  16.633  0.00  0.00    +0.000 A 
ATOM     21  C   UNL     1       5.410   5.953  16.644  0.00  0.00    +0.000 A 
ATOM     22  C   UNL     1       4.540   6.895  17.207  0.00  0.00    +0.000 A 
BRANCH  20  23
ATOM     23  N   UNL     1       6.012   3.648  16.205  0.00  0.00    +0.000 N 
ATOM     24  H   UNL     1       6.447   3.129  16.964  0.00  0.00    +0.000 HD
ATOM     25  H   UNL     1       5.671   3.040  15.467  0.00  0.00    +0.000 HD
ENDBRANCH  20  23
ENDBRANCH  16  17
ENDBRANCH  11  15
TORSDOF 3
ENDMDL
MODEL 8
REMARK VINA RESULT:      -7.9      1.184      1.717
REMARK  Name = 
REMARK  7 active torsions:
REMARK  status: ('A' for Active; 'I' for Inactive)
REMARK    1  A    between atoms: C_1  and  C_2
REMARK    2  A    between atoms: C_2  and  C_3
REMARK    3  A    between atoms: C_6  and  C_7
REMARK    4  A    between atoms: C_6  and  C_8
REMARK    5  A    between atoms: C_11  and  C_12
REMARK    6  A    between atoms: C_13  and  C_14
REMARK    7  A    between atoms: C_17  and  N_18
REMARK                            x       y       z     vdW  Elec       q    Type
REMARK                         _______ _______ _______ _____ _____    ______ ____
ROOT
ATOM      1  C   UNL     1       5.548   3.971  18.120  0.00  0.00    +0.000 C 
ATOM      2  C   UNL     1       4.046   3.926  17.761  0.00  0.00    +0.000 C 
ATOM      3  C   UNL     1       3.883   4.274  16.258  0.00  0.00    +0.000 C 
ATOM      4  C   UNL     1       3.493   2.490  17.913  0.00  0.00    +0.000 C 
ATOM      5  C   UNL     1       3.053   2.115  19.312  0.00  0.00    +0.000 C 
ATOM      6  C   UNL     1       2.132   3.136  20.028  0.00  0.00    +0.000 C 
ATOM      7  C   UNL     1       0.652   2.800  19.730  0.00  0.00    +0.000 C 
ATOM      8  C   UNL     1       2.380   2.924  21.542  0.00  0.00    +0.000 C 
ATOM      9  C   UNL     1       2.415   4.593  19.646  0.00  0.00    +0.000 A 
ATOM     10  C   UNL     1       1.748   5.636  20.343  0.00  0.00    +0.000 A 
ATOM     11  C   UNL     1       1.988   6.997  20.085  0.00  0.00    +0.000 A 
ATOM     12  C   UNL     1       2.940   7.325  19.129  0.00  0.00    +0.000 A 
ATOM     13  C   UNL     1       3.579   6.319  18.411  0.00  0.00    +0.000 A 
ATOM     14  C   UNL     1       3.312   4.950  18.624  0.00  0.00    +0.000 A 
ENDROOT
BRANCH  11  15
ATOM     15  C   UNL     1       1.285   8.031  20.866  0.00  0.00    +0.000 C 
ATOM     16  C   UNL     1       1.046   9.274  20.432  0.00  0.00    +0.000 C 
BRANCH  16  17
ATOM     17  C   UNL     1       0.328  10.303  21.199  0.00  0.00    +0.000 A 
ATOM     18  C   UNL     1       0.319  11.650  20.821  0.00  0.00    +0.000 A 
ATOM     19  C   UNL     1      -0.382  12.596  21.581  0.00  0.00    +0.000 A 
ATOM     20  C   UNL     1      -1.128  12.210  22.691  0.00  0.00    +0.000 A 
ATOM     21  C   UNL     1      -1.098  10.871  23.086  0.00  0.00    +0.000 A 
ATOM     22  C   UNL     1      -0.398   9.921  22.332  0.00  0.00    +0.000 A 
BRANCH  20  23
ATOM     23  N   UNL     1      -1.702  13.176  23.525  0.00  0.00    +0.000 N 
ATOM     24  H   UNL     1      -1.636  14.123  23.160  0.00  0.00    +0.000 HD
ATOM     25  H   UNL     1      -2.641  12.945  23.833  0.00  0.00    +0.000 HD
ENDBRANCH  20  23
ENDBRANCH  16  17
ENDBRANCH  11  15
TORSDOF 3
ENDMDL
MODEL 9
REMARK VINA RESULT:      -7.8      3.736      8.804
REMARK  Name = 
REMARK  7 active torsions:
REMARK  status: ('A' for Active; 'I' for Inactive)
REMARK    1  A    between atoms: C_1  and  C_2
REMARK    2  A    between atoms: C_2  and  C_3
REMARK    3  A    between atoms: C_6  and  C_7
REMARK    4  A    between atoms: C_6  and  C_8
REMARK    5  A    between atoms: C_11  and  C_12
REMARK    6  A    between atoms: C_13  and  C_14
REMARK    7  A    between atoms: C_17  and  N_18
REMARK                            x       y       z     vdW  Elec       q    Type
REMARK                         _______ _______ _______ _____ _____    ______ ____
ROOT
ATOM      1  C   UNL     1      -1.088  13.797  19.694  0.00  0.00    +0.000 C 
ATOM      2  C   UNL     1      -1.650  12.398  20.033  0.00  0.00    +0.000 C 
ATOM      3  C   UNL     1      -1.615  12.207  21.571  0.00  0.00    +0.000 C 
ATOM      4  C   UNL     1      -3.143  12.301  19.639  0.00  0.00    +0.000 C 
ATOM      5  C   UNL     1      -3.404  11.932  18.195  0.00  0.00    +0.000 C 
ATOM      6  C   UNL     1      -2.615  10.711  17.655  0.00  0.00    +0.000 C 
ATOM      7  C   UNL     1      -3.432   9.418  17.884  0.00  0.00    +0.000 C 
ATOM      8  C   UNL     1      -2.494  10.941  16.128  0.00  0.00    +0.000 C 
ATOM      9  C   UNL     1      -1.223  10.555  18.277  0.00  0.00    +0.000 A 
ATOM     10  C   UNL     1      -0.337   9.571  17.760  0.00  0.00    +0.000 A 
ATOM     11  C   UNL     1       0.972   9.397  18.245  0.00  0.00    +0.000 A 
ATOM     12  C   UNL     1       1.418  10.249  19.247  0.00  0.00    +0.000 A 
ATOM     13  C   UNL     1       0.555  11.196  19.789  0.00  0.00    +0.000 A 
ATOM     14  C   UNL     1      -0.777  11.348  19.349  0.00  0.00    +0.000 A 
ENDROOT
BRANCH  11  15
ATOM     15  C   UNL     1       1.851   8.378  17.644  0.00  0.00    +0.000 C 
ATOM     16  C   UNL     1       2.722   7.632  18.332  0.00  0.00    +0.000 C 
BRANCH  16  17
ATOM     17  C   UNL     1       3.588   6.600  17.741  0.00  0.00    +0.000 A 
ATOM     18  C   UNL     1       4.850   6.891  17.213  0.00  0.00    +0.000 A 
ATOM     19  C   UNL     1       5.641   5.873  16.662  0.00  0.00    +0.000 A 
ATOM     20  C   UNL     1       5.215   4.548  16.680  0.00  0.00    +0.000 A 
ATOM     21  C   UNL     1       3.945   4.259  17.183  0.00  0.00    +0.000 A 
ATOM     22  C   UNL     1       3.148   5.272  17.732  0.00  0.00    +0.000 A 
BRANCH  20  23
ATOM     23  N   UNL     1       5.943   3.565  16.001  0.00  0.00    +0.000 N 
ATOM     24  H   UNL     1       5.459   3.183  15.192  0.00  0.00    +0.000 HD
ATOM     25  H   UNL     1       6.897   3.835  15.789  0.00  0.00    +0.000 HD
ENDBRANCH  20  23
ENDBRANCH  16  17
ENDBRANCH  11  15
TORSDOF 3
ENDMDL
