MODEL 1
REMARK VINA RESULT:      -9.4      0.000      0.000
REMARK  Name = 
REMARK  5 active torsions:
REMARK  status: ('A' for Active; 'I' for Inactive)
REMARK    1  A    between atoms: N_1  and  C_2
REMARK    2  A    between atoms: C_4  and  N_5
REMARK    3  A    between atoms: C_7  and  C_8
REMARK    4  A    between atoms: C_8  and  C_10
REMARK    5  A    between atoms: N_12  and  C_13
REMARK                            x       y       z     vdW  Elec       q    Type
REMARK                         _______ _______ _______ _____ _____    ______ ____
ROOT
ATOM      1  N   UNL     1       3.099   6.240  18.960  0.00  0.00    +0.000 N 
ATOM      2  C   UNL     1       4.460   6.336  18.783  0.00  0.00    +0.000 A 
ATOM      3  C   UNL     1       5.013   5.103  18.502  0.00  0.00    +0.000 A 
ATOM      4  C   UNL     1       3.904   4.198  18.427  0.00  0.00    +0.000 A 
ATOM      5  C   UNL     1       3.791   2.821  18.128  0.00  0.00    +0.000 A 
ATOM      6  C   UNL     1       2.534   2.210  18.087  0.00  0.00    +0.000 A 
ATOM      7  C   UNL     1       1.385   2.947  18.330  0.00  0.00    +0.000 A 
ATOM      8  C   UNL     1       1.463   4.308  18.630  0.00  0.00    +0.000 A 
ATOM      9  C   UNL     1       2.729   4.922  18.706  0.00  0.00    +0.000 A 
ENDROOT
BRANCH   1  12
ATOM     10  C   UNL     1       1.178   9.451  18.817  0.00  0.00    +0.000 A 
ATOM     11  C   UNL     1       2.010   8.384  18.450  0.00  0.00    +0.000 A 
ATOM     12  C   UNL     1       2.281   7.344  19.348  0.00  0.00    +0.000 A 
ATOM     13  C   UNL     1       1.712   7.370  20.630  0.00  0.00    +0.000 A 
ATOM     14  C   UNL     1       0.926   8.452  21.024  0.00  0.00    +0.000 A 
ATOM     15  C   UNL     1       0.683   9.496  20.133  0.00  0.00    +0.000 A 
ATOM     16 CL   UNL     1      -0.283  10.829  20.667  0.00  0.00    +0.000 Cl
BRANCH  10  17
ATOM     17  N   UNL     1       1.044  10.539  17.933  0.00  0.00    +0.000 N 
ATOM     18  H   UNL     1       0.430  10.364  17.143  0.00  0.00    +0.000 HD
ATOM     19  H   UNL     1       0.826  11.408  18.415  0.00  0.00    +0.000 HD
ENDBRANCH  10  17
ENDBRANCH   1  12
BRANCH   3  20
ATOM     20  C   UNL     1       6.448   4.831  18.313  0.00  0.00    +0.000 C 
ATOM     21  O   UNL     1       7.256   4.832  19.241  0.00  0.00    +0.000 OA
BRANCH  20  22
ATOM     22  C   UNL     1       7.016   4.515  16.910  0.00  0.00    +0.000 C 
ATOM     23  O   UNL     1       8.173   4.141  16.784  0.00  0.00    +0.000 OA
ATOM     24  N   UNL     1       6.131   4.740  15.863  0.00  0.00    +0.000 N 
ATOM     25  H   UNL     1       5.241   5.161  16.116  0.00  0.00    +0.000 HD
BRANCH  24  26
ATOM     26  C   UNL     1       6.461   4.584  14.496  0.00  0.00    +0.000 A 
ATOM     27  C   UNL     1       5.851   3.635  13.672  0.00  0.00    +0.000 A 
ATOM     28  C   UNL     1       6.296   3.491  12.370  0.00  0.00    +0.000 A 
ATOM     29  N   UNL     1       7.282   4.232  11.834  0.00  0.00    +0.000 NA
ATOM     30  C   UNL     1       7.835   5.167  12.635  0.00  0.00    +0.000 A 
ATOM     31  C   UNL     1       7.454   5.390  13.953  0.00  0.00    +0.000 A 
ENDBRANCH  24  26
ENDBRANCH  20  22
ENDBRANCH   3  20
TORSDOF 5
ENDMDL
MODEL 2
REMARK VINA RESULT:      -9.3      0.869      1.539
REMARK  Name = 
REMARK  5 active torsions:
REMARK  status: ('A' for Active; 'I' for Inactive)
REMARK    1  A    between atoms: N_1  and  C_2
REMARK    2  A    between atoms: C_4  and  N_5
REMARK    3  A    between atoms: C_7  and  C_8
REMARK    4  A    between atoms: C_8  and  C_10
REMARK    5  A    between atoms: N_12  and  C_13
REMARK                            x       y       z     vdW  Elec       q    Type
REMARK                         _______ _______ _______ _____ _____    ______ ____
ROOT
ATOM      1  N   UNL     1       3.080   6.368  18.738  0.00  0.00    +0.000 N 
ATOM      2  C   UNL     1       4.446   6.440  18.596  0.00  0.00    +0.000 A 
ATOM      3  C   UNL     1       4.996   5.184  18.434  0.00  0.00    +0.000 A 
ATOM      4  C   UNL     1       3.881   4.284  18.400  0.00  0.00    +0.000 A 
ATOM      5  C   UNL     1       3.764   2.887  18.212  0.00  0.00    +0.000 A 
ATOM      6  C   UNL     1       2.504   2.284  18.181  0.00  0.00    +0.000 A 
ATOM      7  C   UNL     1       1.355   3.046  18.327  0.00  0.00    +0.000 A 
ATOM      8  C   UNL     1       1.436   4.427  18.516  0.00  0.00    +0.000 A 
ATOM      9  C   UNL     1       2.705   5.036  18.581  0.00  0.00    +0.000 A 
ENDROOT
BRANCH   1  12
ATOM     10  C   UNL     1       0.998   8.883  20.572  0.00  0.00    +0.000 A 
ATOM     11  C   UNL     1       1.773   7.747  20.297  0.00  0.00    +0.000 A 
ATOM     12  C   UNL     1       2.261   7.506  19.007  0.00  0.00    +0.000 A 
ATOM     13  C   UNL     1       1.972   8.413  17.976  0.00  0.00    +0.000 A 
ATOM     14  C   UNL     1       1.158   9.519  18.225  0.00  0.00    +0.000 A 
ATOM     15  C   UNL     1       0.655   9.736  19.507  0.00  0.00    +0.000 A 
ATOM     16 CL   UNL     1      -0.365  11.110  19.770  0.00  0.00    +0.000 Cl
BRANCH  10  17
ATOM     17  N   UNL     1       0.417   9.013  21.848  0.00  0.00    +0.000 N 
ATOM     18  H   UNL     1       0.033   9.932  22.041  0.00  0.00    +0.000 HD
ATOM     19  H   UNL     1      -0.237   8.261  22.057  0.00  0.00    +0.000 HD
ENDBRANCH  10  17
ENDBRANCH   1  12
BRANCH   3  20
ATOM     20  C   UNL     1       6.433   4.887  18.314  0.00  0.00    +0.000 C 
ATOM     21  O   UNL     1       7.199   4.890  19.276  0.00  0.00    +0.000 OA
BRANCH  20  22
ATOM     22  C   UNL     1       7.058   4.542  16.942  0.00  0.00    +0.000 C 
ATOM     23  O   UNL     1       8.210   4.137  16.874  0.00  0.00    +0.000 OA
ATOM     24  N   UNL     1       6.229   4.779  15.852  0.00  0.00    +0.000 N 
ATOM     25  H   UNL     1       5.340   5.225  16.059  0.00  0.00    +0.000 HD
BRANCH  24  26
ATOM     26  C   UNL     1       6.618   4.599  14.504  0.00  0.00    +0.000 A 
ATOM     27  C   UNL     1       7.595   5.381  13.885  0.00  0.00    +0.000 A 
ATOM     28  C   UNL     1       7.851   5.195  12.538  0.00  0.00    +0.000 A 
ATOM     29  N   UNL     1       7.221   4.281  11.780  0.00  0.00    +0.000 NA
ATOM     30  C   UNL     1       6.305   3.511  12.404  0.00  0.00    +0.000 A 
ATOM     31  C   UNL     1       5.981   3.618  13.752  0.00  0.00    +0.000 A 
ENDBRANCH  24  26
ENDBRANCH  20  22
ENDBRANCH   3  20
TORSDOF 5
ENDMDL
MODEL 3
REMARK VINA RESULT:      -8.9      1.119      1.442
REMARK  Name = 
REMARK  5 active torsions:
REMARK  status: ('A' for Active; 'I' for Inactive)
REMARK    1  A    between atoms: N_1  and  C_2
REMARK    2  A    between atoms: C_4  and  N_5
REMARK    3  A    between atoms: C_7  and  C_8
REMARK    4  A    between atoms: C_8  and  C_10
REMARK    5  A    between atoms: N_12  and  C_13
REMARK                            x       y       z     vdW  Elec       q    Type
REMARK                         _______ _______ _______ _____ _____    ______ ____
ROOT
ATOM      1  N   UNL     1       3.032   6.475  19.178  0.00  0.00    +0.000 N 
ATOM      2  C   UNL     1       4.363   6.540  18.836  0.00  0.00    +0.000 A 
ATOM      3  C   UNL     1       4.974   5.310  18.977  0.00  0.00    +0.000 A 
ATOM      4  C   UNL     1       3.927   4.410  19.361  0.00  0.00    +0.000 A 
ATOM      5  C   UNL     1       3.884   3.018  19.609  0.00  0.00    +0.000 A 
ATOM      6  C   UNL     1       2.673   2.397  19.929  0.00  0.00    +0.000 A 
ATOM      7  C   UNL     1       1.501   3.134  20.000  0.00  0.00    +0.000 A 
ATOM      8  C   UNL     1       1.510   4.510  19.763  0.00  0.00    +0.000 A 
ATOM      9  C   UNL     1       2.733   5.147  19.472  0.00  0.00    +0.000 A 
ENDROOT
BRANCH   1  12
ATOM     10  C   UNL     1       0.787   9.186  20.453  0.00  0.00    +0.000 A 
ATOM     11  C   UNL     1       1.599   8.044  20.412  0.00  0.00    +0.000 A 
ATOM     12  C   UNL     1       2.176   7.617  19.211  0.00  0.00    +0.000 A 
ATOM     13  C   UNL     1       1.941   8.342  18.032  0.00  0.00    +0.000 A 
ATOM     14  C   UNL     1       1.093   9.450  18.050  0.00  0.00    +0.000 A 
ATOM     15  C   UNL     1       0.500   9.851  19.247  0.00  0.00    +0.000 A 
ATOM     16 CL   UNL     1      -0.560  11.220  19.223  0.00  0.00    +0.000 Cl
BRANCH  10  17
ATOM     17  N   UNL     1       0.119   9.499  21.652  0.00  0.00    +0.000 N 
ATOM     18  H   UNL     1      -0.470  10.324  21.601  0.00  0.00    +0.000 HD
ATOM     19  H   UNL     1      -0.363   8.696  22.051  0.00  0.00    +0.000 HD
ENDBRANCH  10  17
ENDBRANCH   1  12
BRANCH   3  20
ATOM     20  C   UNL     1       6.403   5.033  18.754  0.00  0.00    +0.000 C 
ATOM     21  O   UNL     1       7.242   5.087  19.651  0.00  0.00    +0.000 OA
BRANCH  20  22
ATOM     22  C   UNL     1       6.923   4.643  17.351  0.00  0.00    +0.000 C 
ATOM     23  O   UNL     1       8.060   4.213  17.213  0.00  0.00    +0.000 OA
ATOM     24  N   UNL     1       6.025   4.871  16.316  0.00  0.00    +0.000 N 
ATOM     25  H   UNL     1       5.161   5.340  16.573  0.00  0.00    +0.000 HD
BRANCH  24  26
ATOM     26  C   UNL     1       6.316   4.652  14.949  0.00  0.00    +0.000 A 
ATOM     27  C   UNL     1       5.612   3.740  14.159  0.00  0.00    +0.000 A 
ATOM     28  C   UNL     1       6.020   3.525  12.855  0.00  0.00    +0.000 A 
ATOM     29  N   UNL     1       7.057   4.165  12.284  0.00  0.00    +0.000 NA
ATOM     30  C   UNL     1       7.702   5.068  13.052  0.00  0.00    +0.000 A 
ATOM     31  C   UNL     1       7.365   5.356  14.369  0.00  0.00    +0.000 A 
ENDBRANCH  24  26
ENDBRANCH  20  22
ENDBRANCH   3  20
TORSDOF 5
ENDMDL
MODEL 4
REMARK VINA RESULT:      -8.6      1.189      1.206
REMARK  Name = 
REMARK  5 active torsions:
REMARK  status: ('A' for Active; 'I' for Inactive)
REMARK    1  A    between atoms: N_1  and  C_2
REMARK    2  A    between atoms: C_4  and  N_5
REMARK    3  A    between atoms: C_7  and  C_8
REMARK    4  A    between atoms: C_8  and  C_10
REMARK    5  A    between atoms: N_12  and  C_13
REMARK                            x       y       z     vdW  Elec       q    Type
REMARK                         _______ _______ _______ _____ _____    ______ ____
ROOT
ATOM      1  N   UNL     1       2.601   6.577  19.553  0.00  0.00    +0.000 N 
ATOM      2  C   UNL     1       3.792   6.599  18.865  0.00  0.00    +0.000 A 
ATOM      3  C   UNL     1       4.346   5.337  18.789  0.00  0.00    +0.000 A 
ATOM      4  C   UNL     1       3.393   4.467  19.410  0.00  0.00    +0.000 A 
ATOM      5  C   UNL     1       3.339   3.068  19.610  0.00  0.00    +0.000 A 
ATOM      6  C   UNL     1       2.226   2.487  20.225  0.00  0.00    +0.000 A 
ATOM      7  C   UNL     1       1.161   3.271  20.639  0.00  0.00    +0.000 A 
ATOM      8  C   UNL     1       1.184   4.655  20.458  0.00  0.00    +0.000 A 
ATOM      9  C   UNL     1       2.317   5.251  19.869  0.00  0.00    +0.000 A 
ENDROOT
BRANCH   1  12
ATOM     10  C   UNL     1       0.782   9.825  19.153  0.00  0.00    +0.000 A 
ATOM     11  C   UNL     1       1.548   8.687  18.861  0.00  0.00    +0.000 A 
ATOM     12  C   UNL     1       1.852   7.753  19.859  0.00  0.00    +0.000 A 
ATOM     13  C   UNL     1       1.385   7.958  21.166  0.00  0.00    +0.000 A 
ATOM     14  C   UNL     1       0.667   9.112  21.479  0.00  0.00    +0.000 A 
ATOM     15  C   UNL     1       0.392  10.051  20.485  0.00  0.00    +0.000 A 
ATOM     16 CL   UNL     1      -0.486  11.478  20.919  0.00  0.00    +0.000 Cl
BRANCH  10  17
ATOM     17  N   UNL     1       0.616  10.803  18.153  0.00  0.00    +0.000 N 
ATOM     18  H   UNL     1       1.349  11.505  18.128  0.00  0.00    +0.000 HD
ATOM     19  H   UNL     1       0.429  10.397  17.238  0.00  0.00    +0.000 HD
ENDBRANCH  10  17
ENDBRANCH   1  12
BRANCH   3  20
ATOM     20  C   UNL     1       5.644   5.008  18.176  0.00  0.00    +0.000 C 
ATOM     21  O   UNL     1       6.559   4.470  18.797  0.00  0.00    +0.000 OA
BRANCH  20  22
ATOM     22  C   UNL     1       5.917   5.321  16.687  0.00  0.00    +0.000 C 
ATOM     23  O   UNL     1       5.767   6.457  16.258  0.00  0.00    +0.000 OA
ATOM     24  N   UNL     1       6.281   4.221  15.919  0.00  0.00    +0.000 N 
ATOM     25  H   UNL     1       6.251   3.322  16.391  0.00  0.00    +0.000 HD
BRANCH  24  26
ATOM     26  C   UNL     1       6.510   4.266  14.524  0.00  0.00    +0.000 A 
ATOM     27  C   UNL     1       5.802   3.479  13.613  0.00  0.00    +0.000 A 
ATOM     28  C   UNL     1       6.151   3.521  12.275  0.00  0.00    +0.000 A 
ATOM     29  N   UNL     1       7.134   4.299  11.787  0.00  0.00    +0.000 NA
ATOM     30  C   UNL     1       7.784   5.077  12.678  0.00  0.00    +0.000 A 
ATOM     31  C   UNL     1       7.503   5.109  14.038  0.00  0.00    +0.000 A 
ENDBRANCH  24  26
ENDBRANCH  20  22
ENDBRANCH   3  20
TORSDOF 5
ENDMDL
MODEL 5
REMARK VINA RESULT:      -8.5      0.478      1.006
REMARK  Name = 
REMARK  5 active torsions:
REMARK  status: ('A' for Active; 'I' for Inactive)
REMARK    1  A    between atoms: N_1  and  C_2
REMARK    2  A    between atoms: C_4  and  N_5
REMARK    3  A    between atoms: C_7  and  C_8
REMARK    4  A    between atoms: C_8  and  C_10
REMARK    5  A    between atoms: N_12  and  C_13
REMARK                            x       y       z     vdW  Elec       q    Type
REMARK                         _______ _______ _______ _____ _____    ______ ____
ROOT
ATOM      1  N   UNL     1       2.999   6.320  18.944  0.00  0.00    +0.000 N 
ATOM      2  C   UNL     1       4.344   6.445  18.681  0.00  0.00    +0.000 A 
ATOM      3  C   UNL     1       4.900   5.227  18.344  0.00  0.00    +0.000 A 
ATOM      4  C   UNL     1       3.806   4.302  18.328  0.00  0.00    +0.000 A 
ATOM      5  C   UNL     1       3.699   2.927  18.016  0.00  0.00    +0.000 A 
ATOM      6  C   UNL     1       2.454   2.293  18.046  0.00  0.00    +0.000 A 
ATOM      7  C   UNL     1       1.310   3.003  18.376  0.00  0.00    +0.000 A 
ATOM      8  C   UNL     1       1.381   4.361  18.691  0.00  0.00    +0.000 A 
ATOM      9  C   UNL     1       2.638   4.998  18.694  0.00  0.00    +0.000 A 
ENDROOT
BRANCH   1  12
ATOM     10  C   UNL     1       1.072   9.529  18.997  0.00  0.00    +0.000 A 
ATOM     11  C   UNL     1       1.897   8.483  18.561  0.00  0.00    +0.000 A 
ATOM     12  C   UNL     1       2.188   7.402  19.402  0.00  0.00    +0.000 A 
ATOM     13  C   UNL     1       1.645   7.364  20.696  0.00  0.00    +0.000 A 
ATOM     14  C   UNL     1       0.866   8.424  21.158  0.00  0.00    +0.000 A 
ATOM     15  C   UNL     1       0.604   9.510  20.323  0.00  0.00    +0.000 A 
ATOM     16 CL   UNL     1      -0.353  10.813  20.941  0.00  0.00    +0.000 Cl
BRANCH  10  17
ATOM     17  N   UNL     1       0.918  10.658  18.169  0.00  0.00    +0.000 N 
ATOM     18  H   UNL     1      -0.045  10.881  17.940  0.00  0.00    +0.000 HD
ATOM     19  H   UNL     1       1.438  11.465  18.509  0.00  0.00    +0.000 HD
ENDBRANCH  10  17
ENDBRANCH   1  12
BRANCH   3  20
ATOM     20  C   UNL     1       6.325   4.986  18.059  0.00  0.00    +0.000 C 
ATOM     21  O   UNL     1       7.129   4.636  18.921  0.00  0.00    +0.000 OA
BRANCH  20  22
ATOM     22  C   UNL     1       6.884   5.158  16.628  0.00  0.00    +0.000 C 
ATOM     23  O   UNL     1       7.678   6.055  16.380  0.00  0.00    +0.000 OA
ATOM     24  N   UNL     1       6.376   4.263  15.695  0.00  0.00    +0.000 N 
ATOM     25  H   UNL     1       5.637   3.648  16.026  0.00  0.00    +0.000 HD
BRANCH  24  26
ATOM     26  C   UNL     1       6.696   4.282  14.317  0.00  0.00    +0.000 A 
ATOM     27  C   UNL     1       7.600   5.189  13.760  0.00  0.00    +0.000 A 
ATOM     28  C   UNL     1       7.789   5.195  12.390  0.00  0.00    +0.000 A 
ATOM     29  N   UNL     1       7.158   4.356  11.548  0.00  0.00    +0.000 NA
ATOM     30  C   UNL     1       6.314   3.464  12.109  0.00  0.00    +0.000 A 
ATOM     31  C   UNL     1       6.063   3.377  13.473  0.00  0.00    +0.000 A 
ENDBRANCH  24  26
ENDBRANCH  20  22
ENDBRANCH   3  20
TORSDOF 5
ENDMDL
MODEL 6
REMARK VINA RESULT:      -8.4      1.377      1.888
REMARK  Name = 
REMARK  5 active torsions:
REMARK  status: ('A' for Active; 'I' for Inactive)
REMARK    1  A    between atoms: N_1  and  C_2
REMARK    2  A    between atoms: C_4  and  N_5
REMARK    3  A    between atoms: C_7  and  C_8
REMARK    4  A    between atoms: C_8  and  C_10
REMARK    5  A    between atoms: N_12  and  C_13
REMARK                            x       y       z     vdW  Elec       q    Type
REMARK                         _______ _______ _______ _____ _____    ______ ____
ROOT
ATOM      1  N   UNL     1       2.847   6.625  19.189  0.00  0.00    +0.000 N 
ATOM      2  C   UNL     1       4.064   6.590  18.549  0.00  0.00    +0.000 A 
ATOM      3  C   UNL     1       4.682   5.367  18.722  0.00  0.00    +0.000 A 
ATOM      4  C   UNL     1       3.745   4.570  19.457  0.00  0.00    +0.000 A 
ATOM      5  C   UNL     1       3.750   3.229  19.904  0.00  0.00    +0.000 A 
ATOM      6  C   UNL     1       2.641   2.706  20.576  0.00  0.00    +0.000 A 
ATOM      7  C   UNL     1       1.522   3.492  20.804  0.00  0.00    +0.000 A 
ATOM      8  C   UNL     1       1.486   4.821  20.377  0.00  0.00    +0.000 A 
ATOM      9  C   UNL     1       2.614   5.363  19.729  0.00  0.00    +0.000 A 
ENDROOT
BRANCH   1  12
ATOM     10  C   UNL     1       0.729   9.402  20.540  0.00  0.00    +0.000 A 
ATOM     11  C   UNL     1       1.503   8.234  20.471  0.00  0.00    +0.000 A 
ATOM     12  C   UNL     1       2.030   7.794  19.251  0.00  0.00    +0.000 A 
ATOM     13  C   UNL     1       1.782   8.531  18.082  0.00  0.00    +0.000 A 
ATOM     14  C   UNL     1       0.971   9.664  18.130  0.00  0.00    +0.000 A 
ATOM     15  C   UNL     1       0.428  10.080  19.345  0.00  0.00    +0.000 A 
ATOM     16 CL   UNL     1      -0.588  11.482  19.357  0.00  0.00    +0.000 Cl
BRANCH  10  17
ATOM     17  N   UNL     1       0.108   9.731  21.760  0.00  0.00    +0.000 N 
ATOM     18  H   UNL     1      -0.835   9.370  21.861  0.00  0.00    +0.000 HD
ATOM     19  H   UNL     1       0.697   9.525  22.565  0.00  0.00    +0.000 HD
ENDBRANCH  10  17
ENDBRANCH   1  12
BRANCH   3  20
ATOM     20  C   UNL     1       6.020   5.006  18.223  0.00  0.00    +0.000 C 
ATOM     21  O   UNL     1       6.866   4.451  18.922  0.00  0.00    +0.000 OA
BRANCH  20  22
ATOM     22  C   UNL     1       6.427   5.306  16.762  0.00  0.00    +0.000 C 
ATOM     23  O   UNL     1       6.669   6.453  16.414  0.00  0.00    +0.000 OA
ATOM     24  N   UNL     1       6.436   4.199  15.923  0.00  0.00    +0.000 N 
ATOM     25  H   UNL     1       6.099   3.331  16.330  0.00  0.00    +0.000 HD
BRANCH  24  26
ATOM     26  C   UNL     1       6.711   4.254  14.537  0.00  0.00    +0.000 A 
ATOM     27  C   UNL     1       7.652   5.124  13.983  0.00  0.00    +0.000 A 
ATOM     28  C   UNL     1       7.795   5.173  12.608  0.00  0.00    +0.000 A 
ATOM     29  N   UNL     1       7.085   4.410  11.758  0.00  0.00    +0.000 NA
ATOM     30  C   UNL     1       6.205   3.550  12.314  0.00  0.00    +0.000 A 
ATOM     31  C   UNL     1       5.994   3.424  13.681  0.00  0.00    +0.000 A 
ENDBRANCH  24  26
ENDBRANCH  20  22
ENDBRANCH   3  20
TORSDOF 5
ENDMDL
MODEL 7
REMARK VINA RESULT:      -8.2      3.576      4.667
REMARK  Name = 
REMARK  5 active torsions:
REMARK  status: ('A' for Active; 'I' for Inactive)
REMARK    1  A    between atoms: N_1  and  C_2
REMARK    2  A    between atoms: C_4  and  N_5
REMARK    3  A    between atoms: C_7  and  C_8
REMARK    4  A    between atoms: C_8  and  C_10
REMARK    5  A    between atoms: N_12  and  C_13
REMARK                            x       y       z     vdW  Elec       q    Type
REMARK                         _______ _______ _______ _____ _____    ______ ____
ROOT
ATOM      1  N   UNL     1       3.179   7.170  18.114  0.00  0.00    +0.000 N 
ATOM      2  C   UNL     1       4.448   7.569  17.764  0.00  0.00    +0.000 A 
ATOM      3  C   UNL     1       5.223   6.489  17.389  0.00  0.00    +0.000 A 
ATOM      4  C   UNL     1       4.345   5.357  17.443  0.00  0.00    +0.000 A 
ATOM      5  C   UNL     1       4.507   3.987  17.134  0.00  0.00    +0.000 A 
ATOM      6  C   UNL     1       3.425   3.108  17.245  0.00  0.00    +0.000 A 
ATOM      7  C   UNL     1       2.182   3.569  17.649  0.00  0.00    +0.000 A 
ATOM      8  C   UNL     1       1.990   4.916  17.962  0.00  0.00    +0.000 A 
ATOM      9  C   UNL     1       3.085   5.800  17.885  0.00  0.00    +0.000 A 
ENDROOT
BRANCH   1  12
ATOM     10  C   UNL     1       0.922   8.972  20.498  0.00  0.00    +0.000 A 
ATOM     11  C   UNL     1       1.866   8.069  19.988  0.00  0.00    +0.000 A 
ATOM     12  C   UNL     1       2.192   8.066  18.626  0.00  0.00    +0.000 A 
ATOM     13  C   UNL     1       1.568   8.978  17.761  0.00  0.00    +0.000 A 
ATOM     14  C   UNL     1       0.590   9.846  18.248  0.00  0.00    +0.000 A 
ATOM     15  C   UNL     1       0.251   9.823  19.600  0.00  0.00    +0.000 A 
ATOM     16 CL   UNL     1      -0.980  10.903  20.160  0.00  0.00    +0.000 Cl
BRANCH  10  17
ATOM     17  N   UNL     1       0.526   8.848  21.844  0.00  0.00    +0.000 N 
ATOM     18  H   UNL     1       0.948   9.528  22.468  0.00  0.00    +0.000 HD
ATOM     19  H   UNL     1      -0.484   8.791  21.949  0.00  0.00    +0.000 HD
ENDBRANCH  10  17
ENDBRANCH   1  12
BRANCH   3  20
ATOM     20  C   UNL     1       6.645   6.545  17.011  0.00  0.00    +0.000 C 
ATOM     21  O   UNL     1       7.113   5.904  16.072  0.00  0.00    +0.000 OA
BRANCH  20  22
ATOM     22  C   UNL     1       7.635   7.441  17.791  0.00  0.00    +0.000 C 
ATOM     23  O   UNL     1       8.338   6.963  18.671  0.00  0.00    +0.000 OA
ATOM     24  N   UNL     1       7.604   8.784  17.437  0.00  0.00    +0.000 N 
ATOM     25  H   UNL     1       6.886   9.051  16.769  0.00  0.00    +0.000 HD
BRANCH  24  26
ATOM     26  C   UNL     1       8.374   9.790  18.066  0.00  0.00    +0.000 A 
ATOM     27  C   UNL     1       9.116   9.565  19.227  0.00  0.00    +0.000 A 
ATOM     28  C   UNL     1       9.770  10.627  19.825  0.00  0.00    +0.000 A 
ATOM     29  N   UNL     1       9.750  11.881  19.338  0.00  0.00    +0.000 NA
ATOM     30  C   UNL     1       9.057  12.072  18.196  0.00  0.00    +0.000 A 
ATOM     31  C   UNL     1       8.373  11.070  17.520  0.00  0.00    +0.000 A 
ENDBRANCH  24  26
ENDBRANCH  20  22
ENDBRANCH   3  20
TORSDOF 5
ENDMDL
MODEL 8
REMARK VINA RESULT:      -8.2      3.475      4.491
REMARK  Name = 
REMARK  5 active torsions:
REMARK  status: ('A' for Active; 'I' for Inactive)
REMARK    1  A    between atoms: N_1  and  C_2
REMARK    2  A    between atoms: C_4  and  N_5
REMARK    3  A    between atoms: C_7  and  C_8
REMARK    4  A    between atoms: C_8  and  C_10
REMARK    5  A    between atoms: N_12  and  C_13
REMARK                            x       y       z     vdW  Elec       q    Type
REMARK                         _______ _______ _______ _____ _____    ______ ____
ROOT
ATOM      1  N   UNL     1       3.115   7.179  18.261  0.00  0.00    +0.000 N 
ATOM      2  C   UNL     1       4.370   7.592  17.878  0.00  0.00    +0.000 A 
ATOM      3  C   UNL     1       5.120   6.531  17.408  0.00  0.00    +0.000 A 
ATOM      4  C   UNL     1       4.238   5.402  17.437  0.00  0.00    +0.000 A 
ATOM      5  C   UNL     1       4.377   4.050  17.045  0.00  0.00    +0.000 A 
ATOM      6  C   UNL     1       3.296   3.171  17.154  0.00  0.00    +0.000 A 
ATOM      7  C   UNL     1       2.075   3.614  17.640  0.00  0.00    +0.000 A 
ATOM      8  C   UNL     1       1.906   4.942  18.036  0.00  0.00    +0.000 A 
ATOM      9  C   UNL     1       3.002   5.824  17.960  0.00  0.00    +0.000 A 
ENDROOT
BRANCH   1  12
ATOM     10  C   UNL     1       0.564   9.885  18.702  0.00  0.00    +0.000 A 
ATOM     11  C   UNL     1       1.531   9.053  18.119  0.00  0.00    +0.000 A 
ATOM     12  C   UNL     1       2.157   8.048  18.866  0.00  0.00    +0.000 A 
ATOM     13  C   UNL     1       1.813   7.870  20.215  0.00  0.00    +0.000 A 
ATOM     14  C   UNL     1       0.891   8.725  20.819  0.00  0.00    +0.000 A 
ATOM     15  C   UNL     1       0.292   9.740  20.075  0.00  0.00    +0.000 A 
ATOM     16 CL   UNL     1      -0.833  10.790  20.867  0.00  0.00    +0.000 Cl
BRANCH  10  17
ATOM     17  N   UNL     1       0.062  10.966  17.953  0.00  0.00    +0.000 N 
ATOM     18  H   UNL     1       0.755  11.438  17.382  0.00  0.00    +0.000 HD
ATOM     19  H   UNL     1      -0.778  10.722  17.432  0.00  0.00    +0.000 HD
ENDBRANCH  10  17
ENDBRANCH   1  12
BRANCH   3  20
ATOM     20  C   UNL     1       6.524   6.603  16.971  0.00  0.00    +0.000 C 
ATOM     21  O   UNL     1       6.949   6.001  15.986  0.00  0.00    +0.000 OA
BRANCH  20  22
ATOM     22  C   UNL     1       7.550   7.466  17.742  0.00  0.00    +0.000 C 
ATOM     23  O   UNL     1       8.270   6.957  18.590  0.00  0.00    +0.000 OA
ATOM     24  N   UNL     1       7.528   8.818  17.421  0.00  0.00    +0.000 N 
ATOM     25  H   UNL     1       6.795   9.110  16.780  0.00  0.00    +0.000 HD
BRANCH  24  26
ATOM     26  C   UNL     1       8.331   9.798  18.051  0.00  0.00    +0.000 A 
ATOM     27  C   UNL     1       9.061   9.548  19.215  0.00  0.00    +0.000 A 
ATOM     28  C   UNL     1       9.749  10.588  19.812  0.00  0.00    +0.000 A 
ATOM     29  N   UNL     1       9.774  11.841  19.324  0.00  0.00    +0.000 NA
ATOM     30  C   UNL     1       9.092  12.055  18.180  0.00  0.00    +0.000 A 
ATOM     31  C   UNL     1       8.375  11.075  17.503  0.00  0.00    +0.000 A 
ENDBRANCH  24  26
ENDBRANCH  20  22
ENDBRANCH   3  20
TORSDOF 5
ENDMDL
MODEL 9
REMARK VINA RESULT:      -8.0      1.258      1.333
REMARK  Name = 
REMARK  5 active torsions:
REMARK  status: ('A' for Active; 'I' for Inactive)
REMARK    1  A    between atoms: N_1  and  C_2
REMARK    2  A    between atoms: C_4  and  N_5
REMARK    3  A    between atoms: C_7  and  C_8
REMARK    4  A    between atoms: C_8  and  C_10
REMARK    5  A    between atoms: N_12  and  C_13
REMARK                            x       y       z     vdW  Elec       q    Type
REMARK                         _______ _______ _______ _____ _____    ______ ____
ROOT
ATOM      1  N   UNL     1       3.014   6.929  18.309  0.00  0.00    +0.000 N 
ATOM      2  C   UNL     1       4.220   7.271  17.744  0.00  0.00    +0.000 A 
ATOM      3  C   UNL     1       4.879   6.156  17.263  0.00  0.00    +0.000 A 
ATOM      4  C   UNL     1       3.981   5.062  17.484  0.00  0.00    +0.000 A 
ATOM      5  C   UNL     1       4.036   3.682  17.178  0.00  0.00    +0.000 A 
ATOM      6  C   UNL     1       2.955   2.850  17.485  0.00  0.00    +0.000 A 
ATOM      7  C   UNL     1       1.817   3.365  18.085  0.00  0.00    +0.000 A 
ATOM      8  C   UNL     1       1.732   4.723  18.401  0.00  0.00    +0.000 A 
ATOM      9  C   UNL     1       2.830   5.561  18.124  0.00  0.00    +0.000 A 
ENDROOT
BRANCH   1  12
ATOM     10  C   UNL     1       0.751   9.854  18.892  0.00  0.00    +0.000 A 
ATOM     11  C   UNL     1       1.616   8.950  18.260  0.00  0.00    +0.000 A 
ATOM     12  C   UNL     1       2.162   7.869  18.963  0.00  0.00    +0.000 A 
ATOM     13  C   UNL     1       1.839   7.689  20.317  0.00  0.00    +0.000 A 
ATOM     14  C   UNL     1       1.021   8.611  20.970  0.00  0.00    +0.000 A 
ATOM     15  C   UNL     1       0.504   9.699  20.268  0.00  0.00    +0.000 A 
ATOM     16 CL   UNL     1      -0.492  10.831  21.119  0.00  0.00    +0.000 Cl
BRANCH  10  17
ATOM     17  N   UNL     1       0.335  10.999  18.185  0.00  0.00    +0.000 N 
ATOM     18  H   UNL     1      -0.572  10.909  17.739  0.00  0.00    +0.000 HD
ATOM     19  H   UNL     1       0.420  11.850  18.736  0.00  0.00    +0.000 HD
ENDBRANCH  10  17
ENDBRANCH   1  12
BRANCH   3  20
ATOM     20  C   UNL     1       6.218   6.151  16.651  0.00  0.00    +0.000 C 
ATOM     21  O   UNL     1       7.082   6.981  16.926  0.00  0.00    +0.000 OA
BRANCH  20  22
ATOM     22  C   UNL     1       6.609   5.071  15.616  0.00  0.00    +0.000 C 
ATOM     23  O   UNL     1       7.547   4.317  15.836  0.00  0.00    +0.000 OA
ATOM     24  N   UNL     1       5.853   5.083  14.450  0.00  0.00    +0.000 N 
ATOM     25  H   UNL     1       5.183   5.842  14.364  0.00  0.00    +0.000 HD
BRANCH  24  26
ATOM     26  C   UNL     1       6.082   4.230  13.345  0.00  0.00    +0.000 A 
ATOM     27  C   UNL     1       5.163   3.264  12.928  0.00  0.00    +0.000 A 
ATOM     28  C   UNL     1       5.506   2.414  11.892  0.00  0.00    +0.000 A 
ATOM     29  N   UNL     1       6.679   2.474  11.237  0.00  0.00    +0.000 NA
ATOM     30  C   UNL     1       7.539   3.437  11.631  0.00  0.00    +0.000 A 
ATOM     31  C   UNL     1       7.285   4.339  12.657  0.00  0.00    +0.000 A 
ENDBRANCH  24  26
ENDBRANCH  20  22
ENDBRANCH   3  20
TORSDOF 5
ENDMDL
