MODEL 1
REMARK VINA RESULT:      -7.6      0.000      0.000
REMARK  Name = 
REMARK  5 active torsions:
REMARK  status: ('A' for Active; 'I' for Inactive)
REMARK    1  A    between atoms: C_2  and  C_3
REMARK    2  A    between atoms: N_10  and  C_11
REMARK    3  A    between atoms: C_11  and  C_12
REMARK    4  A    between atoms: C_18  and  C_19
REMARK    5  A    between atoms: C_19  and  C_20
REMARK                            x       y       z     vdW  Elec       q    Type
REMARK                         _______ _______ _______ _____ _____    ______ ____
ROOT
ATOM      1  C   UNL     1      -1.059  12.042  21.503  0.00  0.00    +0.000 C 
ATOM      2  O   UNL     1      -1.026  10.682  21.950  0.00  0.00    +0.000 OA
ATOM      3  C   UNL     1       0.295  10.200  21.633  0.00  0.00    +0.000 C 
ATOM      4  O   UNL     1       1.146  11.344  21.528  0.00  0.00    +0.000 OA
ATOM      5  C   UNL     1       0.290  12.244  20.822  0.00  0.00    +0.000 C 
ATOM      6  C   UNL     1       0.105  11.835  19.354  0.00  0.00    +0.000 C 
ATOM      7  O   UNL     1      -0.017  12.685  18.468  0.00  0.00    +0.000 OA
ATOM      8  N   UNL     1      -0.059  10.460  19.144  0.00  0.00    +0.000 N 
ATOM      9  C   UNL     1       0.335   9.475  20.239  0.00  0.00    +0.000 C 
ENDROOT
BRANCH   1  11
ATOM     10  O   UNL     1      -0.413  13.441  23.385  0.00  0.00    +0.000 OA
ATOM     11  C   UNL     1      -1.299  13.144  22.566  0.00  0.00    +0.000 C 
ATOM     12  N   UNL     1      -2.496  13.859  22.537  0.00  0.00    +0.000 N 
ATOM     13  C   UNL     1      -3.614  13.590  21.626  0.00  0.00    +0.000 C 
ATOM     14  C   UNL     1      -4.923  13.347  22.379  0.00  0.00    +0.000 C 
ATOM     15  S   UNL     1      -5.417  14.789  23.378  0.00  0.00    +0.000 S 
ATOM     16  C   UNL     1      -3.872  14.953  24.333  0.00  0.00    +0.000 C 
ATOM     17  C   UNL     1      -2.651  15.034  23.416  0.00  0.00    +0.000 C 
ENDBRANCH   1  11
BRANCH   8  18
ATOM     18  C   UNL     1      -0.472  10.023  17.808  0.00  0.00    +0.000 C 
BRANCH  18  19
ATOM     19  C   UNL     1      -1.928  10.271  17.428  0.00  0.00    +0.000 A 
ATOM     20  C   UNL     1      -2.848  10.770  18.373  0.00  0.00    +0.000 A 
ATOM     21  C   UNL     1      -4.118  11.238  17.988  0.00  0.00    +0.000 A 
ATOM     22  C   UNL     1      -4.489  11.204  16.649  0.00  0.00    +0.000 A 
ATOM     23  C   UNL     1      -3.629  10.638  15.715  0.00  0.00    +0.000 A 
ATOM     24  C   UNL     1      -2.368  10.163  16.097  0.00  0.00    +0.000 A 
ENDBRANCH  18  19
ENDBRANCH   8  18
BRANCH   9  25
ATOM     25  C   UNL     1       1.779   8.882  20.041  0.00  0.00    +0.000 C 
BRANCH  25  26
ATOM     26  C   UNL     1       1.887   7.402  19.662  0.00  0.00    +0.000 A 
ATOM     27  C   UNL     1       2.330   6.977  18.402  0.00  0.00    +0.000 A 
ATOM     28  C   UNL     1       2.515   5.613  18.124  0.00  0.00    +0.000 A 
ATOM     29  C   UNL     1       2.285   4.655  19.110  0.00  0.00    +0.000 A 
ATOM     30  C   UNL     1       1.824   5.053  20.361  0.00  0.00    +0.000 A 
ATOM     31  C   UNL     1       1.617   6.417  20.626  0.00  0.00    +0.000 A 
ENDBRANCH  25  26
ENDBRANCH   9  25
TORSDOF 5
ENDMDL
MODEL 2
REMARK VINA RESULT:      -7.6      3.076      7.757
REMARK  Name = 
REMARK  5 active torsions:
REMARK  status: ('A' for Active; 'I' for Inactive)
REMARK    1  A    between atoms: C_2  and  C_3
REMARK    2  A    between atoms: N_10  and  C_11
REMARK    3  A    between atoms: C_11  and  C_12
REMARK    4  A    between atoms: C_18  and  C_19
REMARK    5  A    between atoms: C_19  and  C_20
REMARK                            x       y       z     vdW  Elec       q    Type
REMARK                         _______ _______ _______ _____ _____    ______ ____
ROOT
ATOM      1  C   UNL     1       0.809   9.745  19.500  0.00  0.00    +0.000 C 
ATOM      2  O   UNL     1      -0.579   9.395  19.565  0.00  0.00    +0.000 OA
ATOM      3  C   UNL     1      -1.296  10.560  19.113  0.00  0.00    +0.000 C 
ATOM      4  O   UNL     1      -0.393  11.326  18.312  0.00  0.00    +0.000 OA
ATOM      5  C   UNL     1       0.804  11.212  19.086  0.00  0.00    +0.000 C 
ATOM      6  C   UNL     1       0.735  12.032  20.381  0.00  0.00    +0.000 C 
ATOM      7  O   UNL     1       1.740  12.581  20.840  0.00  0.00    +0.000 OA
ATOM      8  N   UNL     1      -0.496  11.974  21.049  0.00  0.00    +0.000 N 
ATOM      9  C   UNL     1      -1.735  11.479  20.309  0.00  0.00    +0.000 C 
ENDROOT
BRANCH   1  11
ATOM     10  O   UNL     1       1.955   9.312  17.399  0.00  0.00    +0.000 OA
ATOM     11  C   UNL     1       1.716   8.919  18.553  0.00  0.00    +0.000 C 
ATOM     12  N   UNL     1       2.330   7.768  19.043  0.00  0.00    +0.000 N 
ATOM     13  C   UNL     1       2.113   7.205  20.381  0.00  0.00    +0.000 C 
ATOM     14  C   UNL     1       1.658   5.746  20.323  0.00  0.00    +0.000 C 
ATOM     15  S   UNL     1       2.890   4.674  19.514  0.00  0.00    +0.000 S 
ATOM     16  C   UNL     1       3.030   5.612  17.956  0.00  0.00    +0.000 C 
ATOM     17  C   UNL     1       3.344   7.086  18.215  0.00  0.00    +0.000 C 
ENDBRANCH   1  11
BRANCH   8  18
ATOM     18  C   UNL     1      -0.562  12.536  22.400  0.00  0.00    +0.000 C 
BRANCH  18  19
ATOM     19  C   UNL     1      -1.941  12.956  22.898  0.00  0.00    +0.000 A 
ATOM     20  C   UNL     1      -2.799  12.027  23.521  0.00  0.00    +0.000 A 
ATOM     21  C   UNL     1      -3.958  12.440  24.205  0.00  0.00    +0.000 A 
ATOM     22  C   UNL     1      -4.279  13.791  24.265  0.00  0.00    +0.000 A 
ATOM     23  C   UNL     1      -3.492  14.713  23.585  0.00  0.00    +0.000 A 
ATOM     24  C   UNL     1      -2.343  14.303  22.896  0.00  0.00    +0.000 A 
ENDBRANCH  18  19
ENDBRANCH   8  18
BRANCH   9  25
ATOM     25  C   UNL     1      -2.610  12.651  19.727  0.00  0.00    +0.000 C 
BRANCH  25  26
ATOM     26  C   UNL     1      -4.114  12.402  19.583  0.00  0.00    +0.000 A 
ATOM     27  C   UNL     1      -4.675  11.819  18.438  0.00  0.00    +0.000 A 
ATOM     28  C   UNL     1      -6.043  11.512  18.381  0.00  0.00    +0.000 A 
ATOM     29  C   UNL     1      -6.868  11.757  19.478  0.00  0.00    +0.000 A 
ATOM     30  C   UNL     1      -6.336  12.355  20.616  0.00  0.00    +0.000 A 
ATOM     31  C   UNL     1      -4.971  12.683  20.659  0.00  0.00    +0.000 A 
ENDBRANCH  25  26
ENDBRANCH   9  25
TORSDOF 5
ENDMDL
MODEL 3
REMARK VINA RESULT:      -7.4      3.167      7.954
REMARK  Name = 
REMARK  5 active torsions:
REMARK  status: ('A' for Active; 'I' for Inactive)
REMARK    1  A    between atoms: C_2  and  C_3
REMARK    2  A    between atoms: N_10  and  C_11
REMARK    3  A    between atoms: C_11  and  C_12
REMARK    4  A    between atoms: C_18  and  C_19
REMARK    5  A    between atoms: C_19  and  C_20
REMARK                            x       y       z     vdW  Elec       q    Type
REMARK                         _______ _______ _______ _____ _____    ______ ____
ROOT
ATOM      1  C   UNL     1       0.860  10.027  19.468  0.00  0.00    +0.000 C 
ATOM      2  O   UNL     1      -0.515   9.751  19.758  0.00  0.00    +0.000 OA
ATOM      3  C   UNL     1      -1.255  10.872  19.237  0.00  0.00    +0.000 C 
ATOM      4  O   UNL     1      -0.445  11.480  18.228  0.00  0.00    +0.000 OA
ATOM      5  C   UNL     1       0.839  11.422  18.852  0.00  0.00    +0.000 C 
ATOM      6  C   UNL     1       0.961  12.416  20.016  0.00  0.00    +0.000 C 
ATOM      7  O   UNL     1       2.031  12.979  20.260  0.00  0.00    +0.000 OA
ATOM      8  N   UNL     1      -0.173  12.505  20.835  0.00  0.00    +0.000 N 
ATOM      9  C   UNL     1      -1.510  11.967  20.335  0.00  0.00    +0.000 C 
ENDROOT
BRANCH   1  11
ATOM     10  O   UNL     1       1.797   9.307  17.342  0.00  0.00    +0.000 OA
ATOM     11  C   UNL     1       1.614   9.039  18.542  0.00  0.00    +0.000 C 
ATOM     12  N   UNL     1       2.160   7.882  19.094  0.00  0.00    +0.000 N 
ATOM     13  C   UNL     1       1.998   7.460  20.491  0.00  0.00    +0.000 C 
ATOM     14  C   UNL     1       1.412   6.052  20.601  0.00  0.00    +0.000 C 
ATOM     15  S   UNL     1       2.477   4.801  19.812  0.00  0.00    +0.000 S 
ATOM     16  C   UNL     1       2.579   5.583  18.168  0.00  0.00    +0.000 C 
ATOM     17  C   UNL     1       3.042   7.037  18.266  0.00  0.00    +0.000 C 
ENDBRANCH   1  11
BRANCH   8  18
ATOM     18  C   UNL     1      -0.046  13.250  22.089  0.00  0.00    +0.000 C 
BRANCH  18  19
ATOM     19  C   UNL     1      -1.228  13.174  23.050  0.00  0.00    +0.000 A 
ATOM     20  C   UNL     1      -1.693  14.326  23.718  0.00  0.00    +0.000 A 
ATOM     21  C   UNL     1      -2.921  14.331  24.407  0.00  0.00    +0.000 A 
ATOM     22  C   UNL     1      -3.695  13.178  24.445  0.00  0.00    +0.000 A 
ATOM     23  C   UNL     1      -3.214  12.011  23.865  0.00  0.00    +0.000 A 
ATOM     24  C   UNL     1      -1.989  11.999  23.188  0.00  0.00    +0.000 A 
ENDBRANCH  18  19
ENDBRANCH   8  18
BRANCH   9  25
ATOM     25  C   UNL     1      -2.423  13.084  19.707  0.00  0.00    +0.000 C 
BRANCH  25  26
ATOM     26  C   UNL     1      -3.695  13.466  20.471  0.00  0.00    +0.000 A 
ATOM     27  C   UNL     1      -3.939  14.770  20.924  0.00  0.00    +0.000 A 
ATOM     28  C   UNL     1      -5.159  15.107  21.529  0.00  0.00    +0.000 A 
ATOM     29  C   UNL     1      -6.166  14.153  21.667  0.00  0.00    +0.000 A 
ATOM     30  C   UNL     1      -5.937  12.848  21.243  0.00  0.00    +0.000 A 
ATOM     31  C   UNL     1      -4.706  12.509  20.661  0.00  0.00    +0.000 A 
ENDBRANCH  25  26
ENDBRANCH   9  25
TORSDOF 5
ENDMDL
MODEL 4
REMARK VINA RESULT:      -7.4      3.062      7.683
REMARK  Name = 
REMARK  5 active torsions:
REMARK  status: ('A' for Active; 'I' for Inactive)
REMARK    1  A    between atoms: C_2  and  C_3
REMARK    2  A    between atoms: N_10  and  C_11
REMARK    3  A    between atoms: C_11  and  C_12
REMARK    4  A    between atoms: C_18  and  C_19
REMARK    5  A    between atoms: C_19  and  C_20
REMARK                            x       y       z     vdW  Elec       q    Type
REMARK                         _______ _______ _______ _____ _____    ______ ____
ROOT
ATOM      1  C   UNL     1       0.964   9.835  19.412  0.00  0.00    +0.000 C 
ATOM      2  O   UNL     1      -0.386   9.478  19.730  0.00  0.00    +0.000 OA
ATOM      3  C   UNL     1      -1.207  10.527  19.180  0.00  0.00    +0.000 C 
ATOM      4  O   UNL     1      -0.451  11.150  18.138  0.00  0.00    +0.000 OA
ATOM      5  C   UNL     1       0.841  11.202  18.747  0.00  0.00    +0.000 C 
ATOM      6  C   UNL     1       0.909  12.244  19.871  0.00  0.00    +0.000 C 
ATOM      7  O   UNL     1       1.941  12.886  20.081  0.00  0.00    +0.000 OA
ATOM      8  N   UNL     1      -0.219  12.286  20.702  0.00  0.00    +0.000 N 
ATOM      9  C   UNL     1      -1.522  11.642  20.241  0.00  0.00    +0.000 C 
ENDROOT
BRANCH   1  11
ATOM     10  O   UNL     1       2.009   9.150  17.325  0.00  0.00    +0.000 OA
ATOM     11  C   UNL     1       1.773   8.867  18.512  0.00  0.00    +0.000 C 
ATOM     12  N   UNL     1       2.305   7.709  19.076  0.00  0.00    +0.000 N 
ATOM     13  C   UNL     1       2.083   7.269  20.459  0.00  0.00    +0.000 C 
ATOM     14  C   UNL     1       1.509   5.853  20.525  0.00  0.00    +0.000 C 
ATOM     15  S   UNL     1       2.625   4.624  19.774  0.00  0.00    +0.000 S 
ATOM     16  C   UNL     1       2.795   5.426  18.145  0.00  0.00    +0.000 C 
ATOM     17  C   UNL     1       3.235   6.885  18.281  0.00  0.00    +0.000 C 
ENDBRANCH   1  11
BRANCH   8  18
ATOM     18  C   UNL     1      -0.129  13.084  21.927  0.00  0.00    +0.000 C 
BRANCH  18  19
ATOM     19  C   UNL     1      -1.408  13.225  22.745  0.00  0.00    +0.000 A 
ATOM     20  C   UNL     1      -2.067  14.468  22.851  0.00  0.00    +0.000 A 
ATOM     21  C   UNL     1      -3.365  14.569  23.385  0.00  0.00    +0.000 A 
ATOM     22  C   UNL     1      -4.019  13.426  23.830  0.00  0.00    +0.000 A 
ATOM     23  C   UNL     1      -3.354  12.206  23.812  0.00  0.00    +0.000 A 
ATOM     24  C   UNL     1      -2.059  12.104  23.290  0.00  0.00    +0.000 A 
ENDBRANCH  18  19
ENDBRANCH   8  18
BRANCH   9  25
ATOM     25  C   UNL     1      -2.517  12.670  19.586  0.00  0.00    +0.000 C 
BRANCH  25  26
ATOM     26  C   UNL     1      -3.982  12.245  19.450  0.00  0.00    +0.000 A 
ATOM     27  C   UNL     1      -4.936  12.499  20.445  0.00  0.00    +0.000 A 
ATOM     28  C   UNL     1      -6.289  12.188  20.244  0.00  0.00    +0.000 A 
ATOM     29  C   UNL     1      -6.715  11.642  19.034  0.00  0.00    +0.000 A 
ATOM     30  C   UNL     1      -5.782  11.362  18.041  0.00  0.00    +0.000 A 
ATOM     31  C   UNL     1      -4.425  11.653  18.256  0.00  0.00    +0.000 A 
ENDBRANCH  25  26
ENDBRANCH   9  25
TORSDOF 5
ENDMDL
MODEL 5
REMARK VINA RESULT:      -7.4      3.236      8.150
REMARK  Name = 
REMARK  5 active torsions:
REMARK  status: ('A' for Active; 'I' for Inactive)
REMARK    1  A    between atoms: C_2  and  C_3
REMARK    2  A    between atoms: N_10  and  C_11
REMARK    3  A    between atoms: C_11  and  C_12
REMARK    4  A    between atoms: C_18  and  C_19
REMARK    5  A    between atoms: C_19  and  C_20
REMARK                            x       y       z     vdW  Elec       q    Type
REMARK                         _______ _______ _______ _____ _____    ______ ____
ROOT
ATOM      1  C   UNL     1       0.610   9.480  19.189  0.00  0.00    +0.000 C 
ATOM      2  O   UNL     1      -0.647   9.815  18.588  0.00  0.00    +0.000 OA
ATOM      3  C   UNL     1      -0.803  11.234  18.778  0.00  0.00    +0.000 C 
ATOM      4  O   UNL     1       0.505  11.780  18.968  0.00  0.00    +0.000 OA
ATOM      5  C   UNL     1       1.083  10.786  19.817  0.00  0.00    +0.000 C 
ATOM      6  C   UNL     1       0.499  10.827  21.236  0.00  0.00    +0.000 C 
ATOM      7  O   UNL     1       1.200  10.569  22.218  0.00  0.00    +0.000 OA
ATOM      8  N   UNL     1      -0.886  11.027  21.296  0.00  0.00    +0.000 N 
ATOM      9  C   UNL     1      -1.626  11.565  20.075  0.00  0.00    +0.000 C 
ENDROOT
BRANCH   1  11
ATOM     10  O   UNL     1       1.982   9.419  17.182  0.00  0.00    +0.000 OA
ATOM     11  C   UNL     1       1.712   8.889  18.273  0.00  0.00    +0.000 C 
ATOM     12  N   UNL     1       2.455   7.802  18.729  0.00  0.00    +0.000 N 
ATOM     13  C   UNL     1       2.218   7.092  19.991  0.00  0.00    +0.000 C 
ATOM     14  C   UNL     1       2.004   5.593  19.775  0.00  0.00    +0.000 C 
ATOM     15  S   UNL     1       3.452   4.796  19.007  0.00  0.00    +0.000 S 
ATOM     16  C   UNL     1       3.574   5.885  17.549  0.00  0.00    +0.000 C 
ATOM     17  C   UNL     1       3.629   7.359  17.952  0.00  0.00    +0.000 C 
ENDBRANCH   1  11
BRANCH   8  18
ATOM     18  C   UNL     1      -1.541  10.845  22.593  0.00  0.00    +0.000 C 
BRANCH  18  19
ATOM     19  C   UNL     1      -1.994  12.112  23.313  0.00  0.00    +0.000 A 
ATOM     20  C   UNL     1      -1.153  13.241  23.388  0.00  0.00    +0.000 A 
ATOM     21  C   UNL     1      -1.636  14.490  23.822  0.00  0.00    +0.000 A 
ATOM     22  C   UNL     1      -2.968  14.622  24.196  0.00  0.00    +0.000 A 
ATOM     23  C   UNL     1      -3.790  13.502  24.209  0.00  0.00    +0.000 A 
ATOM     24  C   UNL     1      -3.310  12.256  23.787  0.00  0.00    +0.000 A 
ENDBRANCH  18  19
ENDBRANCH   8  18
BRANCH   9  25
ATOM     25  C   UNL     1      -1.846  13.122  20.129  0.00  0.00    +0.000 C 
BRANCH  25  26
ATOM     26  C   UNL     1      -3.255  13.624  20.457  0.00  0.00    +0.000 A 
ATOM     27  C   UNL     1      -3.528  14.967  20.749  0.00  0.00    +0.000 A 
ATOM     28  C   UNL     1      -4.845  15.411  20.944  0.00  0.00    +0.000 A 
ATOM     29  C   UNL     1      -5.914  14.523  20.823  0.00  0.00    +0.000 A 
ATOM     30  C   UNL     1      -5.664  13.181  20.554  0.00  0.00    +0.000 A 
ATOM     31  C   UNL     1      -4.343  12.738  20.384  0.00  0.00    +0.000 A 
ENDBRANCH  25  26
ENDBRANCH   9  25
TORSDOF 5
ENDMDL
MODEL 6
REMARK VINA RESULT:      -7.3      0.203      1.228
REMARK  Name = 
REMARK  5 active torsions:
REMARK  status: ('A' for Active; 'I' for Inactive)
REMARK    1  A    between atoms: C_2  and  C_3
REMARK    2  A    between atoms: N_10  and  C_11
REMARK    3  A    between atoms: C_11  and  C_12
REMARK    4  A    between atoms: C_18  and  C_19
REMARK    5  A    between atoms: C_19  and  C_20
REMARK                            x       y       z     vdW  Elec       q    Type
REMARK                         _______ _______ _______ _____ _____    ______ ____
ROOT
ATOM      1  C   UNL     1      -1.053  11.976  21.554  0.00  0.00    +0.000 C 
ATOM      2  O   UNL     1      -0.941  10.615  21.988  0.00  0.00    +0.000 OA
ATOM      3  C   UNL     1       0.371  10.183  21.579  0.00  0.00    +0.000 C 
ATOM      4  O   UNL     1       1.172  11.357  21.425  0.00  0.00    +0.000 OA
ATOM      5  C   UNL     1       0.238  12.230  20.785  0.00  0.00    +0.000 C 
ATOM      6  C   UNL     1      -0.032  11.821  19.330  0.00  0.00    +0.000 C 
ATOM      7  O   UNL     1      -0.243  12.671  18.461  0.00  0.00    +0.000 OA
ATOM      8  N   UNL     1      -0.160  10.442  19.121  0.00  0.00    +0.000 N 
ATOM      9  C   UNL     1       0.342   9.467  20.181  0.00  0.00    +0.000 C 
ENDROOT
BRANCH   1  11
ATOM     10  O   UNL     1      -0.349  13.344  23.437  0.00  0.00    +0.000 OA
ATOM     11  C   UNL     1      -1.260  13.063  22.639  0.00  0.00    +0.000 C 
ATOM     12  N   UNL     1      -2.453  13.783  22.654  0.00  0.00    +0.000 N 
ATOM     13  C   UNL     1      -3.597  13.530  21.769  0.00  0.00    +0.000 C 
ATOM     14  C   UNL     1      -4.886  13.282  22.554  0.00  0.00    +0.000 C 
ATOM     15  S   UNL     1      -5.347  14.711  23.587  0.00  0.00    +0.000 S 
ATOM     16  C   UNL     1      -3.776  14.856  24.502  0.00  0.00    +0.000 C 
ATOM     17  C   UNL     1      -2.580  14.946  23.553  0.00  0.00    +0.000 C 
ENDBRANCH   1  11
BRANCH   8  18
ATOM     18  C   UNL     1      -0.647   9.997  17.813  0.00  0.00    +0.000 C 
BRANCH  18  19
ATOM     19  C   UNL     1      -2.013  10.518  17.380  0.00  0.00    +0.000 A 
ATOM     20  C   UNL     1      -2.336  10.656  16.014  0.00  0.00    +0.000 A 
ATOM     21  C   UNL     1      -3.657  10.893  15.590  0.00  0.00    +0.000 A 
ATOM     22  C   UNL     1      -4.673  11.004  16.531  0.00  0.00    +0.000 A 
ATOM     23  C   UNL     1      -4.362  10.956  17.885  0.00  0.00    +0.000 A 
ATOM     24  C   UNL     1      -3.047  10.730  18.310  0.00  0.00    +0.000 A 
ENDBRANCH  18  19
ENDBRANCH   8  18
BRANCH   9  25
ATOM     25  C   UNL     1       1.790   8.927  19.880  0.00  0.00    +0.000 C 
BRANCH  25  26
ATOM     26  C   UNL     1       1.955   7.415  19.703  0.00  0.00    +0.000 A 
ATOM     27  C   UNL     1       1.612   6.496  20.704  0.00  0.00    +0.000 A 
ATOM     28  C   UNL     1       1.681   5.114  20.470  0.00  0.00    +0.000 A 
ATOM     29  C   UNL     1       2.067   4.628  19.223  0.00  0.00    +0.000 A 
ATOM     30  C   UNL     1       2.433   5.522  18.221  0.00  0.00    +0.000 A 
ATOM     31  C   UNL     1       2.387   6.903  18.467  0.00  0.00    +0.000 A 
ENDBRANCH  25  26
ENDBRANCH   9  25
TORSDOF 5
ENDMDL
MODEL 7
REMARK VINA RESULT:      -7.2      3.117      8.187
REMARK  Name = 
REMARK  5 active torsions:
REMARK  status: ('A' for Active; 'I' for Inactive)
REMARK    1  A    between atoms: C_2  and  C_3
REMARK    2  A    between atoms: N_10  and  C_11
REMARK    3  A    between atoms: C_11  and  C_12
REMARK    4  A    between atoms: C_18  and  C_19
REMARK    5  A    between atoms: C_19  and  C_20
REMARK                            x       y       z     vdW  Elec       q    Type
REMARK                         _______ _______ _______ _____ _____    ______ ____
ROOT
ATOM      1  C   UNL     1       0.600   9.906  19.608  0.00  0.00    +0.000 C 
ATOM      2  O   UNL     1      -0.817   9.704  19.539  0.00  0.00    +0.000 OA
ATOM      3  C   UNL     1      -1.377  10.989  19.204  0.00  0.00    +0.000 C 
ATOM      4  O   UNL     1      -0.343  11.747  18.572  0.00  0.00    +0.000 OA
ATOM      5  C   UNL     1       0.774  11.406  19.396  0.00  0.00    +0.000 C 
ATOM      6  C   UNL     1       0.689  12.056  20.784  0.00  0.00    +0.000 C 
ATOM      7  O   UNL     1       1.706  12.429  21.374  0.00  0.00    +0.000 OA
ATOM      8  N   UNL     1      -0.589  12.048  21.359  0.00  0.00    +0.000 N 
ATOM      9  C   UNL     1      -1.811  11.791  20.483  0.00  0.00    +0.000 C 
ENDROOT
BRANCH   1  11
ATOM     10  O   UNL     1       1.653   9.513  17.451  0.00  0.00    +0.000 OA
ATOM     11  C   UNL     1       1.490   9.113  18.617  0.00  0.00    +0.000 C 
ATOM     12  N   UNL     1       2.173   7.988  19.076  0.00  0.00    +0.000 N 
ATOM     13  C   UNL     1       2.047   7.421  20.423  0.00  0.00    +0.000 C 
ATOM     14  C   UNL     1       1.647   5.946  20.390  0.00  0.00    +0.000 C 
ATOM     15  S   UNL     1       2.877   4.921  19.519  0.00  0.00    +0.000 S 
ATOM     16  C   UNL     1       2.900   5.859  17.956  0.00  0.00    +0.000 C 
ATOM     17  C   UNL     1       3.169   7.345  18.198  0.00  0.00    +0.000 C 
ENDBRANCH   1  11
BRANCH   8  18
ATOM     18  C   UNL     1      -0.701  12.437  22.767  0.00  0.00    +0.000 C 
BRANCH  18  19
ATOM     19  C   UNL     1      -1.037  13.898  23.047  0.00  0.00    +0.000 A 
ATOM     20  C   UNL     1      -0.511  14.929  22.241  0.00  0.00    +0.000 A 
ATOM     21  C   UNL     1      -0.999  16.247  22.322  0.00  0.00    +0.000 A 
ATOM     22  C   UNL     1      -2.015  16.553  23.220  0.00  0.00    +0.000 A 
ATOM     23  C   UNL     1      -2.487  15.569  24.080  0.00  0.00    +0.000 A 
ATOM     24  C   UNL     1      -1.997  14.259  24.009  0.00  0.00    +0.000 A 
ENDBRANCH  18  19
ENDBRANCH   8  18
BRANCH   9  25
ATOM     25  C   UNL     1      -2.517  13.115  20.012  0.00  0.00    +0.000 C 
BRANCH  25  26
ATOM     26  C   UNL     1      -3.735  13.588  20.812  0.00  0.00    +0.000 A 
ATOM     27  C   UNL     1      -4.409  12.759  21.718  0.00  0.00    +0.000 A 
ATOM     28  C   UNL     1      -5.456  13.256  22.510  0.00  0.00    +0.000 A 
ATOM     29  C   UNL     1      -5.828  14.597  22.427  0.00  0.00    +0.000 A 
ATOM     30  C   UNL     1      -5.186  15.433  21.519  0.00  0.00    +0.000 A 
ATOM     31  C   UNL     1      -4.155  14.925  20.712  0.00  0.00    +0.000 A 
ENDBRANCH  25  26
ENDBRANCH   9  25
TORSDOF 5
ENDMDL
MODEL 8
REMARK VINA RESULT:      -7.1      3.410      7.872
REMARK  Name = 
REMARK  5 active torsions:
REMARK  status: ('A' for Active; 'I' for Inactive)
REMARK    1  A    between atoms: C_2  and  C_3
REMARK    2  A    between atoms: N_10  and  C_11
REMARK    3  A    between atoms: C_11  and  C_12
REMARK    4  A    between atoms: C_18  and  C_19
REMARK    5  A    between atoms: C_19  and  C_20
REMARK                            x       y       z     vdW  Elec       q    Type
REMARK                         _______ _______ _______ _____ _____    ______ ____
ROOT
ATOM      1  C   UNL     1       1.348   9.819  19.402  0.00  0.00    +0.000 C 
ATOM      2  O   UNL     1       0.308   9.433  20.308  0.00  0.00    +0.000 OA
ATOM      3  C   UNL     1      -0.823  10.262  19.977  0.00  0.00    +0.000 C 
ATOM      4  O   UNL     1      -0.647  10.695  18.626  0.00  0.00    +0.000 OA
ATOM      5  C   UNL     1       0.752  10.987  18.625  0.00  0.00    +0.000 C 
ATOM      6  C   UNL     1       1.078  12.257  19.423  0.00  0.00    +0.000 C 
ATOM      7  O   UNL     1       1.989  13.011  19.072  0.00  0.00    +0.000 OA
ATOM      8  N   UNL     1       0.372  12.392  20.626  0.00  0.00    +0.000 N 
ATOM      9  C   UNL     1      -0.881  11.557  20.865  0.00  0.00    +0.000 C 
ENDROOT
BRANCH   1  11
ATOM     10  O   UNL     1       1.988   8.977  17.212  0.00  0.00    +0.000 OA
ATOM     11  C   UNL     1       1.892   8.743  18.429  0.00  0.00    +0.000 C 
ATOM     12  N   UNL     1       2.351   7.534  18.949  0.00  0.00    +0.000 N 
ATOM     13  C   UNL     1       2.276   7.146  20.362  0.00  0.00    +0.000 C 
ATOM     14  C   UNL     1       1.545   5.816  20.554  0.00  0.00    +0.000 C 
ATOM     15  S   UNL     1       2.379   4.443  19.693  0.00  0.00    +0.000 S 
ATOM     16  C   UNL     1       2.412   5.195  18.032  0.00  0.00    +0.000 C 
ATOM     17  C   UNL     1       3.046   6.586  18.057  0.00  0.00    +0.000 C 
ENDBRANCH   1  11
BRANCH   8  18
ATOM     18  C   UNL     1       0.798  13.450  21.546  0.00  0.00    +0.000 C 
BRANCH  18  19
ATOM     19  C   UNL     1      -0.170  14.612  21.745  0.00  0.00    +0.000 A 
ATOM     20  C   UNL     1      -0.686  15.320  20.640  0.00  0.00    +0.000 A 
ATOM     21  C   UNL     1      -1.759  16.221  20.780  0.00  0.00    +0.000 A 
ATOM     22  C   UNL     1      -2.324  16.431  22.033  0.00  0.00    +0.000 A 
ATOM     23  C   UNL     1      -1.774  15.806  23.145  0.00  0.00    +0.000 A 
ATOM     24  C   UNL     1      -0.700  14.918  23.011  0.00  0.00    +0.000 A 
ENDBRANCH  18  19
ENDBRANCH   8  18
BRANCH   9  25
ATOM     25  C   UNL     1      -2.208  12.329  20.516  0.00  0.00    +0.000 C 
BRANCH  25  26
ATOM     26  C   UNL     1      -3.177  12.620  21.665  0.00  0.00    +0.000 A 
ATOM     27  C   UNL     1      -2.930  12.209  22.982  0.00  0.00    +0.000 A 
ATOM     28  C   UNL     1      -3.789  12.581  24.028  0.00  0.00    +0.000 A 
ATOM     29  C   UNL     1      -4.894  13.393  23.778  0.00  0.00    +0.000 A 
ATOM     30  C   UNL     1      -5.170  13.795  22.475  0.00  0.00    +0.000 A 
ATOM     31  C   UNL     1      -4.322  13.399  21.428  0.00  0.00    +0.000 A 
ENDBRANCH  25  26
ENDBRANCH   9  25
TORSDOF 5
ENDMDL
MODEL 9
REMARK VINA RESULT:      -7.1      3.698      5.847
REMARK  Name = 
REMARK  5 active torsions:
REMARK  status: ('A' for Active; 'I' for Inactive)
REMARK    1  A    between atoms: C_2  and  C_3
REMARK    2  A    between atoms: N_10  and  C_11
REMARK    3  A    between atoms: C_11  and  C_12
REMARK    4  A    between atoms: C_18  and  C_19
REMARK    5  A    between atoms: C_19  and  C_20
REMARK                            x       y       z     vdW  Elec       q    Type
REMARK                         _______ _______ _______ _____ _____    ______ ____
ROOT
ATOM      1  C   UNL     1       1.140  11.018  19.383  0.00  0.00    +0.000 C 
ATOM      2  O   UNL     1       2.296  10.647  18.622  0.00  0.00    +0.000 OA
ATOM      3  C   UNL     1       1.909   9.481  17.870  0.00  0.00    +0.000 C 
ATOM      4  O   UNL     1       0.483   9.502  17.763  0.00  0.00    +0.000 OA
ATOM      5  C   UNL     1       0.128   9.917  19.084  0.00  0.00    +0.000 C 
ATOM      6  C   UNL     1       0.365   8.811  20.121  0.00  0.00    +0.000 C 
ATOM      7  O   UNL     1      -0.385   8.681  21.093  0.00  0.00    +0.000 OA
ATOM      8  N   UNL     1       1.553   8.089  19.950  0.00  0.00    +0.000 N 
ATOM      9  C   UNL     1       2.289   8.151  18.615  0.00  0.00    +0.000 C 
ENDROOT
BRANCH   1  11
ATOM     10  O   UNL     1      -0.512  12.527  18.429  0.00  0.00    +0.000 OA
ATOM     11  C   UNL     1       0.518  12.412  19.116  0.00  0.00    +0.000 C 
ATOM     12  N   UNL     1       1.082  13.530  19.728  0.00  0.00    +0.000 N 
ATOM     13  C   UNL     1       2.299  13.514  20.547  0.00  0.00    +0.000 C 
ATOM     14  C   UNL     1       3.353  14.493  20.028  0.00  0.00    +0.000 C 
ATOM     15  S   UNL     1       2.756  16.215  20.037  0.00  0.00    +0.000 S 
ATOM     16  C   UNL     1       1.247  15.945  19.050  0.00  0.00    +0.000 C 
ATOM     17  C   UNL     1       0.384  14.827  19.637  0.00  0.00    +0.000 C 
ENDBRANCH   1  11
BRANCH   8  18
ATOM     18  C   UNL     1       1.957   7.183  21.027  0.00  0.00    +0.000 C 
BRANCH  18  19
ATOM     19  C   UNL     1       1.901   5.690  20.720  0.00  0.00    +0.000 A 
ATOM     20  C   UNL     1       3.022   4.863  20.942  0.00  0.00    +0.000 A 
ATOM     21  C   UNL     1       2.920   3.459  20.905  0.00  0.00    +0.000 A 
ATOM     22  C   UNL     1       1.693   2.864  20.634  0.00  0.00    +0.000 A 
ATOM     23  C   UNL     1       0.597   3.663  20.330  0.00  0.00    +0.000 A 
ATOM     24  C   UNL     1       0.698   5.059  20.357  0.00  0.00    +0.000 A 
ENDBRANCH  18  19
ENDBRANCH   8  18
BRANCH   9  25
ATOM     25  C   UNL     1       1.941   6.944  17.667  0.00  0.00    +0.000 C 
BRANCH  25  26
ATOM     26  C   UNL     1       2.979   5.826  17.538  0.00  0.00    +0.000 A 
ATOM     27  C   UNL     1       4.351   6.046  17.725  0.00  0.00    +0.000 A 
ATOM     28  C   UNL     1       5.263   4.980  17.701  0.00  0.00    +0.000 A 
ATOM     29  C   UNL     1       4.815   3.673  17.516  0.00  0.00    +0.000 A 
ATOM     30  C   UNL     1       3.461   3.434  17.308  0.00  0.00    +0.000 A 
ATOM     31  C   UNL     1       2.555   4.507  17.308  0.00  0.00    +0.000 A 
ENDBRANCH  25  26
ENDBRANCH   9  25
TORSDOF 5
ENDMDL
