MODEL 1
REMARK VINA RESULT:      -7.4      0.000      0.000
REMARK  Name = 
REMARK  11 active torsions:
REMARK  status: ('A' for Active; 'I' for Inactive)
REMARK    1  A    between atoms: C_1  and  N_2
REMARK    2  A    between atoms: N_2  and  C_3
REMARK    3  A    between atoms: N_2  and  C_4
REMARK    4  A    between atoms: C_4  and  C_5
REMARK    5  A    between atoms: C_5  and  C_6
REMARK    6  A    between atoms: C_6  and  O_7
REMARK    7  A    between atoms: O_7  and  C_8
REMARK    8  A    between atoms: C_11  and  C_12
REMARK    9  A    between atoms: C_12  and  N_13
REMARK   10  A    between atoms: C_16  and  N_17
REMARK   11  A    between atoms: C_18  and  C_20
REMARK                            x       y       z     vdW  Elec       q    Type
REMARK                         _______ _______ _______ _____ _____    ______ ____
ROOT
ATOM      1  C   UNL     1       3.747   3.516  17.899  0.00  0.00    +0.000 C 
ENDROOT
BRANCH   1   5
ATOM      2  C   UNL     1       6.770   6.572  17.200  0.00  0.00    +0.000 A 
ATOM      3  C   UNL     1       7.045   5.485  18.025  0.00  0.00    +0.000 A 
ATOM      4  C   UNL     1       6.087   4.497  18.240  0.00  0.00    +0.000 A 
ATOM      5  C   UNL     1       4.813   4.574  17.674  0.00  0.00    +0.000 A 
ATOM      6  C   UNL     1       4.565   5.641  16.791  0.00  0.00    +0.000 A 
ATOM      7  C   UNL     1       5.533   6.630  16.560  0.00  0.00    +0.000 A 
BRANCH   2   8
ATOM      8  O   UNL     1       7.634   7.610  16.957  0.00  0.00    +0.000 OA
BRANCH   8   9
ATOM      9  C   UNL     1       8.274   8.140  18.124  0.00  0.00    +0.000 C 
BRANCH   9  10
ATOM     10  C   UNL     1       8.315   9.660  18.054  0.00  0.00    +0.000 C 
BRANCH  10  11
ATOM     11  C   UNL     1       9.274  10.247  19.101  0.00  0.00    +0.000 C 
BRANCH  11  13
ATOM     12  C   UNL     1       9.345  12.602  18.470  0.00  0.00    +0.000 C 
ATOM     13  N   UNL     1      10.108  11.358  18.608  0.00  0.00    +0.000 NA
ATOM     14  C   UNL     1      11.249  11.575  19.501  0.00  0.00    +0.000 C 
ENDBRANCH  11  13
ENDBRANCH  10  11
ENDBRANCH   9  10
ENDBRANCH   8   9
ENDBRANCH   2   8
ENDBRANCH   1   5
BRANCH   1  15
ATOM     15  N   UNL     1       3.240   3.296  19.253  0.00  0.00    +0.000 NA
ATOM     16  C   UNL     1       1.901   2.753  19.397  0.00  0.00    +0.000 C 
ATOM     17  C   UNL     1       1.100   3.774  20.188  0.00  0.00    +0.000 C 
ATOM     18  C   UNL     1       2.124   4.611  20.948  0.00  0.00    +0.000 C 
ATOM     19  C   UNL     1       3.468   4.354  20.235  0.00  0.00    +0.000 C 
BRANCH  18  20
ATOM     20  N   UNL     1       1.719   6.011  20.989  0.00  0.00    +0.000 N 
ATOM     21  C   UNL     1       2.014   6.919  19.992  0.00  0.00    +0.000 C 
ATOM     22  O   UNL     1       2.631   6.582  18.984  0.00  0.00    +0.000 OA
ATOM     23  H   UNL     1       1.251   6.371  21.812  0.00  0.00    +0.000 HD
BRANCH  21  24
ATOM     24  C   UNL     1       1.529   8.280  20.211  0.00  0.00    +0.000 A 
ATOM     25  C   UNL     1       1.206   8.861  21.425  0.00  0.00    +0.000 A 
ATOM     26  C   UNL     1       0.770  10.210  21.294  0.00  0.00    +0.000 A 
ATOM     27  C   UNL     1       0.771  10.622  19.982  0.00  0.00    +0.000 A 
ATOM     28  S   UNL     1       1.293   9.388  18.922  0.00  0.00    +0.000 S 
ENDBRANCH  21  24
ENDBRANCH  18  20
ENDBRANCH   1  15
TORSDOF 9
ENDMDL
MODEL 2
REMARK VINA RESULT:      -7.3      4.529      8.217
REMARK  Name = 
REMARK  11 active torsions:
REMARK  status: ('A' for Active; 'I' for Inactive)
REMARK    1  A    between atoms: C_1  and  N_2
REMARK    2  A    between atoms: N_2  and  C_3
REMARK    3  A    between atoms: N_2  and  C_4
REMARK    4  A    between atoms: C_4  and  C_5
REMARK    5  A    between atoms: C_5  and  C_6
REMARK    6  A    between atoms: C_6  and  O_7
REMARK    7  A    between atoms: O_7  and  C_8
REMARK    8  A    between atoms: C_11  and  C_12
REMARK    9  A    between atoms: C_12  and  N_13
REMARK   10  A    between atoms: C_16  and  N_17
REMARK   11  A    between atoms: C_18  and  C_20
REMARK                            x       y       z     vdW  Elec       q    Type
REMARK                         _______ _______ _______ _____ _____    ______ ____
ROOT
ATOM      1  C   UNL     1       0.795   9.826  19.570  0.00  0.00    +0.000 C 
ENDROOT
BRANCH   1   5
ATOM      2  C   UNL     1       3.296   6.419  18.521  0.00  0.00    +0.000 A 
ATOM      3  C   UNL     1       3.183   7.503  17.655  0.00  0.00    +0.000 A 
ATOM      4  C   UNL     1       2.397   8.602  17.993  0.00  0.00    +0.000 A 
ATOM      5  C   UNL     1       1.667   8.646  19.182  0.00  0.00    +0.000 A 
ATOM      6  C   UNL     1       1.837   7.576  20.080  0.00  0.00    +0.000 A 
ATOM      7  C   UNL     1       2.641   6.474  19.751  0.00  0.00    +0.000 A 
BRANCH   2   8
ATOM      8  O   UNL     1       4.016   5.280  18.262  0.00  0.00    +0.000 OA
BRANCH   8   9
ATOM      9  C   UNL     1       3.311   4.287  17.507  0.00  0.00    +0.000 C 
BRANCH   9  10
ATOM     10  C   UNL     1       3.440   2.928  18.180  0.00  0.00    +0.000 C 
BRANCH  10  11
ATOM     11  C   UNL     1       3.187   3.021  19.692  0.00  0.00    +0.000 C 
BRANCH  11  13
ATOM     12  C   UNL     1       1.683   2.603  21.565  0.00  0.00    +0.000 C 
ATOM     13  N   UNL     1       1.943   2.371  20.142  0.00  0.00    +0.000 NA
ATOM     14  C   UNL     1       0.805   2.842  19.348  0.00  0.00    +0.000 C 
ENDBRANCH  11  13
ENDBRANCH  10  11
ENDBRANCH   9  10
ENDBRANCH   8   9
ENDBRANCH   2   8
ENDBRANCH   1   5
BRANCH   1  15
ATOM     15  N   UNL     1       0.292  10.712  18.521  0.00  0.00    +0.000 NA
ATOM     16  C   UNL     1       0.568  12.133  18.641  0.00  0.00    +0.000 C 
ATOM     17  C   UNL     1      -0.778  12.835  18.686  0.00  0.00    +0.000 C 
ATOM     18  C   UNL     1      -1.773  11.876  18.042  0.00  0.00    +0.000 C 
ATOM     19  C   UNL     1      -1.078  10.498  18.061  0.00  0.00    +0.000 C 
BRANCH  18  20
ATOM     20  N   UNL     1      -3.055  11.916  18.735  0.00  0.00    +0.000 N 
ATOM     21  C   UNL     1      -4.266  11.695  18.112  0.00  0.00    +0.000 C 
ATOM     22  O   UNL     1      -4.328  11.427  16.914  0.00  0.00    +0.000 OA
ATOM     23  H   UNL     1      -3.084  12.179  19.713  0.00  0.00    +0.000 HD
BRANCH  21  24
ATOM     24  C   UNL     1      -5.445  11.781  18.970  0.00  0.00    +0.000 A 
ATOM     25  C   UNL     1      -5.713  12.753  19.919  0.00  0.00    +0.000 A 
ATOM     26  C   UNL     1      -6.956  12.552  20.582  0.00  0.00    +0.000 A 
ATOM     27  C   UNL     1      -7.606  11.430  20.121  0.00  0.00    +0.000 A 
ATOM     28  S   UNL     1      -6.717  10.630  18.901  0.00  0.00    +0.000 S 
ENDBRANCH  21  24
ENDBRANCH  18  20
ENDBRANCH   1  15
TORSDOF 9
ENDMDL
MODEL 3
REMARK VINA RESULT:      -7.2      1.467      1.938
REMARK  Name = 
REMARK  11 active torsions:
REMARK  status: ('A' for Active; 'I' for Inactive)
REMARK    1  A    between atoms: C_1  and  N_2
REMARK    2  A    between atoms: N_2  and  C_3
REMARK    3  A    between atoms: N_2  and  C_4
REMARK    4  A    between atoms: C_4  and  C_5
REMARK    5  A    between atoms: C_5  and  C_6
REMARK    6  A    between atoms: C_6  and  O_7
REMARK    7  A    between atoms: O_7  and  C_8
REMARK    8  A    between atoms: C_11  and  C_12
REMARK    9  A    between atoms: C_12  and  N_13
REMARK   10  A    between atoms: C_16  and  N_17
REMARK   11  A    between atoms: C_18  and  C_20
REMARK                            x       y       z     vdW  Elec       q    Type
REMARK                         _______ _______ _______ _____ _____    ______ ____
ROOT
ATOM      1  C   UNL     1       5.640   4.522  17.668  0.00  0.00    +0.000 C 
ENDROOT
BRANCH   1   5
ATOM      2  C   UNL     1       7.952   8.200  17.981  0.00  0.00    +0.000 A 
ATOM      3  C   UNL     1       8.300   7.082  18.735  0.00  0.00    +0.000 A 
ATOM      4  C   UNL     1       7.573   5.899  18.627  0.00  0.00    +0.000 A 
ATOM      5  C   UNL     1       6.455   5.796  17.797  0.00  0.00    +0.000 A 
ATOM      6  C   UNL     1       6.149   6.908  16.992  0.00  0.00    +0.000 A 
ATOM      7  C   UNL     1       6.888   8.097  17.085  0.00  0.00    +0.000 A 
BRANCH   2   8
ATOM      8  O   UNL     1       8.583   9.417  18.045  0.00  0.00    +0.000 OA
BRANCH   8   9
ATOM      9  C   UNL     1       9.092   9.758  19.340  0.00  0.00    +0.000 C 
BRANCH   9  10
ATOM     10  C   UNL     1       9.886  11.055  19.265  0.00  0.00    +0.000 C 
BRANCH  10  11
ATOM     11  C   UNL     1       9.843  11.661  17.854  0.00  0.00    +0.000 C 
BRANCH  11  13
ATOM     12  C   UNL     1      10.441  14.014  17.619  0.00  0.00    +0.000 C 
ATOM     13  N   UNL     1      10.919  12.630  17.575  0.00  0.00    +0.000 NA
ATOM     14  C   UNL     1      12.020  12.458  18.526  0.00  0.00    +0.000 C 
ENDBRANCH  11  13
ENDBRANCH  10  11
ENDBRANCH   9  10
ENDBRANCH   8   9
ENDBRANCH   2   8
ENDBRANCH   1   5
BRANCH   1  15
ATOM     15  N   UNL     1       4.507   4.310  18.569  0.00  0.00    +0.000 NA
ATOM     16  C   UNL     1       3.275   3.793  18.000  0.00  0.00    +0.000 C 
ATOM     17  C   UNL     1       2.199   4.828  18.280  0.00  0.00    +0.000 C 
ATOM     18  C   UNL     1       2.701   5.644  19.466  0.00  0.00    +0.000 C 
ATOM     19  C   UNL     1       4.216   5.362  19.540  0.00  0.00    +0.000 C 
BRANCH  18  20
ATOM     20  N   UNL     1       2.355   7.052  19.309  0.00  0.00    +0.000 N 
ATOM     21  C   UNL     1       1.579   7.751  20.211  0.00  0.00    +0.000 C 
ATOM     22  O   UNL     1       1.144   7.216  21.229  0.00  0.00    +0.000 OA
ATOM     23  H   UNL     1       2.638   7.544  18.470  0.00  0.00    +0.000 HD
BRANCH  21  24
ATOM     24  C   UNL     1       1.335   9.154  19.883  0.00  0.00    +0.000 A 
ATOM     25  C   UNL     1       1.038  10.175  20.770  0.00  0.00    +0.000 A 
ATOM     26  C   UNL     1       0.864  11.433  20.126  0.00  0.00    +0.000 A 
ATOM     27  C   UNL     1       1.032  11.338  18.764  0.00  0.00    +0.000 A 
ATOM     28  S   UNL     1       1.395   9.743  18.272  0.00  0.00    +0.000 S 
ENDBRANCH  21  24
ENDBRANCH  18  20
ENDBRANCH   1  15
TORSDOF 9
ENDMDL
MODEL 4
REMARK VINA RESULT:      -7.2      1.114      1.600
REMARK  Name = 
REMARK  11 active torsions:
REMARK  status: ('A' for Active; 'I' for Inactive)
REMARK    1  A    between atoms: C_1  and  N_2
REMARK    2  A    between atoms: N_2  and  C_3
REMARK    3  A    between atoms: N_2  and  C_4
REMARK    4  A    between atoms: C_4  and  C_5
REMARK    5  A    between atoms: C_5  and  C_6
REMARK    6  A    between atoms: C_6  and  O_7
REMARK    7  A    between atoms: O_7  and  C_8
REMARK    8  A    between atoms: C_11  and  C_12
REMARK    9  A    between atoms: C_12  and  N_13
REMARK   10  A    between atoms: C_16  and  N_17
REMARK   11  A    between atoms: C_18  and  C_20
REMARK                            x       y       z     vdW  Elec       q    Type
REMARK                         _______ _______ _______ _____ _____    ______ ____
ROOT
ATOM      1  C   UNL     1       4.596   3.014  17.412  0.00  0.00    +0.000 C 
ENDROOT
BRANCH   1   5
ATOM      2  C   UNL     1       6.892   6.690  16.985  0.00  0.00    +0.000 A 
ATOM      3  C   UNL     1       5.777   6.459  16.184  0.00  0.00    +0.000 A 
ATOM      4  C   UNL     1       5.030   5.291  16.327  0.00  0.00    +0.000 A 
ATOM      5  C   UNL     1       5.386   4.299  17.242  0.00  0.00    +0.000 A 
ATOM      6  C   UNL     1       6.475   4.569  18.091  0.00  0.00    +0.000 A 
ATOM      7  C   UNL     1       7.221   5.750  17.962  0.00  0.00    +0.000 A 
BRANCH   2   8
ATOM      8  O   UNL     1       7.709   7.789  16.895  0.00  0.00    +0.000 OA
BRANCH   8   9
ATOM      9  C   UNL     1       8.163   8.301  18.153  0.00  0.00    +0.000 C 
BRANCH   9  10
ATOM     10  C   UNL     1       8.515   9.776  18.022  0.00  0.00    +0.000 C 
BRANCH  10  11
ATOM     11  C   UNL     1       9.260  10.290  19.263  0.00  0.00    +0.000 C 
BRANCH  11  13
ATOM     12  C   UNL     1       9.922  12.346  18.130  0.00  0.00    +0.000 C 
ATOM     13  N   UNL     1      10.360  11.227  18.968  0.00  0.00    +0.000 NA
ATOM     14  C   UNL     1      10.940  11.740  20.212  0.00  0.00    +0.000 C 
ENDBRANCH  11  13
ENDBRANCH  10  11
ENDBRANCH   9  10
ENDBRANCH   8   9
ENDBRANCH   2   8
ENDBRANCH   1   5
BRANCH   1  15
ATOM     15  N   UNL     1       3.505   2.975  18.385  0.00  0.00    +0.000 NA
ATOM     16  C   UNL     1       2.190   2.574  17.915  0.00  0.00    +0.000 C 
ATOM     17  C   UNL     1       1.254   3.736  18.198  0.00  0.00    +0.000 C 
ATOM     18  C   UNL     1       1.915   4.547  19.307  0.00  0.00    +0.000 C 
ATOM     19  C   UNL     1       3.392   4.099  19.312  0.00  0.00    +0.000 C 
BRANCH  18  20
ATOM     20  N   UNL     1       1.718   5.975  19.093  0.00  0.00    +0.000 N 
ATOM     21  C   UNL     1       1.727   6.907  20.112  0.00  0.00    +0.000 C 
ATOM     22  O   UNL     1       1.926   6.576  21.278  0.00  0.00    +0.000 OA
ATOM     23  H   UNL     1       1.499   6.314  18.164  0.00  0.00    +0.000 HD
BRANCH  21  24
ATOM     24  C   UNL     1       1.506   8.293  19.704  0.00  0.00    +0.000 A 
ATOM     25  C   UNL     1       1.804   8.854  18.474  0.00  0.00    +0.000 A 
ATOM     26  C   UNL     1       1.457  10.233  18.396  0.00  0.00    +0.000 A 
ATOM     27  C   UNL     1       0.904  10.688  19.571  0.00  0.00    +0.000 A 
ATOM     28  S   UNL     1       0.808   9.458  20.754  0.00  0.00    +0.000 S 
ENDBRANCH  21  24
ENDBRANCH  18  20
ENDBRANCH   1  15
TORSDOF 9
ENDMDL
MODEL 5
REMARK VINA RESULT:      -7.2      4.227      6.704
REMARK  Name = 
REMARK  11 active torsions:
REMARK  status: ('A' for Active; 'I' for Inactive)
REMARK    1  A    between atoms: C_1  and  N_2
REMARK    2  A    between atoms: N_2  and  C_3
REMARK    3  A    between atoms: N_2  and  C_4
REMARK    4  A    between atoms: C_4  and  C_5
REMARK    5  A    between atoms: C_5  and  C_6
REMARK    6  A    between atoms: C_6  and  O_7
REMARK    7  A    between atoms: O_7  and  C_8
REMARK    8  A    between atoms: C_11  and  C_12
REMARK    9  A    between atoms: C_12  and  N_13
REMARK   10  A    between atoms: C_16  and  N_17
REMARK   11  A    between atoms: C_18  and  C_20
REMARK                            x       y       z     vdW  Elec       q    Type
REMARK                         _______ _______ _______ _____ _____    ______ ____
ROOT
ATOM      1  C   UNL     1       1.738   6.540  20.096  0.00  0.00    +0.000 C 
ENDROOT
BRANCH   1   5
ATOM      2  C   UNL     1       4.111   4.454  17.099  0.00  0.00    +0.000 A 
ATOM      3  C   UNL     1       4.624   5.574  17.749  0.00  0.00    +0.000 A 
ATOM      4  C   UNL     1       3.874   6.235  18.720  0.00  0.00    +0.000 A 
ATOM      5  C   UNL     1       2.579   5.832  19.050  0.00  0.00    +0.000 A 
ATOM      6  C   UNL     1       2.094   4.663  18.435  0.00  0.00    +0.000 A 
ATOM      7  C   UNL     1       2.851   3.984  17.468  0.00  0.00    +0.000 A 
BRANCH   2   8
ATOM      8  O   UNL     1       4.757   3.760  16.107  0.00  0.00    +0.000 OA
BRANCH   8   9
ATOM      9  C   UNL     1       5.318   4.578  15.073  0.00  0.00    +0.000 C 
BRANCH   9  10
ATOM     10  C   UNL     1       6.405   3.812  14.332  0.00  0.00    +0.000 C 
BRANCH  10  11
ATOM     11  C   UNL     1       6.216   3.896  12.810  0.00  0.00    +0.000 C 
BRANCH  11  13
ATOM     12  C   UNL     1       4.293   3.261  11.451  0.00  0.00    +0.000 C 
ATOM     13  N   UNL     1       5.439   2.786  12.230  0.00  0.00    +0.000 NA
ATOM     14  C   UNL     1       6.296   1.948  11.388  0.00  0.00    +0.000 C 
ENDBRANCH  11  13
ENDBRANCH  10  11
ENDBRANCH   9  10
ENDBRANCH   8   9
ENDBRANCH   2   8
ENDBRANCH   1   5
BRANCH   1  15
ATOM     15  N   UNL     1       1.859   7.990  20.241  0.00  0.00    +0.000 NA
ATOM     16  C   UNL     1       1.316   8.600  21.443  0.00  0.00    +0.000 C 
ATOM     17  C   UNL     1       0.264   9.596  20.988  0.00  0.00    +0.000 C 
ATOM     18  C   UNL     1       0.607   9.938  19.542  0.00  0.00    +0.000 C 
ATOM     19  C   UNL     1       1.550   8.810  19.072  0.00  0.00    +0.000 C 
BRANCH  18  20
ATOM     20  N   UNL     1      -0.604  10.085  18.743  0.00  0.00    +0.000 N 
ATOM     21  C   UNL     1      -1.243  11.292  18.545  0.00  0.00    +0.000 C 
ATOM     22  O   UNL     1      -0.804  12.334  19.026  0.00  0.00    +0.000 OA
ATOM     23  H   UNL     1      -1.049   9.261  18.356  0.00  0.00    +0.000 HD
BRANCH  21  24
ATOM     24  C   UNL     1      -2.447  11.242  17.718  0.00  0.00    +0.000 A 
ATOM     25  C   UNL     1      -2.529  10.848  16.393  0.00  0.00    +0.000 A 
ATOM     26  C   UNL     1      -3.855  10.908  15.880  0.00  0.00    +0.000 A 
ATOM     27  C   UNL     1      -4.752  11.347  16.827  0.00  0.00    +0.000 A 
ATOM     28  S   UNL     1      -3.993  11.685  18.320  0.00  0.00    +0.000 S 
ENDBRANCH  21  24
ENDBRANCH  18  20
ENDBRANCH   1  15
TORSDOF 9
ENDMDL
MODEL 6
REMARK VINA RESULT:      -7.2      4.692      7.562
REMARK  Name = 
REMARK  11 active torsions:
REMARK  status: ('A' for Active; 'I' for Inactive)
REMARK    1  A    between atoms: C_1  and  N_2
REMARK    2  A    between atoms: N_2  and  C_3
REMARK    3  A    between atoms: N_2  and  C_4
REMARK    4  A    between atoms: C_4  and  C_5
REMARK    5  A    between atoms: C_5  and  C_6
REMARK    6  A    between atoms: C_6  and  O_7
REMARK    7  A    between atoms: O_7  and  C_8
REMARK    8  A    between atoms: C_11  and  C_12
REMARK    9  A    between atoms: C_12  and  N_13
REMARK   10  A    between atoms: C_16  and  N_17
REMARK   11  A    between atoms: C_18  and  C_20
REMARK                            x       y       z     vdW  Elec       q    Type
REMARK                         _______ _______ _______ _____ _____    ______ ____
ROOT
ATOM      1  C   UNL     1       0.705  10.079  19.851  0.00  0.00    +0.000 C 
ENDROOT
BRANCH   1   5
ATOM      2  C   UNL     1       2.824   6.331  19.196  0.00  0.00    +0.000 A 
ATOM      3  C   UNL     1       2.155   6.562  20.396  0.00  0.00    +0.000 A 
ATOM      4  C   UNL     1       1.463   7.753  20.604  0.00  0.00    +0.000 A 
ATOM      5  C   UNL     1       1.443   8.768  19.646  0.00  0.00    +0.000 A 
ATOM      6  C   UNL     1       2.066   8.501  18.414  0.00  0.00    +0.000 A 
ATOM      7  C   UNL     1       2.751   7.297  18.193  0.00  0.00    +0.000 A 
BRANCH   2   8
ATOM      8  O   UNL     1       3.560   5.208  18.912  0.00  0.00    +0.000 OA
BRANCH   8   9
ATOM      9  C   UNL     1       3.469   4.761  17.554  0.00  0.00    +0.000 C 
BRANCH   9  10
ATOM     10  C   UNL     1       4.508   3.681  17.287  0.00  0.00    +0.000 C 
BRANCH  10  11
ATOM     11  C   UNL     1       5.227   3.909  15.949  0.00  0.00    +0.000 C 
BRANCH  11  13
ATOM     12  C   UNL     1       7.263   4.583  17.110  0.00  0.00    +0.000 C 
ATOM     13  N   UNL     1       6.338   4.876  16.012  0.00  0.00    +0.000 NA
ATOM     14  C   UNL     1       7.069   4.896  14.742  0.00  0.00    +0.000 C 
ENDBRANCH  11  13
ENDBRANCH  10  11
ENDBRANCH   9  10
ENDBRANCH   8   9
ENDBRANCH   2   8
ENDBRANCH   1   5
BRANCH   1  15
ATOM     15  N   UNL     1       0.263  10.835  18.680  0.00  0.00    +0.000 NA
ATOM     16  C   UNL     1       0.502  12.268  18.667  0.00  0.00    +0.000 C 
ATOM     17  C   UNL     1      -0.857  12.934  18.541  0.00  0.00    +0.000 C 
ATOM     18  C   UNL     1      -1.784  11.886  17.934  0.00  0.00    +0.000 C 
ATOM     19  C   UNL     1      -1.066  10.537  18.150  0.00  0.00    +0.000 C 
BRANCH  18  20
ATOM     20  N   UNL     1      -3.113  11.965  18.527  0.00  0.00    +0.000 N 
ATOM     21  C   UNL     1      -4.274  11.693  17.833  0.00  0.00    +0.000 C 
ATOM     22  O   UNL     1      -4.247  11.344  16.655  0.00  0.00    +0.000 OA
ATOM     23  H   UNL     1      -3.215  12.294  19.480  0.00  0.00    +0.000 HD
BRANCH  21  24
ATOM     24  C   UNL     1      -5.514  11.830  18.594  0.00  0.00    +0.000 A 
ATOM     25  C   UNL     1      -6.330  10.806  19.043  0.00  0.00    +0.000 A 
ATOM     26  C   UNL     1      -7.464  11.278  19.764  0.00  0.00    +0.000 A 
ATOM     27  C   UNL     1      -7.482  12.652  19.847  0.00  0.00    +0.000 A 
ATOM     28  S   UNL     1      -6.142  13.359  19.057  0.00  0.00    +0.000 S 
ENDBRANCH  21  24
ENDBRANCH  18  20
ENDBRANCH   1  15
TORSDOF 9
ENDMDL
MODEL 7
REMARK VINA RESULT:      -7.2      4.740      7.528
REMARK  Name = 
REMARK  11 active torsions:
REMARK  status: ('A' for Active; 'I' for Inactive)
REMARK    1  A    between atoms: C_1  and  N_2
REMARK    2  A    between atoms: N_2  and  C_3
REMARK    3  A    between atoms: N_2  and  C_4
REMARK    4  A    between atoms: C_4  and  C_5
REMARK    5  A    between atoms: C_5  and  C_6
REMARK    6  A    between atoms: C_6  and  O_7
REMARK    7  A    between atoms: O_7  and  C_8
REMARK    8  A    between atoms: C_11  and  C_12
REMARK    9  A    between atoms: C_12  and  N_13
REMARK   10  A    between atoms: C_16  and  N_17
REMARK   11  A    between atoms: C_18  and  C_20
REMARK                            x       y       z     vdW  Elec       q    Type
REMARK                         _______ _______ _______ _____ _____    ______ ____
ROOT
ATOM      1  C   UNL     1       0.690  10.000  19.714  0.00  0.00    +0.000 C 
ENDROOT
BRANCH   1   5
ATOM      2  C   UNL     1       3.265   6.747  18.391  0.00  0.00    +0.000 A 
ATOM      3  C   UNL     1       2.647   6.694  19.638  0.00  0.00    +0.000 A 
ATOM      4  C   UNL     1       1.810   7.725  20.059  0.00  0.00    +0.000 A 
ATOM      5  C   UNL     1       1.589   8.859  19.275  0.00  0.00    +0.000 A 
ATOM      6  C   UNL     1       2.165   8.874  17.992  0.00  0.00    +0.000 A 
ATOM      7  C   UNL     1       2.996   7.831  17.557  0.00  0.00    +0.000 A 
BRANCH   2   8
ATOM      8  O   UNL     1       4.131   5.800  17.904  0.00  0.00    +0.000 OA
BRANCH   8   9
ATOM      9  C   UNL     1       3.538   4.521  17.652  0.00  0.00    +0.000 C 
BRANCH   9  10
ATOM     10  C   UNL     1       4.564   3.580  17.036  0.00  0.00    +0.000 C 
BRANCH  10  11
ATOM     11  C   UNL     1       5.120   4.138  15.717  0.00  0.00    +0.000 C 
BRANCH  11  13
ATOM     12  C   UNL     1       7.085   4.821  14.444  0.00  0.00    +0.000 C 
ATOM     13  N   UNL     1       6.586   4.060  15.593  0.00  0.00    +0.000 NA
ATOM     14  C   UNL     1       7.229   4.539  16.819  0.00  0.00    +0.000 C 
ENDBRANCH  11  13
ENDBRANCH  10  11
ENDBRANCH   9  10
ENDBRANCH   8   9
ENDBRANCH   2   8
ENDBRANCH   1   5
BRANCH   1  15
ATOM     15  N   UNL     1       0.151  10.908  18.702  0.00  0.00    +0.000 NA
ATOM     16  C   UNL     1       0.427  12.327  18.847  0.00  0.00    +0.000 C 
ATOM     17  C   UNL     1      -0.919  13.024  18.952  0.00  0.00    +0.000 C 
ATOM     18  C   UNL     1      -1.931  12.076  18.317  0.00  0.00    +0.000 C 
ATOM     19  C   UNL     1      -1.233  10.701  18.282  0.00  0.00    +0.000 C 
BRANCH  18  20
ATOM     20  N   UNL     1      -3.190  12.096  19.052  0.00  0.00    +0.000 N 
ATOM     21  C   UNL     1      -4.407  11.772  18.487  0.00  0.00    +0.000 C 
ATOM     22  O   UNL     1      -4.493  11.423  17.313  0.00  0.00    +0.000 OA
ATOM     23  H   UNL     1      -3.202  12.421  20.012  0.00  0.00    +0.000 HD
BRANCH  21  24
ATOM     24  C   UNL     1      -5.561  11.854  19.380  0.00  0.00    +0.000 A 
ATOM     25  C   UNL     1      -6.787  11.233  19.213  0.00  0.00    +0.000 A 
ATOM     26  C   UNL     1      -7.698  11.512  20.270  0.00  0.00    +0.000 A 
ATOM     27  C   UNL     1      -7.142  12.341  21.218  0.00  0.00    +0.000 A 
ATOM     28  S   UNL     1      -5.537  12.776  20.829  0.00  0.00    +0.000 S 
ENDBRANCH  21  24
ENDBRANCH  18  20
ENDBRANCH   1  15
TORSDOF 9
ENDMDL
MODEL 8
REMARK VINA RESULT:      -7.1      1.170      1.744
REMARK  Name = 
REMARK  11 active torsions:
REMARK  status: ('A' for Active; 'I' for Inactive)
REMARK    1  A    between atoms: C_1  and  N_2
REMARK    2  A    between atoms: N_2  and  C_3
REMARK    3  A    between atoms: N_2  and  C_4
REMARK    4  A    between atoms: C_4  and  C_5
REMARK    5  A    between atoms: C_5  and  C_6
REMARK    6  A    between atoms: C_6  and  O_7
REMARK    7  A    between atoms: O_7  and  C_8
REMARK    8  A    between atoms: C_11  and  C_12
REMARK    9  A    between atoms: C_12  and  N_13
REMARK   10  A    between atoms: C_16  and  N_17
REMARK   11  A    between atoms: C_18  and  C_20
REMARK                            x       y       z     vdW  Elec       q    Type
REMARK                         _______ _______ _______ _____ _____    ______ ____
ROOT
ATOM      1  C   UNL     1       4.944   4.106  16.998  0.00  0.00    +0.000 C 
ENDROOT
BRANCH   1   5
ATOM      2  C   UNL     1       7.694   7.293  18.112  0.00  0.00    +0.000 A 
ATOM      3  C   UNL     1       6.657   7.539  17.215  0.00  0.00    +0.000 A 
ATOM      4  C   UNL     1       5.765   6.527  16.868  0.00  0.00    +0.000 A 
ATOM      5  C   UNL     1       5.895   5.229  17.367  0.00  0.00    +0.000 A 
ATOM      6  C   UNL     1       6.905   5.006  18.321  0.00  0.00    +0.000 A 
ATOM      7  C   UNL     1       7.796   6.027  18.686  0.00  0.00    +0.000 A 
BRANCH   2   8
ATOM      8  O   UNL     1       8.641   8.214  18.487  0.00  0.00    +0.000 OA
BRANCH   8   9
ATOM      9  C   UNL     1       8.325   9.568  18.145  0.00  0.00    +0.000 C 
BRANCH   9  10
ATOM     10  C   UNL     1       9.548  10.455  18.335  0.00  0.00    +0.000 C 
BRANCH  10  11
ATOM     11  C   UNL     1       9.272  11.588  19.334  0.00  0.00    +0.000 C 
BRANCH  11  13
ATOM     12  C   UNL     1      11.453  12.206  20.235  0.00  0.00    +0.000 C 
ATOM     13  N   UNL     1      10.155  11.587  20.515  0.00  0.00    +0.000 NA
ATOM     14  C   UNL     1       9.510  12.277  21.635  0.00  0.00    +0.000 C 
ENDBRANCH  11  13
ENDBRANCH  10  11
ENDBRANCH   9  10
ENDBRANCH   8   9
ENDBRANCH   2   8
ENDBRANCH   1   5
BRANCH   1  15
ATOM     15  N   UNL     1       4.090   3.529  18.036  0.00  0.00    +0.000 NA
ATOM     16  C   UNL     1       2.783   3.033  17.642  0.00  0.00    +0.000 C 
ATOM     17  C   UNL     1       1.760   3.819  18.444  0.00  0.00    +0.000 C 
ATOM     18  C   UNL     1       2.503   4.350  19.665  0.00  0.00    +0.000 C 
ATOM     19  C   UNL     1       4.000   4.245  19.306  0.00  0.00    +0.000 C 
BRANCH  18  20
ATOM     20  N   UNL     1       2.054   5.696  19.999  0.00  0.00    +0.000 N 
ATOM     21  C   UNL     1       2.188   6.776  19.150  0.00  0.00    +0.000 C 
ATOM     22  O   UNL     1       2.687   6.653  18.034  0.00  0.00    +0.000 OA
ATOM     23  H   UNL     1       1.677   5.882  20.921  0.00  0.00    +0.000 HD
BRANCH  21  24
ATOM     24  C   UNL     1       1.683   8.049  19.660  0.00  0.00    +0.000 A 
ATOM     25  C   UNL     1       1.342   8.343  20.969  0.00  0.00    +0.000 A 
ATOM     26  C   UNL     1       0.889   9.682  21.136  0.00  0.00    +0.000 A 
ATOM     27  C   UNL     1       0.895  10.376  19.948  0.00  0.00    +0.000 A 
ATOM     28  S   UNL     1       1.442   9.413  18.646  0.00  0.00    +0.000 S 
ENDBRANCH  21  24
ENDBRANCH  18  20
ENDBRANCH   1  15
TORSDOF 9
ENDMDL
MODEL 9
REMARK VINA RESULT:      -7.1      1.466      2.132
REMARK  Name = 
REMARK  11 active torsions:
REMARK  status: ('A' for Active; 'I' for Inactive)
REMARK    1  A    between atoms: C_1  and  N_2
REMARK    2  A    between atoms: N_2  and  C_3
REMARK    3  A    between atoms: N_2  and  C_4
REMARK    4  A    between atoms: C_4  and  C_5
REMARK    5  A    between atoms: C_5  and  C_6
REMARK    6  A    between atoms: C_6  and  O_7
REMARK    7  A    between atoms: O_7  and  C_8
REMARK    8  A    between atoms: C_11  and  C_12
REMARK    9  A    between atoms: C_12  and  N_13
REMARK   10  A    between atoms: C_16  and  N_17
REMARK   11  A    between atoms: C_18  and  C_20
REMARK                            x       y       z     vdW  Elec       q    Type
REMARK                         _______ _______ _______ _____ _____    ______ ____
ROOT
ATOM      1  C   UNL     1       5.493   4.413  17.241  0.00  0.00    +0.000 C 
ENDROOT
BRANCH   1   5
ATOM      2  C   UNL     1       8.058   7.750  18.358  0.00  0.00    +0.000 A 
ATOM      3  C   UNL     1       7.043   7.925  17.420  0.00  0.00    +0.000 A 
ATOM      4  C   UNL     1       6.210   6.864  17.071  0.00  0.00    +0.000 A 
ATOM      5  C   UNL     1       6.380   5.588  17.611  0.00  0.00    +0.000 A 
ATOM      6  C   UNL     1       7.365   5.436  18.604  0.00  0.00    +0.000 A 
ATOM      7  C   UNL     1       8.196   6.505  18.970  0.00  0.00    +0.000 A 
BRANCH   2   8
ATOM      8  O   UNL     1       8.949   8.722  18.739  0.00  0.00    +0.000 OA
BRANCH   8   9
ATOM      9  C   UNL     1       8.770   9.985  18.086  0.00  0.00    +0.000 C 
BRANCH   9  10
ATOM     10  C   UNL     1       9.316  11.107  18.958  0.00  0.00    +0.000 C 
BRANCH  10  11
ATOM     11  C   UNL     1      10.782  11.420  18.622  0.00  0.00    +0.000 C 
BRANCH  11  13
ATOM     12  C   UNL     1      10.965  13.276  17.050  0.00  0.00    +0.000 C 
ATOM     13  N   UNL     1      11.073  12.855  18.449  0.00  0.00    +0.000 NA
ATOM     14  C   UNL     1      10.175  13.662  19.280  0.00  0.00    +0.000 C 
ENDBRANCH  11  13
ENDBRANCH  10  11
ENDBRANCH   9  10
ENDBRANCH   8   9
ENDBRANCH   2   8
ENDBRANCH   1   5
BRANCH   1  15
ATOM     15  N   UNL     1       4.318   4.124  18.063  0.00  0.00    +0.000 NA
ATOM     16  C   UNL     1       3.112   3.674  17.391  0.00  0.00    +0.000 C 
ATOM     17  C   UNL     1       2.027   4.685  17.718  0.00  0.00    +0.000 C 
ATOM     18  C   UNL     1       2.475   5.380  19.000  0.00  0.00    +0.000 C 
ATOM     19  C   UNL     1       3.984   5.080  19.117  0.00  0.00    +0.000 C 
BRANCH  18  20
ATOM     20  N   UNL     1       2.142   6.799  18.963  0.00  0.00    +0.000 N 
ATOM     21  C   UNL     1       1.615   7.486  20.037  0.00  0.00    +0.000 C 
ATOM     22  O   UNL     1       1.412   6.929  21.114  0.00  0.00    +0.000 OA
ATOM     23  H   UNL     1       2.237   7.311  18.094  0.00  0.00    +0.000 HD
BRANCH  21  24
ATOM     24  C   UNL     1       1.340   8.903  19.810  0.00  0.00    +0.000 A 
ATOM     25  C   UNL     1       0.929   9.831  20.752  0.00  0.00    +0.000 A 
ATOM     26  C   UNL     1       0.757  11.134  20.206  0.00  0.00    +0.000 A 
ATOM     27  C   UNL     1       1.041  11.166  18.860  0.00  0.00    +0.000 A 
ATOM     28  S   UNL     1       1.509   9.634  18.266  0.00  0.00    +0.000 S 
ENDBRANCH  21  24
ENDBRANCH  18  20
ENDBRANCH   1  15
TORSDOF 9
ENDMDL
