MODEL 1
REMARK VINA RESULT:      -6.7      0.000      0.000
REMARK  Name = 
REMARK  7 active torsions:
REMARK  status: ('A' for Active; 'I' for Inactive)
REMARK    1  A    between atoms: C_1  and  O_2
REMARK    2  A    between atoms: O_2  and  C_3
REMARK    3  A    between atoms: C_3  and  C_5
REMARK    4  A    between atoms: C_11  and  C_12
REMARK    5  A    between atoms: C_15  and  O_16
REMARK    6  A    between atoms: O_16  and  C_17
REMARK    7  A    between atoms: N_20  and  C_21
REMARK                            x       y       z     vdW  Elec       q    Type
REMARK                         _______ _______ _______ _____ _____    ______ ____
ROOT
ATOM      1  C   UNL     1       4.013   3.667  19.154  0.00  0.00    +0.000 C 
ATOM      2  C   UNL     1       2.804   2.894  18.531  0.00  0.00    +0.000 C 
ATOM      3  C   UNL     1       2.165   1.804  19.434  0.00  0.00    +0.000 C 
ATOM      4  C   UNL     1       0.964   2.471  20.137  0.00  0.00    +0.000 C 
ATOM      5  C   UNL     1       1.197   3.946  19.861  0.00  0.00    +0.000 C 
ATOM      6  C   UNL     1       2.335   4.419  20.825  0.00  0.00    +0.000 C 
ATOM      7  C   UNL     1       3.560   4.941  20.016  0.00  0.00    +0.000 C 
ATOM      8  N   UNL     1       1.733   3.849  18.524  0.00  0.00    +0.000 NA
ATOM      9  C   UNL     1       1.159   4.310  17.301  0.00  0.00    +0.000 C 
ENDROOT
BRANCH   7  10
ATOM     10  C   UNL     1       3.187   6.292  19.360  0.00  0.00    +0.000 A 
ATOM     11  C   UNL     1       2.269   7.168  19.981  0.00  0.00    +0.000 A 
ATOM     12  C   UNL     1       1.786   8.312  19.333  0.00  0.00    +0.000 A 
ATOM     13  C   UNL     1       2.262   8.662  18.079  0.00  0.00    +0.000 A 
ATOM     14  C   UNL     1       3.224   7.861  17.483  0.00  0.00    +0.000 A 
ATOM     15  C   UNL     1       3.683   6.702  18.118  0.00  0.00    +0.000 A 
BRANCH  13  16
ATOM     16  O   UNL     1       1.705   9.775  17.515  0.00  0.00    +0.000 OA
ATOM     17  C   UNL     1       0.870  10.531  18.385  0.00  0.00    +0.000 C 
ENDBRANCH  13  16
ENDBRANCH   7  10
BRANCH   1  18
ATOM     18  C   UNL     1       5.079   3.914  18.096  0.00  0.00    +0.000 C 
ATOM     19  O   UNL     1       4.921   3.790  16.893  0.00  0.00    +0.000 OA
BRANCH  18  21
ATOM     20  C   UNL     1       7.206   4.826  17.739  0.00  0.00    +0.000 C 
ATOM     21  O   UNL     1       6.260   4.292  18.671  0.00  0.00    +0.000 OA
ENDBRANCH  18  21
ENDBRANCH   1  18
TORSDOF 4
ENDMDL
MODEL 2
REMARK VINA RESULT:      -6.5      0.758      1.293
REMARK  Name = 
REMARK  7 active torsions:
REMARK  status: ('A' for Active; 'I' for Inactive)
REMARK    1  A    between atoms: C_1  and  O_2
REMARK    2  A    between atoms: O_2  and  C_3
REMARK    3  A    between atoms: C_3  and  C_5
REMARK    4  A    between atoms: C_11  and  C_12
REMARK    5  A    between atoms: C_15  and  O_16
REMARK    6  A    between atoms: O_16  and  C_17
REMARK    7  A    between atoms: N_20  and  C_21
REMARK                            x       y       z     vdW  Elec       q    Type
REMARK                         _______ _______ _______ _____ _____    ______ ____
ROOT
ATOM      1  C   UNL     1       4.332   4.192  18.614  0.00  0.00    +0.000 C 
ATOM      2  C   UNL     1       3.251   3.205  18.062  0.00  0.00    +0.000 C 
ATOM      3  C   UNL     1       3.053   1.898  18.877  0.00  0.00    +0.000 C 
ATOM      4  C   UNL     1       1.869   2.156  19.832  0.00  0.00    +0.000 C 
ATOM      5  C   UNL     1       1.696   3.662  19.744  0.00  0.00    +0.000 C 
ATOM      6  C   UNL     1       2.839   4.306  20.597  0.00  0.00    +0.000 C 
ATOM      7  C   UNL     1       3.747   5.208  19.708  0.00  0.00    +0.000 C 
ATOM      8  N   UNL     1       2.000   3.849  18.345  0.00  0.00    +0.000 NA
ATOM      9  C   UNL     1       1.131   4.274  17.296  0.00  0.00    +0.000 C 
ENDROOT
BRANCH   7  10
ATOM     10  C   UNL     1       2.958   6.480  19.316  0.00  0.00    +0.000 A 
ATOM     11  C   UNL     1       3.144   7.085  18.053  0.00  0.00    +0.000 A 
ATOM     12  C   UNL     1       2.576   8.326  17.738  0.00  0.00    +0.000 A 
ATOM     13  C   UNL     1       1.740   8.965  18.640  0.00  0.00    +0.000 A 
ATOM     14  C   UNL     1       1.477   8.352  19.856  0.00  0.00    +0.000 A 
ATOM     15  C   UNL     1       2.071   7.127  20.182  0.00  0.00    +0.000 A 
BRANCH  13  16
ATOM     16  O   UNL     1       1.262  10.186  18.255  0.00  0.00    +0.000 OA
ATOM     17  C   UNL     1      -0.123  10.392  18.510  0.00  0.00    +0.000 C 
ENDBRANCH  13  16
ENDBRANCH   7  10
BRANCH   1  18
ATOM     18  C   UNL     1       5.110   4.815  17.465  0.00  0.00    +0.000 C 
ATOM     19  O   UNL     1       4.793   4.763  16.288  0.00  0.00    +0.000 OA
BRANCH  18  21
ATOM     20  C   UNL     1       7.440   4.711  17.685  0.00  0.00    +0.000 C 
ATOM     21  O   UNL     1       6.234   5.446  17.919  0.00  0.00    +0.000 OA
ENDBRANCH  18  21
ENDBRANCH   1  18
TORSDOF 4
ENDMDL
MODEL 3
REMARK VINA RESULT:      -6.4      0.869      1.130
REMARK  Name = 
REMARK  7 active torsions:
REMARK  status: ('A' for Active; 'I' for Inactive)
REMARK    1  A    between atoms: C_1  and  O_2
REMARK    2  A    between atoms: O_2  and  C_3
REMARK    3  A    between atoms: C_3  and  C_5
REMARK    4  A    between atoms: C_11  and  C_12
REMARK    5  A    between atoms: C_15  and  O_16
REMARK    6  A    between atoms: O_16  and  C_17
REMARK    7  A    between atoms: N_20  and  C_21
REMARK                            x       y       z     vdW  Elec       q    Type
REMARK                         _______ _______ _______ _____ _____    ______ ____
ROOT
ATOM      1  C   UNL     1       4.286   3.936  18.688  0.00  0.00    +0.000 C 
ATOM      2  C   UNL     1       3.114   3.062  18.132  0.00  0.00    +0.000 C 
ATOM      3  C   UNL     1       2.741   1.817  18.981  0.00  0.00    +0.000 C 
ATOM      4  C   UNL     1       1.567   2.245  19.887  0.00  0.00    +0.000 C 
ATOM      5  C   UNL     1       1.574   3.757  19.745  0.00  0.00    +0.000 C 
ATOM      6  C   UNL     1       2.758   4.294  20.614  0.00  0.00    +0.000 C 
ATOM      7  C   UNL     1       3.792   5.052  19.728  0.00  0.00    +0.000 C 
ATOM      8  N   UNL     1       1.940   3.857  18.352  0.00  0.00    +0.000 NA
ATOM      9  C   UNL     1       1.158   4.342  17.261  0.00  0.00    +0.000 C 
ENDROOT
BRANCH   7  10
ATOM     10  C   UNL     1       3.170   6.392  19.268  0.00  0.00    +0.000 A 
ATOM     11  C   UNL     1       2.247   7.079  20.088  0.00  0.00    +0.000 A 
ATOM     12  C   UNL     1       1.542   8.199  19.628  0.00  0.00    +0.000 A 
ATOM     13  C   UNL     1       1.793   8.717  18.367  0.00  0.00    +0.000 A 
ATOM     14  C   UNL     1       2.753   8.108  17.574  0.00  0.00    +0.000 A 
ATOM     15  C   UNL     1       3.434   6.970  18.023  0.00  0.00    +0.000 A 
BRANCH  13  16
ATOM     16  O   UNL     1       1.031   9.790  17.997  0.00  0.00    +0.000 OA
ATOM     17  C   UNL     1       0.258  10.362  19.045  0.00  0.00    +0.000 C 
ENDBRANCH  13  16
ENDBRANCH   7  10
BRANCH   1  18
ATOM     18  C   UNL     1       5.166   4.423  17.546  0.00  0.00    +0.000 C 
ATOM     19  O   UNL     1       6.229   5.007  17.674  0.00  0.00    +0.000 OA
BRANCH  18  21
ATOM     20  C   UNL     1       5.518   4.231  15.238  0.00  0.00    +0.000 C 
ATOM     21  O   UNL     1       4.604   4.129  16.335  0.00  0.00    +0.000 OA
ENDBRANCH  18  21
ENDBRANCH   1  18
TORSDOF 4
ENDMDL
MODEL 4
REMARK VINA RESULT:      -6.2      2.095      4.188
REMARK  Name = 
REMARK  7 active torsions:
REMARK  status: ('A' for Active; 'I' for Inactive)
REMARK    1  A    between atoms: C_1  and  O_2
REMARK    2  A    between atoms: O_2  and  C_3
REMARK    3  A    between atoms: C_3  and  C_5
REMARK    4  A    between atoms: C_11  and  C_12
REMARK    5  A    between atoms: C_15  and  O_16
REMARK    6  A    between atoms: O_16  and  C_17
REMARK    7  A    between atoms: N_20  and  C_21
REMARK                            x       y       z     vdW  Elec       q    Type
REMARK                         _______ _______ _______ _____ _____    ______ ____
ROOT
ATOM      1  C   UNL     1       4.349   3.981  17.039  0.00  0.00    +0.000 C 
ATOM      2  C   UNL     1       5.840   4.084  17.501  0.00  0.00    +0.000 C 
ATOM      3  C   UNL     1       6.885   4.271  16.367  0.00  0.00    +0.000 C 
ATOM      4  C   UNL     1       7.146   5.789  16.263  0.00  0.00    +0.000 C 
ATOM      5  C   UNL     1       6.012   6.377  17.084  0.00  0.00    +0.000 C 
ATOM      6  C   UNL     1       4.719   6.293  16.208  0.00  0.00    +0.000 C 
ATOM      7  C   UNL     1       3.638   5.412  16.904  0.00  0.00    +0.000 C 
ATOM      8  N   UNL     1       5.934   5.375  18.121  0.00  0.00    +0.000 NA
ATOM      9  C   UNL     1       6.231   5.510  19.511  0.00  0.00    +0.000 C 
ENDROOT
BRANCH   7  10
ATOM     10  C   UNL     1       3.081   6.177  18.128  0.00  0.00    +0.000 A 
ATOM     11  C   UNL     1       2.789   5.500  19.332  0.00  0.00    +0.000 A 
ATOM     12  C   UNL     1       2.127   6.131  20.393  0.00  0.00    +0.000 A 
ATOM     13  C   UNL     1       1.807   7.478  20.318  0.00  0.00    +0.000 A 
ATOM     14  C   UNL     1       2.156   8.185  19.178  0.00  0.00    +0.000 A 
ATOM     15  C   UNL     1       2.789   7.545  18.106  0.00  0.00    +0.000 A 
BRANCH  13  16
ATOM     16  O   UNL     1       1.133   7.994  21.389  0.00  0.00    +0.000 OA
ATOM     17  C   UNL     1       0.440   9.210  21.128  0.00  0.00    +0.000 C 
ENDBRANCH  13  16
ENDBRANCH   7  10
BRANCH   1  18
ATOM     18  C   UNL     1       3.613   2.940  17.870  0.00  0.00    +0.000 C 
ATOM     19  O   UNL     1       4.066   2.368  18.848  0.00  0.00    +0.000 OA
BRANCH  18  21
ATOM     20  C   UNL     1       1.404   2.344  18.372  0.00  0.00    +0.000 C 
ATOM     21  O   UNL     1       2.361   2.713  17.373  0.00  0.00    +0.000 OA
ENDBRANCH  18  21
ENDBRANCH   1  18
TORSDOF 4
ENDMDL
MODEL 5
REMARK VINA RESULT:      -6.1      2.123      4.727
REMARK  Name = 
REMARK  7 active torsions:
REMARK  status: ('A' for Active; 'I' for Inactive)
REMARK    1  A    between atoms: C_1  and  O_2
REMARK    2  A    between atoms: O_2  and  C_3
REMARK    3  A    between atoms: C_3  and  C_5
REMARK    4  A    between atoms: C_11  and  C_12
REMARK    5  A    between atoms: C_15  and  O_16
REMARK    6  A    between atoms: O_16  and  C_17
REMARK    7  A    between atoms: N_20  and  C_21
REMARK                            x       y       z     vdW  Elec       q    Type
REMARK                         _______ _______ _______ _____ _____    ______ ____
ROOT
ATOM      1  C   UNL     1       1.997   5.131  18.732  0.00  0.00    +0.000 C 
ATOM      2  C   UNL     1       2.404   4.267  19.971  0.00  0.00    +0.000 C 
ATOM      3  C   UNL     1       1.401   3.152  20.374  0.00  0.00    +0.000 C 
ATOM      4  C   UNL     1       1.902   1.854  19.706  0.00  0.00    +0.000 C 
ATOM      5  C   UNL     1       2.934   2.368  18.716  0.00  0.00    +0.000 C 
ATOM      6  C   UNL     1       2.147   2.974  17.507  0.00  0.00    +0.000 C 
ATOM      7  C   UNL     1       2.473   4.488  17.342  0.00  0.00    +0.000 C 
ATOM      8  N   UNL     1       3.485   3.450  19.498  0.00  0.00    +0.000 NA
ATOM      9  C   UNL     1       4.800   3.574  20.039  0.00  0.00    +0.000 C 
ENDROOT
BRANCH   7  10
ATOM     10  C   UNL     1       3.921   4.634  16.816  0.00  0.00    +0.000 A 
ATOM     11  C   UNL     1       4.590   5.876  16.876  0.00  0.00    +0.000 A 
ATOM     12  C   UNL     1       5.830   6.078  16.257  0.00  0.00    +0.000 A 
ATOM     13  C   UNL     1       6.479   5.027  15.627  0.00  0.00    +0.000 A 
ATOM     14  C   UNL     1       5.879   3.777  15.625  0.00  0.00    +0.000 A 
ATOM     15  C   UNL     1       4.626   3.585  16.217  0.00  0.00    +0.000 A 
BRANCH  13  16
ATOM     16  O   UNL     1       7.667   5.332  15.023  0.00  0.00    +0.000 OA
ATOM     17  C   UNL     1       7.672   5.184  13.608  0.00  0.00    +0.000 C 
ENDBRANCH  13  16
ENDBRANCH   7  10
BRANCH   1  18
ATOM     18  C   UNL     1       2.369   6.588  18.962  0.00  0.00    +0.000 C 
ATOM     19  O   UNL     1       3.050   7.005  19.885  0.00  0.00    +0.000 OA
BRANCH  18  21
ATOM     20  C   UNL     1       2.449   8.678  17.908  0.00  0.00    +0.000 C 
ATOM     21  O   UNL     1       1.831   7.389  17.995  0.00  0.00    +0.000 OA
ENDBRANCH  18  21
ENDBRANCH   1  18
TORSDOF 4
ENDMDL
MODEL 6
REMARK VINA RESULT:      -6.1      2.703      4.336
REMARK  Name = 
REMARK  7 active torsions:
REMARK  status: ('A' for Active; 'I' for Inactive)
REMARK    1  A    between atoms: C_1  and  O_2
REMARK    2  A    between atoms: O_2  and  C_3
REMARK    3  A    between atoms: C_3  and  C_5
REMARK    4  A    between atoms: C_11  and  C_12
REMARK    5  A    between atoms: C_15  and  O_16
REMARK    6  A    between atoms: O_16  and  C_17
REMARK    7  A    between atoms: N_20  and  C_21
REMARK                            x       y       z     vdW  Elec       q    Type
REMARK                         _______ _______ _______ _____ _____    ______ ____
ROOT
ATOM      1  C   UNL     1       3.742   3.253  19.842  0.00  0.00    +0.000 C 
ATOM      2  C   UNL     1       2.206   3.507  19.694  0.00  0.00    +0.000 C 
ATOM      3  C   UNL     1       1.536   4.282  20.860  0.00  0.00    +0.000 C 
ATOM      4  C   UNL     1       1.499   5.765  20.433  0.00  0.00    +0.000 C 
ATOM      5  C   UNL     1       2.432   5.787  19.235  0.00  0.00    +0.000 C 
ATOM      6  C   UNL     1       3.893   5.732  19.792  0.00  0.00    +0.000 C 
ATOM      7  C   UNL     1       4.632   4.461  19.276  0.00  0.00    +0.000 C 
ATOM      8  N   UNL     1       2.106   4.502  18.664  0.00  0.00    +0.000 NA
ATOM      9  C   UNL     1       1.465   4.220  17.420  0.00  0.00    +0.000 C 
ENDROOT
BRANCH   7  10
ATOM     10  C   UNL     1       4.928   4.633  17.766  0.00  0.00    +0.000 A 
ATOM     11  C   UNL     1       5.252   3.518  16.962  0.00  0.00    +0.000 A 
ATOM     12  C   UNL     1       5.690   3.663  15.639  0.00  0.00    +0.000 A 
ATOM     13  C   UNL     1       5.742   4.917  15.052  0.00  0.00    +0.000 A 
ATOM     14  C   UNL     1       5.351   6.020  15.796  0.00  0.00    +0.000 A 
ATOM     15  C   UNL     1       4.944   5.876  17.127  0.00  0.00    +0.000 A 
BRANCH  13  16
ATOM     16  O   UNL     1       6.213   4.960  13.769  0.00  0.00    +0.000 OA
ATOM     17  C   UNL     1       6.186   3.714  13.082  0.00  0.00    +0.000 C 
ENDBRANCH  13  16
ENDBRANCH   7  10
BRANCH   1  18
ATOM     18  C   UNL     1       4.096   1.862  19.336  0.00  0.00    +0.000 C 
ATOM     19  O   UNL     1       3.464   1.232  18.505  0.00  0.00    +0.000 OA
BRANCH  18  21
ATOM     20  C   UNL     1       5.112   1.291  21.368  0.00  0.00    +0.000 C 
ATOM     21  O   UNL     1       5.226   1.392  19.944  0.00  0.00    +0.000 OA
ENDBRANCH  18  21
ENDBRANCH   1  18
TORSDOF 4
ENDMDL
MODEL 7
REMARK VINA RESULT:      -6.0      2.095      4.051
REMARK  Name = 
REMARK  7 active torsions:
REMARK  status: ('A' for Active; 'I' for Inactive)
REMARK    1  A    between atoms: C_1  and  O_2
REMARK    2  A    between atoms: O_2  and  C_3
REMARK    3  A    between atoms: C_3  and  C_5
REMARK    4  A    between atoms: C_11  and  C_12
REMARK    5  A    between atoms: C_15  and  O_16
REMARK    6  A    between atoms: O_16  and  C_17
REMARK    7  A    between atoms: N_20  and  C_21
REMARK                            x       y       z     vdW  Elec       q    Type
REMARK                         _______ _______ _______ _____ _____    ______ ____
ROOT
ATOM      1  C   UNL     1       4.320   4.227  16.812  0.00  0.00    +0.000 C 
ATOM      2  C   UNL     1       5.725   4.220  17.501  0.00  0.00    +0.000 C 
ATOM      3  C   UNL     1       6.932   4.519  16.571  0.00  0.00    +0.000 C 
ATOM      4  C   UNL     1       7.226   6.027  16.711  0.00  0.00    +0.000 C 
ATOM      5  C   UNL     1       5.988   6.541  17.426  0.00  0.00    +0.000 C 
ATOM      6  C   UNL     1       4.843   6.614  16.363  0.00  0.00    +0.000 C 
ATOM      7  C   UNL     1       3.657   5.686  16.765  0.00  0.00    +0.000 C 
ATOM      8  N   UNL     1       5.740   5.415  18.295  0.00  0.00    +0.000 NA
ATOM      9  C   UNL     1       5.824   5.357  19.719  0.00  0.00    +0.000 C 
ENDROOT
BRANCH   7  10
ATOM     10  C   UNL     1       2.930   6.303  17.984  0.00  0.00    +0.000 A 
ATOM     11  C   UNL     1       2.627   7.682  18.023  0.00  0.00    +0.000 A 
ATOM     12  C   UNL     1       2.126   8.296  19.178  0.00  0.00    +0.000 A 
ATOM     13  C   UNL     1       1.837   7.542  20.304  0.00  0.00    +0.000 A 
ATOM     14  C   UNL     1       2.050   6.172  20.263  0.00  0.00    +0.000 A 
ATOM     15  C   UNL     1       2.580   5.565  19.119  0.00  0.00    +0.000 A 
BRANCH  13  16
ATOM     16  O   UNL     1       1.385   8.236  21.391  0.00  0.00    +0.000 OA
ATOM     17  C   UNL     1       0.780   9.488  21.090  0.00  0.00    +0.000 C 
ENDBRANCH  13  16
ENDBRANCH   7  10
BRANCH   1  18
ATOM     18  C   UNL     1       3.453   3.112  17.376  0.00  0.00    +0.000 C 
ATOM     19  O   UNL     1       2.330   2.829  16.993  0.00  0.00    +0.000 OA
BRANCH  18  21
ATOM     20  C   UNL     1       3.217   2.003  19.426  0.00  0.00    +0.000 C 
ATOM     21  O   UNL     1       4.094   2.457  18.390  0.00  0.00    +0.000 OA
ENDBRANCH  18  21
ENDBRANCH   1  18
TORSDOF 4
ENDMDL
MODEL 8
REMARK VINA RESULT:      -6.0      0.808      1.504
REMARK  Name = 
REMARK  7 active torsions:
REMARK  status: ('A' for Active; 'I' for Inactive)
REMARK    1  A    between atoms: C_1  and  O_2
REMARK    2  A    between atoms: O_2  and  C_3
REMARK    3  A    between atoms: C_3  and  C_5
REMARK    4  A    between atoms: C_11  and  C_12
REMARK    5  A    between atoms: C_15  and  O_16
REMARK    6  A    between atoms: O_16  and  C_17
REMARK    7  A    between atoms: N_20  and  C_21
REMARK                            x       y       z     vdW  Elec       q    Type
REMARK                         _______ _______ _______ _____ _____    ______ ____
ROOT
ATOM      1  C   UNL     1       4.563   3.869  19.460  0.00  0.00    +0.000 C 
ATOM      2  C   UNL     1       3.848   2.868  18.494  0.00  0.00    +0.000 C 
ATOM      3  C   UNL     1       3.295   1.575  19.153  0.00  0.00    +0.000 C 
ATOM      4  C   UNL     1       1.806   1.846  19.459  0.00  0.00    +0.000 C 
ATOM      5  C   UNL     1       1.699   3.350  19.274  0.00  0.00    +0.000 C 
ATOM      6  C   UNL     1       2.331   4.014  20.541  0.00  0.00    +0.000 C 
ATOM      7  C   UNL     1       3.549   4.903  20.148  0.00  0.00    +0.000 C 
ATOM      8  N   UNL     1       2.609   3.512  18.164  0.00  0.00    +0.000 NA
ATOM      9  C   UNL     1       2.316   3.914  16.827  0.00  0.00    +0.000 C 
ENDROOT
BRANCH   7  10
ATOM     10  C   UNL     1       3.031   6.165  19.416  0.00  0.00    +0.000 A 
ATOM     11  C   UNL     1       3.563   6.542  18.164  0.00  0.00    +0.000 A 
ATOM     12  C   UNL     1       3.238   7.765  17.562  0.00  0.00    +0.000 A 
ATOM     13  C   UNL     1       2.313   8.613  18.151  0.00  0.00    +0.000 A 
ATOM     14  C   UNL     1       1.717   8.227  19.341  0.00  0.00    +0.000 A 
ATOM     15  C   UNL     1       2.066   7.020  19.957  0.00  0.00    +0.000 A 
BRANCH  13  16
ATOM     16  O   UNL     1       2.089   9.797  17.505  0.00  0.00    +0.000 OA
ATOM     17  C   UNL     1       1.757  10.887  18.357  0.00  0.00    +0.000 C 
ENDBRANCH  13  16
ENDBRANCH   7  10
BRANCH   1  18
ATOM     18  C   UNL     1       5.783   4.474  18.780  0.00  0.00    +0.000 C 
ATOM     19  O   UNL     1       6.613   5.185  19.323  0.00  0.00    +0.000 OA
BRANCH  18  21
ATOM     20  C   UNL     1       6.703   4.951  16.679  0.00  0.00    +0.000 C 
ATOM     21  O   UNL     1       5.831   4.126  17.460  0.00  0.00    +0.000 OA
ENDBRANCH  18  21
ENDBRANCH   1  18
TORSDOF 4
ENDMDL
MODEL 9
REMARK VINA RESULT:      -6.0      2.080      4.700
REMARK  Name = 
REMARK  7 active torsions:
REMARK  status: ('A' for Active; 'I' for Inactive)
REMARK    1  A    between atoms: C_1  and  O_2
REMARK    2  A    between atoms: O_2  and  C_3
REMARK    3  A    between atoms: C_3  and  C_5
REMARK    4  A    between atoms: C_11  and  C_12
REMARK    5  A    between atoms: C_15  and  O_16
REMARK    6  A    between atoms: O_16  and  C_17
REMARK    7  A    between atoms: N_20  and  C_21
REMARK                            x       y       z     vdW  Elec       q    Type
REMARK                         _______ _______ _______ _____ _____    ______ ____
ROOT
ATOM      1  C   UNL     1       1.854   5.485  18.972  0.00  0.00    +0.000 C 
ATOM      2  C   UNL     1       2.253   4.640  20.227  0.00  0.00    +0.000 C 
ATOM      3  C   UNL     1       1.221   3.568  20.673  0.00  0.00    +0.000 C 
ATOM      4  C   UNL     1       1.670   2.238  20.031  0.00  0.00    +0.000 C 
ATOM      5  C   UNL     1       2.701   2.693  19.013  0.00  0.00    +0.000 C 
ATOM      6  C   UNL     1       1.915   3.294  17.801  0.00  0.00    +0.000 C 
ATOM      7  C   UNL     1       2.287   4.792  17.592  0.00  0.00    +0.000 C 
ATOM      8  N   UNL     1       3.299   3.776  19.759  0.00  0.00    +0.000 NA
ATOM      9  C   UNL     1       4.626   3.871  20.277  0.00  0.00    +0.000 C 
ENDROOT
BRANCH   7  10
ATOM     10  C   UNL     1       3.731   4.877  17.042  0.00  0.00    +0.000 A 
ATOM     11  C   UNL     1       4.441   6.098  17.062  0.00  0.00    +0.000 A 
ATOM     12  C   UNL     1       5.677   6.244  16.419  0.00  0.00    +0.000 A 
ATOM     13  C   UNL     1       6.281   5.158  15.804  0.00  0.00    +0.000 A 
ATOM     14  C   UNL     1       5.640   3.929  15.841  0.00  0.00    +0.000 A 
ATOM     15  C   UNL     1       4.391   3.792  16.456  0.00  0.00    +0.000 A 
BRANCH  13  16
ATOM     16  O   UNL     1       7.469   5.409  15.176  0.00  0.00    +0.000 OA
ATOM     17  C   UNL     1       7.509   5.031  13.804  0.00  0.00    +0.000 C 
ENDBRANCH  13  16
ENDBRANCH   7  10
BRANCH   1  18
ATOM     18  C   UNL     1       2.277   6.934  19.160  0.00  0.00    +0.000 C 
ATOM     19  O   UNL     1       2.503   7.725  18.259  0.00  0.00    +0.000 OA
BRANCH  18  21
ATOM     20  C   UNL     1       1.411   8.199  20.931  0.00  0.00    +0.000 C 
ATOM     21  O   UNL     1       2.383   7.246  20.486  0.00  0.00    +0.000 OA
ENDBRANCH  18  21
ENDBRANCH   1  18
TORSDOF 4
ENDMDL
