MODEL 1
REMARK VINA RESULT:      -6.8      0.000      0.000
REMARK  Name = 
REMARK  0 active torsions:
REMARK  status: ('A' for Active; 'I' for Inactive)
REMARK                            x       y       z     vdW  Elec       q    Type
REMARK                         _______ _______ _______ _____ _____    ______ ____
ROOT
ATOM      1  O   UNL     1      -4.741  11.881  24.821  0.00  0.00    +0.000 OA
ATOM      2  C   UNL     1      -4.463  12.757  24.009  0.00  0.00    +0.000 C 
ATOM      3  C   UNL     1      -3.502  13.900  24.304  0.00  0.00    +0.000 C 
ATOM      4  N   UNL     1      -3.829  15.070  23.503  0.00  0.00    +0.000 N 
ATOM      5  C   UNL     1      -3.822  14.874  22.124  0.00  0.00    +0.000 C 
ATOM      6  O   UNL     1      -3.434  15.756  21.361  0.00  0.00    +0.000 OA
ATOM      7  C   UNL     1      -4.704  13.675  21.662  0.00  0.00    +0.000 C 
ATOM      8  C   UNL     1      -6.078  14.282  21.282  0.00  0.00    +0.000 C 
ATOM      9  S   UNL     1      -6.853  13.025  20.193  0.00  0.00    +0.000 S 
ATOM     10  C   UNL     1      -5.292  12.488  19.673  0.00  0.00    +0.000 C 
ATOM     11  C   UNL     1      -4.278  12.932  20.422  0.00  0.00    +0.000 C 
ATOM     12  C   UNL     1      -2.887  12.631  20.062  0.00  0.00    +0.000 C 
ATOM     13  O   UNL     1      -1.951  13.089  20.698  0.00  0.00    +0.000 OA
ATOM     14  C   UNL     1      -2.667  11.691  18.928  0.00  0.00    +0.000 A 
ATOM     15  C   UNL     1      -1.364  11.330  18.565  0.00  0.00    +0.000 A 
ATOM     16  C   UNL     1      -1.155  10.338  17.602  0.00  0.00    +0.000 A 
ATOM     17  C   UNL     1      -2.240   9.700  17.003  0.00  0.00    +0.000 A 
ATOM     18  C   UNL     1      -3.538  10.094  17.320  0.00  0.00    +0.000 A 
ATOM     19  C   UNL     1      -3.752  11.108  18.265  0.00  0.00    +0.000 A 
ATOM     20  C   UNL     1      -5.132  11.549  18.544  0.00  0.00    +0.000 C 
ATOM     21  O   UNL     1      -6.074  11.129  17.883  0.00  0.00    +0.000 OA
ATOM     22  N   UNL     1      -4.884  12.647  22.711  0.00  0.00    +0.000 N 
ATOM     23  H   UNL     1      -4.698  15.487  23.817  0.00  0.00    +0.000 HD
ATOM     24  H   UNL     1      -5.519  11.874  22.540  0.00  0.00    +0.000 HD
ENDROOT
TORSDOF 0
ENDMDL
MODEL 2
REMARK VINA RESULT:      -6.6      5.204      7.135
REMARK  Name = 
REMARK  0 active torsions:
REMARK  status: ('A' for Active; 'I' for Inactive)
REMARK                            x       y       z     vdW  Elec       q    Type
REMARK                         _______ _______ _______ _____ _____    ______ ____
ROOT
ATOM      1  O   UNL     1       2.460  13.351  21.304  0.00  0.00    +0.000 OA
ATOM      2  C   UNL     1       1.678  12.797  20.539  0.00  0.00    +0.000 C 
ATOM      3  C   UNL     1       1.117  13.459  19.288  0.00  0.00    +0.000 C 
ATOM      4  N   UNL     1      -0.185  12.905  18.950  0.00  0.00    +0.000 N 
ATOM      5  C   UNL     1      -0.213  11.529  18.733  0.00  0.00    +0.000 C 
ATOM      6  O   UNL     1      -0.946  11.038  17.877  0.00  0.00    +0.000 OA
ATOM      7  C   UNL     1       0.408  10.702  19.900  0.00  0.00    +0.000 C 
ATOM      8  C   UNL     1      -0.780  10.297  20.808  0.00  0.00    +0.000 C 
ATOM      9  S   UNL     1      -0.156   8.865  21.772  0.00  0.00    +0.000 S 
ATOM     10  C   UNL     1       0.916   8.441  20.480  0.00  0.00    +0.000 C 
ATOM     11  C   UNL     1       1.067   9.393  19.555  0.00  0.00    +0.000 C 
ATOM     12  C   UNL     1       1.879   9.155  18.354  0.00  0.00    +0.000 C 
ATOM     13  O   UNL     1       1.968   9.991  17.469  0.00  0.00    +0.000 OA
ATOM     14  C   UNL     1       2.641   7.878  18.293  0.00  0.00    +0.000 A 
ATOM     15  C   UNL     1       3.469   7.612  17.195  0.00  0.00    +0.000 A 
ATOM     16  C   UNL     1       4.299   6.486  17.199  0.00  0.00    +0.000 A 
ATOM     17  C   UNL     1       4.312   5.627  18.297  0.00  0.00    +0.000 A 
ATOM     18  C   UNL     1       3.450   5.856  19.368  0.00  0.00    +0.000 A 
ATOM     19  C   UNL     1       2.596   6.968  19.355  0.00  0.00    +0.000 A 
ATOM     20  C   UNL     1       1.653   7.160  20.473  0.00  0.00    +0.000 C 
ATOM     21  O   UNL     1       1.524   6.308  21.342  0.00  0.00    +0.000 OA
ATOM     22  N   UNL     1       1.402  11.465  20.688  0.00  0.00    +0.000 N 
ATOM     23  H   UNL     1      -0.883  13.190  19.628  0.00  0.00    +0.000 HD
ATOM     24  H   UNL     1       1.793  11.046  21.526  0.00  0.00    +0.000 HD
ENDROOT
TORSDOF 0
ENDMDL
MODEL 3
REMARK VINA RESULT:      -6.5      1.714      1.892
REMARK  Name = 
REMARK  0 active torsions:
REMARK  status: ('A' for Active; 'I' for Inactive)
REMARK                            x       y       z     vdW  Elec       q    Type
REMARK                         _______ _______ _______ _____ _____    ______ ____
ROOT
ATOM      1  O   UNL     1      -7.536  11.403  23.804  0.00  0.00    +0.000 OA
ATOM      2  C   UNL     1      -7.090  12.394  23.235  0.00  0.00    +0.000 C 
ATOM      3  C   UNL     1      -6.640  13.650  23.967  0.00  0.00    +0.000 C 
ATOM      4  N   UNL     1      -6.778  14.822  23.115  0.00  0.00    +0.000 N 
ATOM      5  C   UNL     1      -6.076  14.775  21.912  0.00  0.00    +0.000 C 
ATOM      6  O   UNL     1      -5.561  15.786  21.440  0.00  0.00    +0.000 OA
ATOM      7  C   UNL     1      -6.367  13.494  21.072  0.00  0.00    +0.000 C 
ATOM      8  C   UNL     1      -7.486  13.888  20.076  0.00  0.00    +0.000 C 
ATOM      9  S   UNL     1      -7.376  12.635  18.740  0.00  0.00    +0.000 S 
ATOM     10  C   UNL     1      -5.684  12.436  19.042  0.00  0.00    +0.000 C 
ATOM     11  C   UNL     1      -5.262  12.970  20.192  0.00  0.00    +0.000 C 
ATOM     12  C   UNL     1      -3.839  12.957  20.553  0.00  0.00    +0.000 C 
ATOM     13  O   UNL     1      -3.433  13.503  21.567  0.00  0.00    +0.000 OA
ATOM     14  C   UNL     1      -2.921  12.194  19.664  0.00  0.00    +0.000 A 
ATOM     15  C   UNL     1      -1.559  12.106  19.979  0.00  0.00    +0.000 A 
ATOM     16  C   UNL     1      -0.720  11.271  19.233  0.00  0.00    +0.000 A 
ATOM     17  C   UNL     1      -1.234  10.519  18.178  0.00  0.00    +0.000 A 
ATOM     18  C   UNL     1      -2.576  10.645  17.826  0.00  0.00    +0.000 A 
ATOM     19  C   UNL     1      -3.415  11.501  18.553  0.00  0.00    +0.000 A 
ATOM     20  C   UNL     1      -4.818  11.662  18.128  0.00  0.00    +0.000 C 
ATOM     21  O   UNL     1      -5.225  11.156  17.090  0.00  0.00    +0.000 OA
ATOM     22  N   UNL     1      -6.811  12.347  21.895  0.00  0.00    +0.000 N 
ATOM     23  H   UNL     1      -7.756  15.045  22.968  0.00  0.00    +0.000 HD
ATOM     24  H   UNL     1      -7.116  11.497  21.432  0.00  0.00    +0.000 HD
ENDROOT
TORSDOF 0
ENDMDL
MODEL 4
REMARK VINA RESULT:      -6.4      0.850      1.048
REMARK  Name = 
REMARK  0 active torsions:
REMARK  status: ('A' for Active; 'I' for Inactive)
REMARK                            x       y       z     vdW  Elec       q    Type
REMARK                         _______ _______ _______ _____ _____    ______ ____
ROOT
ATOM      1  O   UNL     1      -5.052  11.889  24.658  0.00  0.00    +0.000 OA
ATOM      2  C   UNL     1      -4.637  12.775  23.918  0.00  0.00    +0.000 C 
ATOM      3  C   UNL     1      -3.855  13.983  24.412  0.00  0.00    +0.000 C 
ATOM      4  N   UNL     1      -4.046  15.121  23.526  0.00  0.00    +0.000 N 
ATOM      5  C   UNL     1      -3.684  14.913  22.197  0.00  0.00    +0.000 C 
ATOM      6  O   UNL     1      -3.174  15.813  21.532  0.00  0.00    +0.000 OA
ATOM      7  C   UNL     1      -4.344  13.653  21.561  0.00  0.00    +0.000 C 
ATOM      8  C   UNL     1      -5.616  14.161  20.838  0.00  0.00    +0.000 C 
ATOM      9  S   UNL     1      -6.014  12.845  19.623  0.00  0.00    +0.000 S 
ATOM     10  C   UNL     1      -4.341  12.411  19.520  0.00  0.00    +0.000 C 
ATOM     11  C   UNL     1      -3.577  12.929  20.486  0.00  0.00    +0.000 C 
ATOM     12  C   UNL     1      -2.123  12.721  20.490  0.00  0.00    +0.000 C 
ATOM     13  O   UNL     1      -1.406  13.248  21.326  0.00  0.00    +0.000 OA
ATOM     14  C   UNL     1      -1.568  11.789  19.470  0.00  0.00    +0.000 A 
ATOM     15  C   UNL     1      -0.195  11.514  19.451  0.00  0.00    +0.000 A 
ATOM     16  C   UNL     1       0.310  10.530  18.595  0.00  0.00    +0.000 A 
ATOM     17  C   UNL     1      -0.549   9.814  17.763  0.00  0.00    +0.000 A 
ATOM     18  C   UNL     1      -1.907  10.122  17.737  0.00  0.00    +0.000 A 
ATOM     19  C   UNL     1      -2.414  11.127  18.574  0.00  0.00    +0.000 A 
ATOM     20  C   UNL     1      -3.845  11.475  18.490  0.00  0.00    +0.000 C 
ATOM     21  O   UNL     1      -4.564  10.986  17.627  0.00  0.00    +0.000 OA
ATOM     22  N   UNL     1      -4.714  12.624  22.559  0.00  0.00    +0.000 N 
ATOM     23  H   UNL     1      -4.991  15.480  23.604  0.00  0.00    +0.000 HD
ATOM     24  H   UNL     1      -5.236  11.808  22.256  0.00  0.00    +0.000 HD
ENDROOT
TORSDOF 0
ENDMDL
MODEL 5
REMARK VINA RESULT:      -6.4      2.677      3.651
REMARK  Name = 
REMARK  0 active torsions:
REMARK  status: ('A' for Active; 'I' for Inactive)
REMARK                            x       y       z     vdW  Elec       q    Type
REMARK                         _______ _______ _______ _____ _____    ______ ____
ROOT
ATOM      1  O   UNL     1      -7.754   9.889  20.981  0.00  0.00    +0.000 OA
ATOM      2  C   UNL     1      -7.318  10.991  20.662  0.00  0.00    +0.000 C 
ATOM      3  C   UNL     1      -7.720  12.285  21.354  0.00  0.00    +0.000 C 
ATOM      4  N   UNL     1      -7.606  13.415  20.445  0.00  0.00    +0.000 N 
ATOM      5  C   UNL     1      -6.341  13.619  19.898  0.00  0.00    +0.000 C 
ATOM      6  O   UNL     1      -5.914  14.753  19.695  0.00  0.00    +0.000 OA
ATOM      7  C   UNL     1      -5.746  12.350  19.215  0.00  0.00    +0.000 C 
ATOM      8  C   UNL     1      -6.103  12.472  17.713  0.00  0.00    +0.000 C 
ATOM      9  S   UNL     1      -4.913  11.362  16.864  0.00  0.00    +0.000 S 
ATOM     10  C   UNL     1      -3.752  11.617  18.121  0.00  0.00    +0.000 C 
ATOM     11  C   UNL     1      -4.249  12.189  19.223  0.00  0.00    +0.000 C 
ATOM     12  C   UNL     1      -3.373  12.546  20.347  0.00  0.00    +0.000 C 
ATOM     13  O   UNL     1      -3.803  13.132  21.328  0.00  0.00    +0.000 OA
ATOM     14  C   UNL     1      -1.954  12.105  20.268  0.00  0.00    +0.000 A 
ATOM     15  C   UNL     1      -1.080  12.375  21.328  0.00  0.00    +0.000 A 
ATOM     16  C   UNL     1       0.212  11.838  21.326  0.00  0.00    +0.000 A 
ATOM     17  C   UNL     1       0.633  11.026  20.275  0.00  0.00    +0.000 A 
ATOM     18  C   UNL     1      -0.212  10.799  19.191  0.00  0.00    +0.000 A 
ATOM     19  C   UNL     1      -1.498  11.359  19.175  0.00  0.00    +0.000 A 
ATOM     20  C   UNL     1      -2.355  11.153  17.993  0.00  0.00    +0.000 C 
ATOM     21  O   UNL     1      -1.922  10.605  16.987  0.00  0.00    +0.000 OA
ATOM     22  N   UNL     1      -6.294  11.087  19.758  0.00  0.00    +0.000 N 
ATOM     23  H   UNL     1      -8.320  13.371  19.727  0.00  0.00    +0.000 HD
ATOM     24  H   UNL     1      -6.041  10.209  19.316  0.00  0.00    +0.000 HD
ENDROOT
TORSDOF 0
ENDMDL
MODEL 6
REMARK VINA RESULT:      -6.3      3.060      5.081
REMARK  Name = 
REMARK  0 active torsions:
REMARK  status: ('A' for Active; 'I' for Inactive)
REMARK                            x       y       z     vdW  Elec       q    Type
REMARK                         _______ _______ _______ _____ _____    ______ ____
ROOT
ATOM      1  O   UNL     1       0.502   8.812  20.861  0.00  0.00    +0.000 OA
ATOM      2  C   UNL     1       0.351   9.882  20.281  0.00  0.00    +0.000 C 
ATOM      3  C   UNL     1       1.030  10.226  18.964  0.00  0.00    +0.000 C 
ATOM      4  N   UNL     1       1.215  11.664  18.837  0.00  0.00    +0.000 N 
ATOM      5  C   UNL     1       0.051  12.426  18.909  0.00  0.00    +0.000 C 
ATOM      6  O   UNL     1      -0.087  13.438  18.225  0.00  0.00    +0.000 OA
ATOM      7  C   UNL     1      -0.809  12.130  20.175  0.00  0.00    +0.000 C 
ATOM      8  C   UNL     1      -0.391  13.187  21.227  0.00  0.00    +0.000 C 
ATOM      9  S   UNL     1      -1.786  13.231  22.418  0.00  0.00    +0.000 S 
ATOM     10  C   UNL     1      -2.889  12.760  21.170  0.00  0.00    +0.000 C 
ATOM     11  C   UNL     1      -2.302  12.300  20.060  0.00  0.00    +0.000 C 
ATOM     12  C   UNL     1      -3.098  11.938  18.881  0.00  0.00    +0.000 C 
ATOM     13  O   UNL     1      -2.569  11.584  17.839  0.00  0.00    +0.000 OA
ATOM     14  C   UNL     1      -4.579  11.957  19.030  0.00  0.00    +0.000 A 
ATOM     15  C   UNL     1      -5.393  11.579  17.955  0.00  0.00    +0.000 A 
ATOM     16  C   UNL     1      -6.775  11.453  18.133  0.00  0.00    +0.000 A 
ATOM     17  C   UNL     1      -7.348  11.697  19.379  0.00  0.00    +0.000 A 
ATOM     18  C   UNL     1      -6.550  12.128  20.438  0.00  0.00    +0.000 A 
ATOM     19  C   UNL     1      -5.168  12.282  20.257  0.00  0.00    +0.000 A 
ATOM     20  C   UNL     1      -4.352  12.793  21.374  0.00  0.00    +0.000 C 
ATOM     21  O   UNL     1      -4.875  13.192  22.406  0.00  0.00    +0.000 OA
ATOM     22  N   UNL     1      -0.595  10.771  20.719  0.00  0.00    +0.000 N 
ATOM     23  H   UNL     1       1.918  11.993  19.489  0.00  0.00    +0.000 HD
ATOM     24  H   UNL     1      -1.037  10.515  21.596  0.00  0.00    +0.000 HD
ENDROOT
TORSDOF 0
ENDMDL
MODEL 7
REMARK VINA RESULT:      -6.2      2.359      3.685
REMARK  Name = 
REMARK  0 active torsions:
REMARK  status: ('A' for Active; 'I' for Inactive)
REMARK                            x       y       z     vdW  Elec       q    Type
REMARK                         _______ _______ _______ _____ _____    ______ ____
ROOT
ATOM      1  O   UNL     1      -1.522  16.598  21.490  0.00  0.00    +0.000 OA
ATOM      2  C   UNL     1      -2.168  15.608  21.818  0.00  0.00    +0.000 C 
ATOM      3  C   UNL     1      -3.531  15.680  22.491  0.00  0.00    +0.000 C 
ATOM      4  N   UNL     1      -3.763  14.503  23.316  0.00  0.00    +0.000 N 
ATOM      5  C   UNL     1      -3.699  13.282  22.649  0.00  0.00    +0.000 C 
ATOM      6  O   UNL     1      -4.446  12.354  22.954  0.00  0.00    +0.000 OA
ATOM      7  C   UNL     1      -2.384  13.085  21.835  0.00  0.00    +0.000 C 
ATOM      8  C   UNL     1      -1.424  12.304  22.766  0.00  0.00    +0.000 C 
ATOM      9  S   UNL     1      -0.187  11.559  21.633  0.00  0.00    +0.000 S 
ATOM     10  C   UNL     1      -1.357  11.512  20.359  0.00  0.00    +0.000 C 
ATOM     11  C   UNL     1      -2.454  12.240  20.590  0.00  0.00    +0.000 C 
ATOM     12  C   UNL     1      -3.575  12.237  19.641  0.00  0.00    +0.000 C 
ATOM     13  O   UNL     1      -4.609  12.842  19.874  0.00  0.00    +0.000 OA
ATOM     14  C   UNL     1      -3.371  11.518  18.353  0.00  0.00    +0.000 A 
ATOM     15  C   UNL     1      -4.386  11.517  17.388  0.00  0.00    +0.000 A 
ATOM     16  C   UNL     1      -4.148  10.972  16.122  0.00  0.00    +0.000 A 
ATOM     17  C   UNL     1      -2.900  10.434  15.812  0.00  0.00    +0.000 A 
ATOM     18  C   UNL     1      -1.905  10.383  16.786  0.00  0.00    +0.000 A 
ATOM     19  C   UNL     1      -2.148  10.903  18.065  0.00  0.00    +0.000 A 
ATOM     20  C   UNL     1      -1.101  10.787  19.097  0.00  0.00    +0.000 C 
ATOM     21  O   UNL     1      -0.079  10.146  18.889  0.00  0.00    +0.000 OA
ATOM     22  N   UNL     1      -1.757  14.362  21.427  0.00  0.00    +0.000 N 
ATOM     23  H   UNL     1      -3.162  14.514  24.133  0.00  0.00    +0.000 HD
ATOM     24  H   UNL     1      -0.849  14.342  20.975  0.00  0.00    +0.000 HD
ENDROOT
TORSDOF 0
ENDMDL
MODEL 8
REMARK VINA RESULT:      -6.2      4.617      6.187
REMARK  Name = 
REMARK  0 active torsions:
REMARK  status: ('A' for Active; 'I' for Inactive)
REMARK                            x       y       z     vdW  Elec       q    Type
REMARK                         _______ _______ _______ _____ _____    ______ ____
ROOT
ATOM      1  O   UNL     1       3.098  14.767  21.259  0.00  0.00    +0.000 OA
ATOM      2  C   UNL     1       2.195  14.361  20.535  0.00  0.00    +0.000 C 
ATOM      3  C   UNL     1       1.920  14.914  19.144  0.00  0.00    +0.000 C 
ATOM      4  N   UNL     1       0.516  14.759  18.794  0.00  0.00    +0.000 N 
ATOM      5  C   UNL     1       0.034  13.453  18.817  0.00  0.00    +0.000 C 
ATOM      6  O   UNL     1      -0.799  13.071  17.998  0.00  0.00    +0.000 OA
ATOM      7  C   UNL     1       0.311  12.711  20.160  0.00  0.00    +0.000 C 
ATOM      8  C   UNL     1      -0.966  12.896  21.016  0.00  0.00    +0.000 C 
ATOM      9  S   UNL     1      -0.884  11.553  22.265  0.00  0.00    +0.000 S 
ATOM     10  C   UNL     1       0.016  10.564  21.166  0.00  0.00    +0.000 C 
ATOM     11  C   UNL     1       0.502  11.218  20.106  0.00  0.00    +0.000 C 
ATOM     12  C   UNL     1       1.216  10.502  19.042  0.00  0.00    +0.000 C 
ATOM     13  O   UNL     1       1.603  11.076  18.036  0.00  0.00    +0.000 OA
ATOM     14  C   UNL     1       1.507   9.060  19.270  0.00  0.00    +0.000 A 
ATOM     15  C   UNL     1       2.225   8.333  18.312  0.00  0.00    +0.000 A 
ATOM     16  C   UNL     1       2.628   7.021  18.585  0.00  0.00    +0.000 A 
ATOM     17  C   UNL     1       2.324   6.434  19.812  0.00  0.00    +0.000 A 
ATOM     18  C   UNL     1       1.563   7.132  20.747  0.00  0.00    +0.000 A 
ATOM     19  C   UNL     1       1.132   8.437  20.466  0.00  0.00    +0.000 A 
ATOM     20  C   UNL     1       0.280   9.137  21.446  0.00  0.00    +0.000 C 
ATOM     21  O   UNL     1      -0.150   8.558  22.435  0.00  0.00    +0.000 OA
ATOM     22  N   UNL     1       1.484  13.245  20.888  0.00  0.00    +0.000 N 
ATOM     23  H   UNL     1      -0.062  15.381  19.348  0.00  0.00    +0.000 HD
ATOM     24  H   UNL     1       1.690  12.893  21.817  0.00  0.00    +0.000 HD
ENDROOT
TORSDOF 0
ENDMDL
MODEL 9
REMARK VINA RESULT:      -6.2      3.211      4.173
REMARK  Name = 
REMARK  0 active torsions:
REMARK  status: ('A' for Active; 'I' for Inactive)
REMARK                            x       y       z     vdW  Elec       q    Type
REMARK                         _______ _______ _______ _____ _____    ______ ____
ROOT
ATOM      1  O   UNL     1      -5.493  12.405  21.893  0.00  0.00    +0.000 OA
ATOM      2  C   UNL     1      -4.426  12.769  22.377  0.00  0.00    +0.000 C 
ATOM      3  C   UNL     1      -4.216  13.002  23.866  0.00  0.00    +0.000 C 
ATOM      4  N   UNL     1      -3.170  13.988  24.092  0.00  0.00    +0.000 N 
ATOM      5  C   UNL     1      -1.926  13.678  23.546  0.00  0.00    +0.000 C 
ATOM      6  O   UNL     1      -0.886  13.979  24.129  0.00  0.00    +0.000 OA
ATOM      7  C   UNL     1      -1.982  13.331  22.027  0.00  0.00    +0.000 C 
ATOM      8  C   UNL     1      -1.665  14.651  21.281  0.00  0.00    +0.000 C 
ATOM      9  S   UNL     1      -1.130  14.117  19.608  0.00  0.00    +0.000 S 
ATOM     10  C   UNL     1      -0.550  12.620  20.253  0.00  0.00    +0.000 C 
ATOM     11  C   UNL     1      -0.965  12.356  21.496  0.00  0.00    +0.000 C 
ATOM     12  C   UNL     1      -0.492  11.164  22.211  0.00  0.00    +0.000 C 
ATOM     13  O   UNL     1      -0.808  10.950  23.371  0.00  0.00    +0.000 OA
ATOM     14  C   UNL     1       0.335  10.195  21.443  0.00  0.00    +0.000 A 
ATOM     15  C   UNL     1       0.779   9.017  22.056  0.00  0.00    +0.000 A 
ATOM     16  C   UNL     1       1.429   8.035  21.301  0.00  0.00    +0.000 A 
ATOM     17  C   UNL     1       1.633   8.220  19.935  0.00  0.00    +0.000 A 
ATOM     18  C   UNL     1       1.244   9.414  19.330  0.00  0.00    +0.000 A 
ATOM     19  C   UNL     1       0.617  10.412  20.090  0.00  0.00    +0.000 A 
ATOM     20  C   UNL     1       0.265  11.690  19.442  0.00  0.00    +0.000 C 
ATOM     21  O   UNL     1       0.615  11.933  18.295  0.00  0.00    +0.000 OA
ATOM     22  N   UNL     1      -3.302  12.818  21.597  0.00  0.00    +0.000 N 
ATOM     23  H   UNL     1      -3.481  14.911  23.812  0.00  0.00    +0.000 HD
ATOM     24  H   UNL     1      -3.468  12.653  20.610  0.00  0.00    +0.000 HD
ENDROOT
TORSDOF 0
ENDMDL
