MODEL 1
REMARK VINA RESULT:      -8.5      0.000      0.000
REMARK  Name = 
REMARK  6 active torsions:
REMARK  status: ('A' for Active; 'I' for Inactive)
REMARK    1  A    between atoms: C_6  and  N_7
REMARK    2  A    between atoms: N_7  and  C_8
REMARK    3  A    between atoms: N_18  and  C_19
REMARK    4  A    between atoms: C_19  and  C_20
REMARK    5  A    between atoms: C_20  and  C_21
REMARK    6  A    between atoms: C_21  and  N_22
REMARK                            x       y       z     vdW  Elec       q    Type
REMARK                         _______ _______ _______ _____ _____    ______ ____
ROOT
ATOM      1  C   UNL     1      -0.794  11.086  20.930  0.00  0.00    +0.000 A 
ATOM      2  N   UNL     1      -1.281  11.216  22.175  0.00  0.00    +0.000 NA
ATOM      3  C   UNL     1      -0.818  10.357  23.085  0.00  0.00    +0.000 A 
ATOM      4  N   UNL     1       0.070   9.371  22.874  0.00  0.00    +0.000 NA
ATOM      5  C   UNL     1       0.523   9.226  21.625  0.00  0.00    +0.000 A 
ATOM      6  C   UNL     1       1.385   8.160  21.341  0.00  0.00    +0.000 A 
ATOM      7  C   UNL     1       1.805   7.928  20.015  0.00  0.00    +0.000 A 
ATOM      8  C   UNL     1       1.424   8.786  18.985  0.00  0.00    +0.000 A 
ATOM      9  C   UNL     1       1.947   8.277  17.775  0.00  0.00    +0.000 A 
ATOM     10  C   UNL     1       2.570   7.093  18.072  0.00  0.00    +0.000 A 
ATOM     11  N   UNL     1       2.567   6.924  19.436  0.00  0.00    +0.000 N 
ATOM     12  C   UNL     1       0.614   9.891  19.278  0.00  0.00    +0.000 A 
ATOM     13  C   UNL     1       0.133  10.087  20.592  0.00  0.00    +0.000 A 
ENDROOT
BRANCH   1  14
ATOM     14  N   UNL     1      -1.245  11.973  19.920  0.00  0.00    +0.000 N 
ATOM     15  H   UNL     1      -1.038  12.933  20.171  0.00  0.00    +0.000 HD
BRANCH  14  21
ATOM     16 BR   UNL     1      -3.153  10.559  15.186  0.00  0.00    +0.000 Br
ATOM     17  C   UNL     1      -3.353  11.232  16.942  0.00  0.00    +0.000 A 
ATOM     18  C   UNL     1      -4.604  11.654  17.383  0.00  0.00    +0.000 A 
ATOM     19  C   UNL     1      -4.739  12.171  18.670  0.00  0.00    +0.000 A 
ATOM     20  C   UNL     1      -3.624  12.265  19.507  0.00  0.00    +0.000 A 
ATOM     21  C   UNL     1      -2.364  11.822  19.079  0.00  0.00    +0.000 A 
ATOM     22  C   UNL     1      -2.241  11.313  17.780  0.00  0.00    +0.000 A 
ENDBRANCH  14  21
ENDBRANCH   1  14
BRANCH  11  23
ATOM     23  C   UNL     1       3.212   5.821  20.138  0.00  0.00    +0.000 C 
BRANCH  23  24
ATOM     24  C   UNL     1       3.987   4.834  19.249  0.00  0.00    +0.000 C 
BRANCH  24  25
ATOM     25  C   UNL     1       5.508   5.064  19.284  0.00  0.00    +0.000 C 
BRANCH  25  26
ATOM     26  N   UNL     1       6.241   4.373  18.207  0.00  0.00    +0.000 NA
ATOM     27  C   UNL     1       7.531   5.058  17.929  0.00  0.00    +0.000 C 
ATOM     28  C   UNL     1       7.386   6.397  17.177  0.00  0.00    +0.000 C 
ATOM     29  O   UNL     1       6.644   6.248  15.960  0.00  0.00    +0.000 OA
ATOM     30  C   UNL     1       5.362   5.663  16.213  0.00  0.00    +0.000 C 
ATOM     31  C   UNL     1       5.507   4.306  16.920  0.00  0.00    +0.000 C 
ENDBRANCH  25  26
ENDBRANCH  24  25
ENDBRANCH  23  24
ENDBRANCH  11  23
TORSDOF 6
ENDMDL
MODEL 2
REMARK VINA RESULT:      -8.4      4.472      9.855
REMARK  Name = 
REMARK  6 active torsions:
REMARK  status: ('A' for Active; 'I' for Inactive)
REMARK    1  A    between atoms: C_6  and  N_7
REMARK    2  A    between atoms: N_7  and  C_8
REMARK    3  A    between atoms: N_18  and  C_19
REMARK    4  A    between atoms: C_19  and  C_20
REMARK    5  A    between atoms: C_20  and  C_21
REMARK    6  A    between atoms: C_21  and  N_22
REMARK                            x       y       z     vdW  Elec       q    Type
REMARK                         _______ _______ _______ _____ _____    ______ ____
ROOT
ATOM      1  C   UNL     1       2.304   7.505  19.462  0.00  0.00    +0.000 A 
ATOM      2  N   UNL     1       2.578   7.563  18.148  0.00  0.00    +0.000 NA
ATOM      3  C   UNL     1       2.121   8.632  17.494  0.00  0.00    +0.000 A 
ATOM      4  N   UNL     1       1.403   9.641  18.015  0.00  0.00    +0.000 NA
ATOM      5  C   UNL     1       1.104   9.558  19.314  0.00  0.00    +0.000 A 
ATOM      6  C   UNL     1       0.287  10.544  19.882  0.00  0.00    +0.000 A 
ATOM      7  C   UNL     1      -0.120  10.433  21.227  0.00  0.00    +0.000 A 
ATOM      8  C   UNL     1       0.331   9.383  22.026  0.00  0.00    +0.000 A 
ATOM      9  C   UNL     1      -0.279   9.505  23.294  0.00  0.00    +0.000 A 
ATOM     10  C   UNL     1      -1.137  10.572  23.229  0.00  0.00    +0.000 A 
ATOM     11  N   UNL     1      -0.976  11.191  22.012  0.00  0.00    +0.000 N 
ATOM     12  C   UNL     1       1.201   8.431  21.478  0.00  0.00    +0.000 A 
ATOM     13  C   UNL     1       1.555   8.500  20.112  0.00  0.00    +0.000 A 
ENDROOT
BRANCH   1  14
ATOM     14  N   UNL     1       2.768   6.395  20.213  0.00  0.00    +0.000 N 
ATOM     15  H   UNL     1       3.734   6.530  20.488  0.00  0.00    +0.000 HD
BRANCH  14  21
ATOM     16 BR   UNL     1       3.794   1.612  18.183  0.00  0.00    +0.000 Br
ATOM     17  C   UNL     1       2.733   2.818  19.181  0.00  0.00    +0.000 A 
ATOM     18  C   UNL     1       1.524   2.391  19.723  0.00  0.00    +0.000 A 
ATOM     19  C   UNL     1       0.737   3.292  20.437  0.00  0.00    +0.000 A 
ATOM     20  C   UNL     1       1.159   4.613  20.602  0.00  0.00    +0.000 A 
ATOM     21  C   UNL     1       2.386   5.047  20.079  0.00  0.00    +0.000 A 
ATOM     22  C   UNL     1       3.163   4.133  19.355  0.00  0.00    +0.000 A 
ENDBRANCH  14  21
ENDBRANCH   1  14
BRANCH  11  23
ATOM     23  C   UNL     1      -1.659  12.414  21.606  0.00  0.00    +0.000 C 
BRANCH  23  24
ATOM     24  C   UNL     1      -2.611  13.019  22.651  0.00  0.00    +0.000 C 
BRANCH  24  25
ATOM     25  C   UNL     1      -3.928  13.527  22.038  0.00  0.00    +0.000 C 
BRANCH  25  26
ATOM     26  N   UNL     1      -4.998  12.513  21.998  0.00  0.00    +0.000 NA
ATOM     27  C   UNL     1      -5.479  12.315  20.605  0.00  0.00    +0.000 C 
ATOM     28  C   UNL     1      -6.347  13.471  20.066  0.00  0.00    +0.000 C 
ATOM     29  O   UNL     1      -7.458  13.751  20.928  0.00  0.00    +0.000 OA
ATOM     30  C   UNL     1      -7.012  14.025  22.260  0.00  0.00    +0.000 C 
ATOM     31  C   UNL     1      -6.187  12.853  22.816  0.00  0.00    +0.000 C 
ENDBRANCH  25  26
ENDBRANCH  24  25
ENDBRANCH  23  24
ENDBRANCH  11  23
TORSDOF 6
ENDMDL
MODEL 3
REMARK VINA RESULT:      -8.4      0.870      1.200
REMARK  Name = 
REMARK  6 active torsions:
REMARK  status: ('A' for Active; 'I' for Inactive)
REMARK    1  A    between atoms: C_6  and  N_7
REMARK    2  A    between atoms: N_7  and  C_8
REMARK    3  A    between atoms: N_18  and  C_19
REMARK    4  A    between atoms: C_19  and  C_20
REMARK    5  A    between atoms: C_20  and  C_21
REMARK    6  A    between atoms: C_21  and  N_22
REMARK                            x       y       z     vdW  Elec       q    Type
REMARK                         _______ _______ _______ _____ _____    ______ ____
ROOT
ATOM      1  C   UNL     1      -0.928  11.236  21.261  0.00  0.00    +0.000 A 
ATOM      2  N   UNL     1      -1.331  11.207  22.542  0.00  0.00    +0.000 NA
ATOM      3  C   UNL     1      -0.778  10.272  23.316  0.00  0.00    +0.000 A 
ATOM      4  N   UNL     1       0.124   9.351  22.936  0.00  0.00    +0.000 NA
ATOM      5  C   UNL     1       0.493   9.363  21.652  0.00  0.00    +0.000 A 
ATOM      6  C   UNL     1       1.367   8.370  21.193  0.00  0.00    +0.000 A 
ATOM      7  C   UNL     1       1.700   8.304  19.825  0.00  0.00    +0.000 A 
ATOM      8  C   UNL     1       1.221   9.256  18.925  0.00  0.00    +0.000 A 
ATOM      9  C   UNL     1       1.674   8.905  17.634  0.00  0.00    +0.000 A 
ATOM     10  C   UNL     1       2.354   7.721  17.752  0.00  0.00    +0.000 A 
ATOM     11  N   UNL     1       2.451   7.402  19.086  0.00  0.00    +0.000 N 
ATOM     12  C   UNL     1       0.398  10.288  19.394  0.00  0.00    +0.000 A 
ATOM     13  C   UNL     1       0.005  10.317  20.751  0.00  0.00    +0.000 A 
ENDROOT
BRANCH   1  14
ATOM     14  N   UNL     1      -1.477  12.211  20.389  0.00  0.00    +0.000 N 
ATOM     15  H   UNL     1      -1.279  13.145  20.731  0.00  0.00    +0.000 HD
BRANCH  14  21
ATOM     16 BR   UNL     1      -3.739  10.821  15.807  0.00  0.00    +0.000 Br
ATOM     17  C   UNL     1      -3.795  11.541  17.555  0.00  0.00    +0.000 A 
ATOM     18  C   UNL     1      -4.990  12.049  18.056  0.00  0.00    +0.000 A 
ATOM     19  C   UNL     1      -5.019  12.599  19.336  0.00  0.00    +0.000 A 
ATOM     20  C   UNL     1      -3.853  12.641  20.105  0.00  0.00    +0.000 A 
ATOM     21  C   UNL     1      -2.650  12.112  19.618  0.00  0.00    +0.000 A 
ATOM     22  C   UNL     1      -2.633  11.570  18.326  0.00  0.00    +0.000 A 
ENDBRANCH  14  21
ENDBRANCH   1  14
BRANCH  11  23
ATOM     23  C   UNL     1       3.179   6.254  19.614  0.00  0.00    +0.000 C 
BRANCH  23  24
ATOM     24  C   UNL     1       3.072   4.964  18.784  0.00  0.00    +0.000 C 
BRANCH  24  25
ATOM     25  C   UNL     1       4.343   4.671  17.968  0.00  0.00    +0.000 C 
BRANCH  25  26
ATOM     26  N   UNL     1       5.265   5.818  17.865  0.00  0.00    +0.000 NA
ATOM     27  C   UNL     1       5.480   6.191  16.442  0.00  0.00    +0.000 C 
ATOM     28  C   UNL     1       6.376   5.209  15.660  0.00  0.00    +0.000 C 
ATOM     29  O   UNL     1       7.640   5.010  16.306  0.00  0.00    +0.000 OA
ATOM     30  C   UNL     1       7.458   4.571  17.657  0.00  0.00    +0.000 C 
ATOM     31  C   UNL     1       6.605   5.574  18.450  0.00  0.00    +0.000 C 
ENDBRANCH  25  26
ENDBRANCH  24  25
ENDBRANCH  23  24
ENDBRANCH  11  23
TORSDOF 6
ENDMDL
MODEL 4
REMARK VINA RESULT:      -8.3      4.181      9.494
REMARK  Name = 
REMARK  6 active torsions:
REMARK  status: ('A' for Active; 'I' for Inactive)
REMARK    1  A    between atoms: C_6  and  N_7
REMARK    2  A    between atoms: N_7  and  C_8
REMARK    3  A    between atoms: N_18  and  C_19
REMARK    4  A    between atoms: C_19  and  C_20
REMARK    5  A    between atoms: C_20  and  C_21
REMARK    6  A    between atoms: C_21  and  N_22
REMARK                            x       y       z     vdW  Elec       q    Type
REMARK                         _______ _______ _______ _____ _____    ______ ____
ROOT
ATOM      1  C   UNL     1       2.217   7.461  19.562  0.00  0.00    +0.000 A 
ATOM      2  N   UNL     1       2.565   7.470  18.265  0.00  0.00    +0.000 NA
ATOM      3  C   UNL     1       2.205   8.545  17.562  0.00  0.00    +0.000 A 
ATOM      4  N   UNL     1       1.517   9.605  18.020  0.00  0.00    +0.000 NA
ATOM      5  C   UNL     1       1.144   9.573  19.302  0.00  0.00    +0.000 A 
ATOM      6  C   UNL     1       0.354  10.616  19.801  0.00  0.00    +0.000 A 
ATOM      7  C   UNL     1      -0.131  10.562  21.123  0.00  0.00    +0.000 A 
ATOM      8  C   UNL     1       0.217   9.510  21.970  0.00  0.00    +0.000 A 
ATOM      9  C   UNL     1      -0.453   9.698  23.200  0.00  0.00    +0.000 A 
ATOM     10  C   UNL     1      -1.245  10.808  23.062  0.00  0.00    +0.000 A 
ATOM     11  N   UNL     1      -0.984  11.385  21.842  0.00  0.00    +0.000 N 
ATOM     12  C   UNL     1       1.060   8.497  21.493  0.00  0.00    +0.000 A 
ATOM     13  C   UNL     1       1.491   8.511  20.147  0.00  0.00    +0.000 A 
ENDROOT
BRANCH   1  14
ATOM     14  N   UNL     1       2.576   6.346  20.363  0.00  0.00    +0.000 N 
ATOM     15  H   UNL     1       3.483   6.494  20.791  0.00  0.00    +0.000 HD
BRANCH  14  21
ATOM     16 BR   UNL     1       3.849   1.700  18.162  0.00  0.00    +0.000 Br
ATOM     17  C   UNL     1       2.707   2.823  19.168  0.00  0.00    +0.000 A 
ATOM     18  C   UNL     1       1.493   2.332  19.639  0.00  0.00    +0.000 A 
ATOM     19  C   UNL     1       0.646   3.172  20.359  0.00  0.00    +0.000 A 
ATOM     20  C   UNL     1       1.016   4.497  20.602  0.00  0.00    +0.000 A 
ATOM     21  C   UNL     1       2.247   4.995  20.152  0.00  0.00    +0.000 A 
ATOM     22  C   UNL     1       3.084   4.142  19.421  0.00  0.00    +0.000 A 
ENDBRANCH  14  21
ENDBRANCH   1  14
BRANCH  11  23
ATOM     23  C   UNL     1      -1.574  12.633  21.371  0.00  0.00    +0.000 C 
BRANCH  23  24
ATOM     24  C   UNL     1      -3.111  12.689  21.395  0.00  0.00    +0.000 C 
BRANCH  24  25
ATOM     25  C   UNL     1      -3.746  12.242  20.067  0.00  0.00    +0.000 C 
BRANCH  25  26
ATOM     26  N   UNL     1      -4.934  13.027  19.680  0.00  0.00    +0.000 NA
ATOM     27  C   UNL     1      -5.966  12.975  20.749  0.00  0.00    +0.000 C 
ATOM     28  C   UNL     1      -6.705  11.625  20.849  0.00  0.00    +0.000 C 
ATOM     29  O   UNL     1      -7.284  11.239  19.597  0.00  0.00    +0.000 OA
ATOM     30  C   UNL     1      -6.291  11.202  18.566  0.00  0.00    +0.000 C 
ATOM     31  C   UNL     1      -5.587  12.562  18.432  0.00  0.00    +0.000 C 
ENDBRANCH  25  26
ENDBRANCH  24  25
ENDBRANCH  23  24
ENDBRANCH  11  23
TORSDOF 6
ENDMDL
MODEL 5
REMARK VINA RESULT:      -8.2      4.041      8.555
REMARK  Name = 
REMARK  6 active torsions:
REMARK  status: ('A' for Active; 'I' for Inactive)
REMARK    1  A    between atoms: C_6  and  N_7
REMARK    2  A    between atoms: N_7  and  C_8
REMARK    3  A    between atoms: N_18  and  C_19
REMARK    4  A    between atoms: C_19  and  C_20
REMARK    5  A    between atoms: C_20  and  C_21
REMARK    6  A    between atoms: C_21  and  N_22
REMARK                            x       y       z     vdW  Elec       q    Type
REMARK                         _______ _______ _______ _____ _____    ______ ____
ROOT
ATOM      1  C   UNL     1       2.303   7.406  19.544  0.00  0.00    +0.000 A 
ATOM      2  N   UNL     1       2.618   7.428  18.239  0.00  0.00    +0.000 NA
ATOM      3  C   UNL     1       2.228   8.504  17.553  0.00  0.00    +0.000 A 
ATOM      4  N   UNL     1       1.541   9.553  18.035  0.00  0.00    +0.000 NA
ATOM      5  C   UNL     1       1.199   9.507  19.326  0.00  0.00    +0.000 A 
ATOM      6  C   UNL     1       0.410  10.538  19.851  0.00  0.00    +0.000 A 
ATOM      7  C   UNL     1      -0.041  10.469  21.185  0.00  0.00    +0.000 A 
ATOM      8  C   UNL     1       0.340   9.415  22.015  0.00  0.00    +0.000 A 
ATOM      9  C   UNL     1      -0.301   9.586  23.262  0.00  0.00    +0.000 A 
ATOM     10  C   UNL     1      -1.109  10.688  23.153  0.00  0.00    +0.000 A 
ATOM     11  N   UNL     1      -0.886  11.277  21.931  0.00  0.00    +0.000 N 
ATOM     12  C   UNL     1       1.182   8.416  21.510  0.00  0.00    +0.000 A 
ATOM     13  C   UNL     1       1.579   8.444  20.154  0.00  0.00    +0.000 A 
ENDROOT
BRANCH   1  14
ATOM     14  N   UNL     1       2.695   6.290  20.327  0.00  0.00    +0.000 N 
ATOM     15  H   UNL     1       3.628   6.427  20.699  0.00  0.00    +0.000 HD
BRANCH  14  21
ATOM     16 BR   UNL     1       3.830   1.586  18.176  0.00  0.00    +0.000 Br
ATOM     17  C   UNL     1       2.731   2.747  19.186  0.00  0.00    +0.000 A 
ATOM     18  C   UNL     1       1.517   2.288  19.688  0.00  0.00    +0.000 A 
ATOM     19  C   UNL     1       0.701   3.156  20.411  0.00  0.00    +0.000 A 
ATOM     20  C   UNL     1       1.102   4.477  20.626  0.00  0.00    +0.000 A 
ATOM     21  C   UNL     1       2.334   4.943  20.144  0.00  0.00    +0.000 A 
ATOM     22  C   UNL     1       3.140   4.062  19.411  0.00  0.00    +0.000 A 
ENDBRANCH  14  21
ENDBRANCH   1  14
BRANCH  11  23
ATOM     23  C   UNL     1      -1.501  12.521  21.484  0.00  0.00    +0.000 C 
BRANCH  23  24
ATOM     24  C   UNL     1      -1.083  13.782  22.259  0.00  0.00    +0.000 C 
BRANCH  24  25
ATOM     25  C   UNL     1      -0.082  14.657  21.484  0.00  0.00    +0.000 C 
BRANCH  25  26
ATOM     26  N   UNL     1       0.257  14.134  20.146  0.00  0.00    +0.000 NA
ATOM     27  C   UNL     1       1.729  13.994  19.997  0.00  0.00    +0.000 C 
ATOM     28  C   UNL     1       2.477  15.332  19.828  0.00  0.00    +0.000 C 
ATOM     29  O   UNL     1       1.951  16.105  18.742  0.00  0.00    +0.000 OA
ATOM     30  C   UNL     1       0.545  16.322  18.906  0.00  0.00    +0.000 C 
ATOM     31  C   UNL     1      -0.207  14.987  19.026  0.00  0.00    +0.000 C 
ENDBRANCH  25  26
ENDBRANCH  24  25
ENDBRANCH  23  24
ENDBRANCH  11  23
TORSDOF 6
ENDMDL
MODEL 6
REMARK VINA RESULT:      -8.2      4.678     10.102
REMARK  Name = 
REMARK  6 active torsions:
REMARK  status: ('A' for Active; 'I' for Inactive)
REMARK    1  A    between atoms: C_6  and  N_7
REMARK    2  A    between atoms: N_7  and  C_8
REMARK    3  A    between atoms: N_18  and  C_19
REMARK    4  A    between atoms: C_19  and  C_20
REMARK    5  A    between atoms: C_20  and  C_21
REMARK    6  A    between atoms: C_21  and  N_22
REMARK                            x       y       z     vdW  Elec       q    Type
REMARK                         _______ _______ _______ _____ _____    ______ ____
ROOT
ATOM      1  C   UNL     1       2.350   7.458  19.456  0.00  0.00    +0.000 A 
ATOM      2  N   UNL     1       2.623   7.503  18.142  0.00  0.00    +0.000 NA
ATOM      3  C   UNL     1       2.164   8.565  17.477  0.00  0.00    +0.000 A 
ATOM      4  N   UNL     1       1.444   9.577  17.988  0.00  0.00    +0.000 NA
ATOM      5  C   UNL     1       1.145   9.508  19.288  0.00  0.00    +0.000 A 
ATOM      6  C   UNL     1       0.326  10.498  19.845  0.00  0.00    +0.000 A 
ATOM      7  C   UNL     1      -0.080  10.400  21.192  0.00  0.00    +0.000 A 
ATOM      8  C   UNL     1       0.373   9.359  22.001  0.00  0.00    +0.000 A 
ATOM      9  C   UNL     1      -0.236   9.493  23.269  0.00  0.00    +0.000 A 
ATOM     10  C   UNL     1      -1.097  10.557  23.192  0.00  0.00    +0.000 A 
ATOM     11  N   UNL     1      -0.938  11.164  21.969  0.00  0.00    +0.000 N 
ATOM     12  C   UNL     1       1.245   8.403  21.463  0.00  0.00    +0.000 A 
ATOM     13  C   UNL     1       1.599   8.458  20.096  0.00  0.00    +0.000 A 
ENDROOT
BRANCH   1  14
ATOM     14  N   UNL     1       2.816   6.357  20.218  0.00  0.00    +0.000 N 
ATOM     15  H   UNL     1       3.782   6.497  20.491  0.00  0.00    +0.000 HD
BRANCH  14  21
ATOM     16 BR   UNL     1       3.779   1.582  18.139  0.00  0.00    +0.000 Br
ATOM     17  C   UNL     1       2.756   2.782  19.183  0.00  0.00    +0.000 A 
ATOM     18  C   UNL     1       1.574   2.347  19.777  0.00  0.00    +0.000 A 
ATOM     19  C   UNL     1       0.813   3.242  20.526  0.00  0.00    +0.000 A 
ATOM     20  C   UNL     1       1.236   4.566  20.674  0.00  0.00    +0.000 A 
ATOM     21  C   UNL     1       2.436   5.007  20.099  0.00  0.00    +0.000 A 
ATOM     22  C   UNL     1       3.186   4.099  19.341  0.00  0.00    +0.000 A 
ENDBRANCH  14  21
ENDBRANCH   1  14
BRANCH  11  23
ATOM     23  C   UNL     1      -1.623  12.381  21.551  0.00  0.00    +0.000 C 
BRANCH  23  24
ATOM     24  C   UNL     1      -2.432  13.095  22.646  0.00  0.00    +0.000 C 
BRANCH  24  25
ATOM     25  C   UNL     1      -3.933  12.759  22.595  0.00  0.00    +0.000 C 
BRANCH  25  26
ATOM     26  N   UNL     1      -4.705  13.299  23.731  0.00  0.00    +0.000 NA
ATOM     27  C   UNL     1      -6.158  13.050  23.542  0.00  0.00    +0.000 C 
ATOM     28  C   UNL     1      -6.819  13.945  22.473  0.00  0.00    +0.000 C 
ATOM     29  O   UNL     1      -6.595  15.337  22.730  0.00  0.00    +0.000 OA
ATOM     30  C   UNL     1      -5.194  15.616  22.835  0.00  0.00    +0.000 C 
ATOM     31  C   UNL     1      -4.544  14.759  23.933  0.00  0.00    +0.000 C 
ENDBRANCH  25  26
ENDBRANCH  24  25
ENDBRANCH  23  24
ENDBRANCH  11  23
TORSDOF 6
ENDMDL
MODEL 7
REMARK VINA RESULT:      -8.2      4.726     10.018
REMARK  Name = 
REMARK  6 active torsions:
REMARK  status: ('A' for Active; 'I' for Inactive)
REMARK    1  A    between atoms: C_6  and  N_7
REMARK    2  A    between atoms: N_7  and  C_8
REMARK    3  A    between atoms: N_18  and  C_19
REMARK    4  A    between atoms: C_19  and  C_20
REMARK    5  A    between atoms: C_20  and  C_21
REMARK    6  A    between atoms: C_21  and  N_22
REMARK                            x       y       z     vdW  Elec       q    Type
REMARK                         _______ _______ _______ _____ _____    ______ ____
ROOT
ATOM      1  C   UNL     1       2.329   7.450  19.515  0.00  0.00    +0.000 A 
ATOM      2  N   UNL     1       2.645   7.503  18.211  0.00  0.00    +0.000 NA
ATOM      3  C   UNL     1       2.250   8.592  17.548  0.00  0.00    +0.000 A 
ATOM      4  N   UNL     1       1.555   9.625  18.053  0.00  0.00    +0.000 NA
ATOM      5  C   UNL     1       1.212   9.549  19.342  0.00  0.00    +0.000 A 
ATOM      6  C   UNL     1       0.416  10.562  19.889  0.00  0.00    +0.000 A 
ATOM      7  C   UNL     1      -0.037  10.461  21.220  0.00  0.00    +0.000 A 
ATOM      8  C   UNL     1       0.350   9.391  22.027  0.00  0.00    +0.000 A 
ATOM      9  C   UNL     1      -0.294   9.531  23.277  0.00  0.00    +0.000 A 
ATOM     10  C   UNL     1      -1.109  10.630  23.191  0.00  0.00    +0.000 A 
ATOM     11  N   UNL     1      -0.887  11.247  21.983  0.00  0.00    +0.000 N 
ATOM     12  C   UNL     1       1.199   8.409  21.502  0.00  0.00    +0.000 A 
ATOM     13  C   UNL     1       1.598   8.470  20.147  0.00  0.00    +0.000 A 
ENDROOT
BRANCH   1  14
ATOM     14  N   UNL     1       2.726   6.320  20.274  0.00  0.00    +0.000 N 
ATOM     15  H   UNL     1       3.670   6.439  20.621  0.00  0.00    +0.000 HD
BRANCH  14  21
ATOM     16 BR   UNL     1       3.776   1.609  18.092  0.00  0.00    +0.000 Br
ATOM     17  C   UNL     1       2.699   2.783  19.112  0.00  0.00    +0.000 A 
ATOM     18  C   UNL     1       1.479   2.341  19.616  0.00  0.00    +0.000 A 
ATOM     19  C   UNL     1       0.681   3.218  20.346  0.00  0.00    +0.000 A 
ATOM     20  C   UNL     1       1.105   4.531  20.568  0.00  0.00    +0.000 A 
ATOM     21  C   UNL     1       2.342   4.979  20.084  0.00  0.00    +0.000 A 
ATOM     22  C   UNL     1       3.131   4.089  19.343  0.00  0.00    +0.000 A 
ENDBRANCH  14  21
ENDBRANCH   1  14
BRANCH  11  23
ATOM     23  C   UNL     1      -1.509  12.497  21.563  0.00  0.00    +0.000 C 
BRANCH  23  24
ATOM     24  C   UNL     1      -1.054  13.753  22.326  0.00  0.00    +0.000 C 
BRANCH  24  25
ATOM     25  C   UNL     1      -2.227  14.656  22.746  0.00  0.00    +0.000 C 
BRANCH  25  26
ATOM     26  N   UNL     1      -3.037  14.107  23.850  0.00  0.00    +0.000 NA
ATOM     27  C   UNL     1      -4.451  13.933  23.425  0.00  0.00    +0.000 C 
ATOM     28  C   UNL     1      -5.241  15.252  23.301  0.00  0.00    +0.000 C 
ATOM     29  O   UNL     1      -5.189  16.021  24.509  0.00  0.00    +0.000 OA
ATOM     30  C   UNL     1      -3.833  16.271  24.896  0.00  0.00    +0.000 C 
ATOM     31  C   UNL     1      -3.058  14.955  25.066  0.00  0.00    +0.000 C 
ENDBRANCH  25  26
ENDBRANCH  24  25
ENDBRANCH  23  24
ENDBRANCH  11  23
TORSDOF 6
ENDMDL
MODEL 8
REMARK VINA RESULT:      -8.1      2.359      2.665
REMARK  Name = 
REMARK  6 active torsions:
REMARK  status: ('A' for Active; 'I' for Inactive)
REMARK    1  A    between atoms: C_6  and  N_7
REMARK    2  A    between atoms: N_7  and  C_8
REMARK    3  A    between atoms: N_18  and  C_19
REMARK    4  A    between atoms: C_19  and  C_20
REMARK    5  A    between atoms: C_20  and  C_21
REMARK    6  A    between atoms: C_21  and  N_22
REMARK                            x       y       z     vdW  Elec       q    Type
REMARK                         _______ _______ _______ _____ _____    ______ ____
ROOT
ATOM      1  C   UNL     1      -1.309  11.473  21.118  0.00  0.00    +0.000 A 
ATOM      2  N   UNL     1      -1.752  11.503  22.386  0.00  0.00    +0.000 NA
ATOM      3  C   UNL     1      -1.188  10.638  23.231  0.00  0.00    +0.000 A 
ATOM      4  N   UNL     1      -0.239   9.734  22.934  0.00  0.00    +0.000 NA
ATOM      5  C   UNL     1       0.170   9.685  21.663  0.00  0.00    +0.000 A 
ATOM      6  C   UNL     1       1.095   8.703  21.290  0.00  0.00    +0.000 A 
ATOM      7  C   UNL     1       1.475   8.570  19.939  0.00  0.00    +0.000 A 
ATOM      8  C   UNL     1       0.987   9.446  18.970  0.00  0.00    +0.000 A 
ATOM      9  C   UNL     1       1.495   9.039  17.716  0.00  0.00    +0.000 A 
ATOM     10  C   UNL     1       2.216   7.892  17.926  0.00  0.00    +0.000 A 
ATOM     11  N   UNL     1       2.283   7.657  19.279  0.00  0.00    +0.000 N 
ATOM     12  C   UNL     1       0.111  10.471  19.352  0.00  0.00    +0.000 A 
ATOM     13  C   UNL     1      -0.326  10.564  20.693  0.00  0.00    +0.000 A 
ENDROOT
BRANCH   1  14
ATOM     14  N   UNL     1      -1.867  12.372  20.174  0.00  0.00    +0.000 N 
ATOM     15  H   UNL     1      -1.803  13.326  20.511  0.00  0.00    +0.000 HD
BRANCH  14  21
ATOM     16 BR   UNL     1      -3.500  10.672  15.432  0.00  0.00    +0.000 Br
ATOM     17  C   UNL     1      -3.806  11.414  17.144  0.00  0.00    +0.000 A 
ATOM     18  C   UNL     1      -5.091  11.803  17.510  0.00  0.00    +0.000 A 
ATOM     19  C   UNL     1      -5.305  12.371  18.764  0.00  0.00    +0.000 A 
ATOM     20  C   UNL     1      -4.234  12.548  19.644  0.00  0.00    +0.000 A 
ATOM     21  C   UNL     1      -2.939  12.137  19.293  0.00  0.00    +0.000 A 
ATOM     22  C   UNL     1      -2.737  11.577  18.025  0.00  0.00    +0.000 A 
ENDBRANCH  14  21
ENDBRANCH   1  14
BRANCH  11  23
ATOM     23  C   UNL     1       3.037   6.572  19.896  0.00  0.00    +0.000 C 
BRANCH  23  24
ATOM     24  C   UNL     1       2.192   5.424  20.473  0.00  0.00    +0.000 C 
BRANCH  24  25
ATOM     25  C   UNL     1       1.707   4.438  19.396  0.00  0.00    +0.000 C 
BRANCH  25  26
ATOM     26  N   UNL     1       1.601   3.044  19.866  0.00  0.00    +0.000 NA
ATOM     27  C   UNL     1       2.826   2.648  20.609  0.00  0.00    +0.000 C 
ATOM     28  C   UNL     1       4.059   2.409  19.713  0.00  0.00    +0.000 C 
ATOM     29  O   UNL     1       3.790   1.456  18.678  0.00  0.00    +0.000 OA
ATOM     30  C   UNL     1       2.660   1.858  17.896  0.00  0.00    +0.000 C 
ATOM     31  C   UNL     1       1.419   2.050  18.781  0.00  0.00    +0.000 C 
ENDBRANCH  25  26
ENDBRANCH  24  25
ENDBRANCH  23  24
ENDBRANCH  11  23
TORSDOF 6
ENDMDL
MODEL 9
REMARK VINA RESULT:      -8.1      3.920      8.570
REMARK  Name = 
REMARK  6 active torsions:
REMARK  status: ('A' for Active; 'I' for Inactive)
REMARK    1  A    between atoms: C_6  and  N_7
REMARK    2  A    between atoms: N_7  and  C_8
REMARK    3  A    between atoms: N_18  and  C_19
REMARK    4  A    between atoms: C_19  and  C_20
REMARK    5  A    between atoms: C_20  and  C_21
REMARK    6  A    between atoms: C_21  and  N_22
REMARK                            x       y       z     vdW  Elec       q    Type
REMARK                         _______ _______ _______ _____ _____    ______ ____
ROOT
ATOM      1  C   UNL     1       2.311   7.475  19.502  0.00  0.00    +0.000 A 
ATOM      2  N   UNL     1       2.604   7.524  18.192  0.00  0.00    +0.000 NA
ATOM      3  C   UNL     1       2.170   8.597  17.528  0.00  0.00    +0.000 A 
ATOM      4  N   UNL     1       1.459   9.617  18.036  0.00  0.00    +0.000 NA
ATOM      5  C   UNL     1       1.141   9.544  19.331  0.00  0.00    +0.000 A 
ATOM      6  C   UNL     1       0.330  10.543  19.884  0.00  0.00    +0.000 A 
ATOM      7  C   UNL     1      -0.097  10.442  21.224  0.00  0.00    +0.000 A 
ATOM      8  C   UNL     1       0.329   9.389  22.032  0.00  0.00    +0.000 A 
ATOM      9  C   UNL     1      -0.296   9.524  23.292  0.00  0.00    +0.000 A 
ATOM     10  C   UNL     1      -1.139  10.602  23.211  0.00  0.00    +0.000 A 
ATOM     11  N   UNL     1      -0.953  11.214  21.995  0.00  0.00    +0.000 N 
ATOM     12  C   UNL     1       1.193   8.423  21.500  0.00  0.00    +0.000 A 
ATOM     13  C   UNL     1       1.567   8.482  20.139  0.00  0.00    +0.000 A 
ENDROOT
BRANCH   1  14
ATOM     14  N   UNL     1       2.750   6.361  20.263  0.00  0.00    +0.000 N 
ATOM     15  H   UNL     1       3.703   6.498  20.577  0.00  0.00    +0.000 HD
BRANCH  14  21
ATOM     16 BR   UNL     1       3.789   1.634  18.112  0.00  0.00    +0.000 Br
ATOM     17  C   UNL     1       2.732   2.808  19.153  0.00  0.00    +0.000 A 
ATOM     18  C   UNL     1       1.537   2.357  19.705  0.00  0.00    +0.000 A 
ATOM     19  C   UNL     1       0.752   3.234  20.450  0.00  0.00    +0.000 A 
ATOM     20  C   UNL     1       1.165   4.556  20.638  0.00  0.00    +0.000 A 
ATOM     21  C   UNL     1       2.378   5.013  20.105  0.00  0.00    +0.000 A 
ATOM     22  C   UNL     1       3.153   4.123  19.350  0.00  0.00    +0.000 A 
ENDBRANCH  14  21
ENDBRANCH   1  14
BRANCH  11  23
ATOM     23  C   UNL     1      -1.613  12.444  21.575  0.00  0.00    +0.000 C 
BRANCH  23  24
ATOM     24  C   UNL     1      -1.128  13.727  22.272  0.00  0.00    +0.000 C 
BRANCH  24  25
ATOM     25  C   UNL     1       0.325  14.087  21.916  0.00  0.00    +0.000 C 
BRANCH  25  26
ATOM     26  N   UNL     1       0.460  15.350  21.166  0.00  0.00    +0.000 NA
ATOM     27  C   UNL     1      -0.298  15.284  19.889  0.00  0.00    +0.000 C 
ATOM     28  C   UNL     1       0.359  14.398  18.810  0.00  0.00    +0.000 C 
ATOM     29  O   UNL     1       1.713  14.788  18.550  0.00  0.00    +0.000 OA
ATOM     30  C   UNL     1       2.485  14.781  19.756  0.00  0.00    +0.000 C 
ATOM     31  C   UNL     1       1.858  15.701  20.816  0.00  0.00    +0.000 C 
ENDBRANCH  25  26
ENDBRANCH  24  25
ENDBRANCH  23  24
ENDBRANCH  11  23
TORSDOF 6
ENDMDL
