MODEL 1
REMARK VINA RESULT:      -8.4      0.000      0.000
REMARK  Name = 
REMARK  6 active torsions:
REMARK  status: ('A' for Active; 'I' for Inactive)
REMARK    1  A    between atoms: C_1  and  C_2
REMARK    2  A    between atoms: C_2  and  C_3
REMARK    3  A    between atoms: C_8  and  C_10
REMARK    4  A    between atoms: C_15  and  N_16
REMARK    5  A    between atoms: C_17  and  C_19
REMARK    6  A    between atoms: C_23  and  C_25
REMARK                            x       y       z     vdW  Elec       q    Type
REMARK                         _______ _______ _______ _____ _____    ______ ____
ROOT
ATOM      1  C   UNL     1       3.144   4.303  18.894  0.00  0.00    +0.000 A 
ATOM      2  C   UNL     1       3.259   3.103  19.633  0.00  0.00    +0.000 A 
ATOM      3  C   UNL     1       2.805   3.025  20.947  0.00  0.00    +0.000 A 
ATOM      4  C   UNL     1       2.202   4.132  21.526  0.00  0.00    +0.000 A 
ATOM      5  C   UNL     1       2.052   5.314  20.794  0.00  0.00    +0.000 A 
ATOM      6  C   UNL     1       2.521   5.435  19.480  0.00  0.00    +0.000 A 
ENDROOT
BRANCH   1  12
ATOM      7  C   UNL     1       6.905   4.737  14.224  0.00  0.00    +0.000 A 
ATOM      8  N   UNL     1       7.444   5.654  15.002  0.00  0.00    +0.000 NA
ATOM      9  N   UNL     1       6.756   5.790  16.190  0.00  0.00    +0.000 NA
ATOM     10  C   UNL     1       5.706   5.002  16.251  0.00  0.00    +0.000 A 
ATOM     11  N   UNL     1       4.898   4.959  17.360  0.00  0.00    +0.000 N 
ATOM     12  C   UNL     1       3.685   4.318  17.494  0.00  0.00    +0.000 C 
ATOM     13  O   UNL     1       3.012   3.821  16.598  0.00  0.00    +0.000 OA
ATOM     14  S   UNL     1       5.510   3.984  14.900  0.00  0.00    +0.000 S 
ATOM     15  H   UNL     1       5.235   5.556  18.103  0.00  0.00    +0.000 HD
BRANCH   7  17
ATOM     16  C   UNL     1       6.443   3.493  12.112  0.00  0.00    +0.000 C 
ATOM     17  C   UNL     1       7.432   4.357  12.879  0.00  0.00    +0.000 C 
ENDBRANCH   7  17
ENDBRANCH   1  12
BRANCH   6  18
ATOM     18  N   UNL     1       2.366   6.653  18.748  0.00  0.00    +0.000 N 
ATOM     19  C   UNL     1       2.011   7.894  19.270  0.00  0.00    +0.000 C 
ATOM     20  O   UNL     1       1.865   8.143  20.465  0.00  0.00    +0.000 OA
ATOM     21  H   UNL     1       2.582   6.590  17.752  0.00  0.00    +0.000 HD
BRANCH  19  22
ATOM     22  C   UNL     1       1.855   9.008  18.227  0.00  0.00    +0.000 C 
ATOM     23  C   UNL     1       1.905  10.415  18.869  0.00  0.00    +0.000 C 
ATOM     24  C   UNL     1       0.596  10.808  19.563  0.00  0.00    +0.000 C 
ATOM     25  N   UNL     1      -0.540  10.624  18.665  0.00  0.00    +0.000 N 
ATOM     26  C   UNL     1      -1.271  11.743  18.235  0.00  0.00    +0.000 C 
ATOM     27  O   UNL     1      -0.891  12.884  18.508  0.00  0.00    +0.000 OA
ATOM     28  C   UNL     1      -0.679   9.265  18.146  0.00  0.00    +0.000 C 
ATOM     29  C   UNL     1       0.582   8.846  17.390  0.00  0.00    +0.000 C 
BRANCH  26  30
ATOM     30  C   UNL     1      -2.466  11.539  17.432  0.00  0.00    +0.000 A 
ATOM     31  C   UNL     1      -3.804  11.588  17.781  0.00  0.00    +0.000 A 
ATOM     32  C   UNL     1      -4.549  11.334  16.604  0.00  0.00    +0.000 A 
ATOM     33  C   UNL     1      -3.627  11.086  15.617  0.00  0.00    +0.000 A 
ATOM     34  O   UNL     1      -2.369  11.174  16.114  0.00  0.00    +0.000 OA
ENDBRANCH  26  30
ENDBRANCH  19  22
ENDBRANCH   6  18
TORSDOF 5
ENDMDL
MODEL 2
REMARK VINA RESULT:      -8.2      1.071      1.193
REMARK  Name = 
REMARK  6 active torsions:
REMARK  status: ('A' for Active; 'I' for Inactive)
REMARK    1  A    between atoms: C_1  and  C_2
REMARK    2  A    between atoms: C_2  and  C_3
REMARK    3  A    between atoms: C_8  and  C_10
REMARK    4  A    between atoms: C_15  and  N_16
REMARK    5  A    between atoms: C_17  and  C_19
REMARK    6  A    between atoms: C_23  and  C_25
REMARK                            x       y       z     vdW  Elec       q    Type
REMARK                         _______ _______ _______ _____ _____    ______ ____
ROOT
ATOM      1  C   UNL     1       3.172   4.913  19.096  0.00  0.00    +0.000 A 
ATOM      2  C   UNL     1       3.298   3.574  19.534  0.00  0.00    +0.000 A 
ATOM      3  C   UNL     1       2.671   3.139  20.698  0.00  0.00    +0.000 A 
ATOM      4  C   UNL     1       1.883   4.025  21.418  0.00  0.00    +0.000 A 
ATOM      5  C   UNL     1       1.722   5.342  20.978  0.00  0.00    +0.000 A 
ATOM      6  C   UNL     1       2.360   5.820  19.826  0.00  0.00    +0.000 A 
ENDROOT
BRANCH   1  12
ATOM      7  C   UNL     1       7.111   4.990  14.555  0.00  0.00    +0.000 A 
ATOM      8  N   UNL     1       7.904   4.530  15.502  0.00  0.00    +0.000 NA
ATOM      9  N   UNL     1       7.250   4.415  16.711  0.00  0.00    +0.000 NA
ATOM     10  C   UNL     1       6.003   4.825  16.644  0.00  0.00    +0.000 A 
ATOM     11  N   UNL     1       5.165   4.769  17.729  0.00  0.00    +0.000 N 
ATOM     12  C   UNL     1       3.904   5.314  17.849  0.00  0.00    +0.000 C 
ATOM     13  O   UNL     1       3.368   6.106  17.081  0.00  0.00    +0.000 OA
ATOM     14  S   UNL     1       5.506   5.317  15.091  0.00  0.00    +0.000 S 
ATOM     15  H   UNL     1       5.607   4.347  18.534  0.00  0.00    +0.000 HD
BRANCH   7  17
ATOM     16  C   UNL     1       6.979   4.137  12.215  0.00  0.00    +0.000 C 
ATOM     17  C   UNL     1       7.529   5.212  13.139  0.00  0.00    +0.000 C 
ENDBRANCH   7  17
ENDBRANCH   1  12
BRANCH   6  18
ATOM     18  N   UNL     1       2.192   7.171  19.393  0.00  0.00    +0.000 N 
ATOM     19  C   UNL     1       1.685   8.226  20.148  0.00  0.00    +0.000 C 
ATOM     20  O   UNL     1       1.390   8.165  21.339  0.00  0.00    +0.000 OA
ATOM     21  H   UNL     1       2.520   7.367  18.446  0.00  0.00    +0.000 HD
BRANCH  19  22
ATOM     22  C   UNL     1       1.557   9.554  19.390  0.00  0.00    +0.000 C 
ATOM     23  C   UNL     1       1.078  10.703  20.309  0.00  0.00    +0.000 C 
ATOM     24  C   UNL     1      -0.427  10.659  20.594  0.00  0.00    +0.000 C 
ATOM     25  N   UNL     1      -1.185  10.561  19.350  0.00  0.00    +0.000 N 
ATOM     26  C   UNL     1      -2.019  11.622  18.963  0.00  0.00    +0.000 C 
ATOM     27  O   UNL     1      -2.024  12.681  19.595  0.00  0.00    +0.000 OA
ATOM     28  C   UNL     1      -0.835   9.408  18.525  0.00  0.00    +0.000 C 
ATOM     29  C   UNL     1       0.649   9.437  18.162  0.00  0.00    +0.000 C 
BRANCH  26  30
ATOM     30  C   UNL     1      -2.854  11.468  17.782  0.00  0.00    +0.000 A 
ATOM     31  C   UNL     1      -2.522  11.119  16.485  0.00  0.00    +0.000 A 
ATOM     32  C   UNL     1      -3.726  11.095  15.741  0.00  0.00    +0.000 A 
ATOM     33  C   UNL     1      -4.716  11.487  16.608  0.00  0.00    +0.000 A 
ATOM     34  O   UNL     1      -4.196  11.746  17.833  0.00  0.00    +0.000 OA
ENDBRANCH  26  30
ENDBRANCH  19  22
ENDBRANCH   6  18
TORSDOF 5
ENDMDL
MODEL 3
REMARK VINA RESULT:      -8.1      1.148      1.157
REMARK  Name = 
REMARK  6 active torsions:
REMARK  status: ('A' for Active; 'I' for Inactive)
REMARK    1  A    between atoms: C_1  and  C_2
REMARK    2  A    between atoms: C_2  and  C_3
REMARK    3  A    between atoms: C_8  and  C_10
REMARK    4  A    between atoms: C_15  and  N_16
REMARK    5  A    between atoms: C_17  and  C_19
REMARK    6  A    between atoms: C_23  and  C_25
REMARK                            x       y       z     vdW  Elec       q    Type
REMARK                         _______ _______ _______ _____ _____    ______ ____
ROOT
ATOM      1  C   UNL     1       3.556   4.573  19.313  0.00  0.00    +0.000 A 
ATOM      2  C   UNL     1       3.649   3.351  20.019  0.00  0.00    +0.000 A 
ATOM      3  C   UNL     1       2.689   2.994  20.962  0.00  0.00    +0.000 A 
ATOM      4  C   UNL     1       1.609   3.835  21.186  0.00  0.00    +0.000 A 
ATOM      5  C   UNL     1       1.488   5.031  20.471  0.00  0.00    +0.000 A 
ATOM      6  C   UNL     1       2.449   5.433  19.534  0.00  0.00    +0.000 A 
ENDROOT
BRANCH   1  12
ATOM      7  C   UNL     1       6.852   4.800  14.291  0.00  0.00    +0.000 A 
ATOM      8  N   UNL     1       6.415   3.561  14.189  0.00  0.00    +0.000 NA
ATOM      9  N   UNL     1       5.610   3.209  15.252  0.00  0.00    +0.000 NA
ATOM     10  C   UNL     1       5.499   4.178  16.134  0.00  0.00    +0.000 A 
ATOM     11  N   UNL     1       4.720   4.047  17.256  0.00  0.00    +0.000 N 
ATOM     12  C   UNL     1       4.647   4.902  18.336  0.00  0.00    +0.000 C 
ATOM     13  O   UNL     1       5.395   5.841  18.583  0.00  0.00    +0.000 OA
ATOM     14  S   UNL     1       6.306   5.615  15.707  0.00  0.00    +0.000 S 
ATOM     15  H   UNL     1       4.232   3.162  17.284  0.00  0.00    +0.000 HD
BRANCH   7  17
ATOM     16  C   UNL     1       7.511   4.917  11.888  0.00  0.00    +0.000 C 
ATOM     17  C   UNL     1       7.734   5.468  13.287  0.00  0.00    +0.000 C 
ENDBRANCH   7  17
ENDBRANCH   1  12
BRANCH   6  18
ATOM     18  N   UNL     1       2.314   6.661  18.816  0.00  0.00    +0.000 N 
ATOM     19  C   UNL     1       1.997   7.905  19.355  0.00  0.00    +0.000 C 
ATOM     20  O   UNL     1       1.875   8.146  20.554  0.00  0.00    +0.000 OA
ATOM     21  H   UNL     1       2.515   6.603  17.816  0.00  0.00    +0.000 HD
BRANCH  19  22
ATOM     22  C   UNL     1       1.855   9.033  18.325  0.00  0.00    +0.000 C 
ATOM     23  C   UNL     1       1.872  10.431  18.988  0.00  0.00    +0.000 C 
ATOM     24  C   UNL     1       0.541  10.799  19.655  0.00  0.00    +0.000 C 
ATOM     25  N   UNL     1      -0.569  10.615  18.726  0.00  0.00    +0.000 N 
ATOM     26  C   UNL     1      -1.303  11.732  18.295  0.00  0.00    +0.000 C 
ATOM     27  O   UNL     1      -0.943  12.873  18.593  0.00  0.00    +0.000 OA
ATOM     28  C   UNL     1      -0.679   9.263  18.184  0.00  0.00    +0.000 C 
ATOM     29  C   UNL     1       0.605   8.869  17.454  0.00  0.00    +0.000 C 
BRANCH  26  30
ATOM     30  C   UNL     1      -2.475  11.526  17.459  0.00  0.00    +0.000 A 
ATOM     31  C   UNL     1      -3.821  11.533  17.779  0.00  0.00    +0.000 A 
ATOM     32  C   UNL     1      -4.534  11.300  16.578  0.00  0.00    +0.000 A 
ATOM     33  C   UNL     1      -3.585  11.106  15.605  0.00  0.00    +0.000 A 
ATOM     34  O   UNL     1      -2.340  11.207  16.132  0.00  0.00    +0.000 OA
ENDBRANCH  26  30
ENDBRANCH  19  22
ENDBRANCH   6  18
TORSDOF 5
ENDMDL
MODEL 4
REMARK VINA RESULT:      -7.8      4.542     10.791
REMARK  Name = 
REMARK  6 active torsions:
REMARK  status: ('A' for Active; 'I' for Inactive)
REMARK    1  A    between atoms: C_1  and  C_2
REMARK    2  A    between atoms: C_2  and  C_3
REMARK    3  A    between atoms: C_8  and  C_10
REMARK    4  A    between atoms: C_15  and  N_16
REMARK    5  A    between atoms: C_17  and  C_19
REMARK    6  A    between atoms: C_23  and  C_25
REMARK                            x       y       z     vdW  Elec       q    Type
REMARK                         _______ _______ _______ _____ _____    ______ ____
ROOT
ATOM      1  C   UNL     1       0.371  14.152  21.255  0.00  0.00    +0.000 A 
ATOM      2  C   UNL     1       0.846  15.407  21.701  0.00  0.00    +0.000 A 
ATOM      3  C   UNL     1       2.210  15.654  21.823  0.00  0.00    +0.000 A 
ATOM      4  C   UNL     1       3.116  14.664  21.470  0.00  0.00    +0.000 A 
ATOM      5  C   UNL     1       2.660  13.430  20.996  0.00  0.00    +0.000 A 
ATOM      6  C   UNL     1       1.295  13.139  20.885  0.00  0.00    +0.000 A 
ENDROOT
BRANCH   1  12
ATOM      7  C   UNL     1      -5.334  13.057  22.800  0.00  0.00    +0.000 A 
ATOM      8  N   UNL     1      -4.737  12.232  23.637  0.00  0.00    +0.000 NA
ATOM      9  N   UNL     1      -3.366  12.260  23.497  0.00  0.00    +0.000 NA
ATOM     10  C   UNL     1      -2.979  13.073  22.539  0.00  0.00    +0.000 A 
ATOM     11  N   UNL     1      -1.652  13.271  22.251  0.00  0.00    +0.000 N 
ATOM     12  C   UNL     1      -1.114  13.951  21.179  0.00  0.00    +0.000 C 
ATOM     13  O   UNL     1      -1.711  14.347  20.184  0.00  0.00    +0.000 OA
ATOM     14  S   UNL     1      -4.246  13.919  21.780  0.00  0.00    +0.000 S 
ATOM     15  H   UNL     1      -1.043  12.763  22.880  0.00  0.00    +0.000 HD
BRANCH   7  17
ATOM     16  C   UNL     1      -7.568  12.134  23.419  0.00  0.00    +0.000 C 
ATOM     17  C   UNL     1      -6.813  13.255  22.722  0.00  0.00    +0.000 C 
ENDBRANCH   7  17
ENDBRANCH   1  12
BRANCH   6  18
ATOM     18  N   UNL     1       0.845  11.870  20.406  0.00  0.00    +0.000 N 
ATOM     19  C   UNL     1       1.131  11.304  19.166  0.00  0.00    +0.000 C 
ATOM     20  O   UNL     1       1.896  11.782  18.331  0.00  0.00    +0.000 OA
ATOM     21  H   UNL     1       0.294  11.326  21.072  0.00  0.00    +0.000 HD
BRANCH  19  22
ATOM     22  C   UNL     1       0.450   9.955  18.904  0.00  0.00    +0.000 C 
ATOM     23  C   UNL     1       0.193   9.171  20.213  0.00  0.00    +0.000 C 
ATOM     24  C   UNL     1       1.450   8.489  20.765  0.00  0.00    +0.000 C 
ATOM     25  N   UNL     1       2.099   7.689  19.731  0.00  0.00    +0.000 N 
ATOM     26  C   UNL     1       2.155   6.293  19.871  0.00  0.00    +0.000 C 
ATOM     27  O   UNL     1       1.558   5.729  20.790  0.00  0.00    +0.000 OA
ATOM     28  C   UNL     1       2.465   8.441  18.534  0.00  0.00    +0.000 C 
ATOM     29  C   UNL     1       1.232   9.093  17.909  0.00  0.00    +0.000 C 
BRANCH  26  30
ATOM     30  C   UNL     1       2.900   5.516  18.893  0.00  0.00    +0.000 A 
ATOM     31  C   UNL     1       2.459   4.736  17.839  0.00  0.00    +0.000 A 
ATOM     32  C   UNL     1       3.610   4.222  17.193  0.00  0.00    +0.000 A 
ATOM     33  C   UNL     1       4.685   4.669  17.922  0.00  0.00    +0.000 A 
ATOM     34  O   UNL     1       4.266   5.423  18.968  0.00  0.00    +0.000 OA
ENDBRANCH  26  30
ENDBRANCH  19  22
ENDBRANCH   6  18
TORSDOF 5
ENDMDL
MODEL 5
REMARK VINA RESULT:      -7.7      6.417     10.685
REMARK  Name = 
REMARK  6 active torsions:
REMARK  status: ('A' for Active; 'I' for Inactive)
REMARK    1  A    between atoms: C_1  and  C_2
REMARK    2  A    between atoms: C_2  and  C_3
REMARK    3  A    between atoms: C_8  and  C_10
REMARK    4  A    between atoms: C_15  and  N_16
REMARK    5  A    between atoms: C_17  and  C_19
REMARK    6  A    between atoms: C_23  and  C_25
REMARK                            x       y       z     vdW  Elec       q    Type
REMARK                         _______ _______ _______ _____ _____    ______ ____
ROOT
ATOM      1  C   UNL     1      -2.437  15.398  24.391  0.00  0.00    +0.000 A 
ATOM      2  C   UNL     1      -1.555  15.714  25.450  0.00  0.00    +0.000 A 
ATOM      3  C   UNL     1      -1.568  16.974  26.040  0.00  0.00    +0.000 A 
ATOM      4  C   UNL     1      -2.483  17.921  25.605  0.00  0.00    +0.000 A 
ATOM      5  C   UNL     1      -3.383  17.610  24.581  0.00  0.00    +0.000 A 
ATOM      6  C   UNL     1      -3.380  16.361  23.948  0.00  0.00    +0.000 A 
ENDROOT
BRANCH   1  12
ATOM      7  C   UNL     1      -0.221  10.355  21.982  0.00  0.00    +0.000 A 
ATOM      8  N   UNL     1       0.629  11.217  21.462  0.00  0.00    +0.000 NA
ATOM      9  N   UNL     1       0.349  12.512  21.846  0.00  0.00    +0.000 NA
ATOM     10  C   UNL     1      -0.720  12.586  22.607  0.00  0.00    +0.000 A 
ATOM     11  N   UNL     1      -1.158  13.780  23.123  0.00  0.00    +0.000 N 
ATOM     12  C   UNL     1      -2.342  14.028  23.785  0.00  0.00    +0.000 C 
ATOM     13  O   UNL     1      -3.306  13.276  23.877  0.00  0.00    +0.000 OA
ATOM     14  S   UNL     1      -1.428  11.082  22.975  0.00  0.00    +0.000 S 
ATOM     15  H   UNL     1      -0.547  14.549  22.883  0.00  0.00    +0.000 HD
BRANCH   7  17
ATOM     16  C   UNL     1       1.218   8.424  21.334  0.00  0.00    +0.000 C 
ATOM     17  C   UNL     1      -0.169   8.879  21.759  0.00  0.00    +0.000 C 
ENDBRANCH   7  17
ENDBRANCH   1  12
BRANCH   6  18
ATOM     18  N   UNL     1      -4.303  16.061  22.898  0.00  0.00    +0.000 N 
ATOM     19  C   UNL     1      -5.573  15.509  23.043  0.00  0.00    +0.000 C 
ATOM     20  O   UNL     1      -6.125  15.280  24.117  0.00  0.00    +0.000 OA
ATOM     21  H   UNL     1      -3.993  16.325  21.961  0.00  0.00    +0.000 HD
BRANCH  19  22
ATOM     22  C   UNL     1      -6.308  15.236  21.725  0.00  0.00    +0.000 C 
ATOM     23  C   UNL     1      -7.271  14.030  21.837  0.00  0.00    +0.000 C 
ATOM     24  C   UNL     1      -6.554  12.677  21.778  0.00  0.00    +0.000 C 
ATOM     25  N   UNL     1      -5.676  12.609  20.614  0.00  0.00    +0.000 N 
ATOM     26  C   UNL     1      -5.957  11.691  19.589  0.00  0.00    +0.000 C 
ATOM     27  O   UNL     1      -7.000  11.034  19.603  0.00  0.00    +0.000 OA
ATOM     28  C   UNL     1      -4.674  13.669  20.556  0.00  0.00    +0.000 C 
ATOM     29  C   UNL     1      -5.343  15.043  20.551  0.00  0.00    +0.000 C 
BRANCH  26  30
ATOM     30  C   UNL     1      -5.017  11.553  18.488  0.00  0.00    +0.000 A 
ATOM     31  C   UNL     1      -5.192  11.730  17.127  0.00  0.00    +0.000 A 
ATOM     32  C   UNL     1      -3.939  11.488  16.513  0.00  0.00    +0.000 A 
ATOM     33  C   UNL     1      -3.086  11.121  17.524  0.00  0.00    +0.000 A 
ATOM     34  O   UNL     1      -3.734  11.125  18.715  0.00  0.00    +0.000 OA
ENDBRANCH  26  30
ENDBRANCH  19  22
ENDBRANCH   6  18
TORSDOF 5
ENDMDL
MODEL 6
REMARK VINA RESULT:      -7.5      4.605     10.815
REMARK  Name = 
REMARK  6 active torsions:
REMARK  status: ('A' for Active; 'I' for Inactive)
REMARK    1  A    between atoms: C_1  and  C_2
REMARK    2  A    between atoms: C_2  and  C_3
REMARK    3  A    between atoms: C_8  and  C_10
REMARK    4  A    between atoms: C_15  and  N_16
REMARK    5  A    between atoms: C_17  and  C_19
REMARK    6  A    between atoms: C_23  and  C_25
REMARK                            x       y       z     vdW  Elec       q    Type
REMARK                         _______ _______ _______ _____ _____    ______ ____
ROOT
ATOM      1  C   UNL     1       0.928  14.205  20.461  0.00  0.00    +0.000 A 
ATOM      2  C   UNL     1       1.372  15.540  20.609  0.00  0.00    +0.000 A 
ATOM      3  C   UNL     1       2.249  16.108  19.689  0.00  0.00    +0.000 A 
ATOM      4  C   UNL     1       2.665  15.364  18.595  0.00  0.00    +0.000 A 
ATOM      5  C   UNL     1       2.207  14.054  18.420  0.00  0.00    +0.000 A 
ATOM      6  C   UNL     1       1.345  13.443  19.339  0.00  0.00    +0.000 A 
ENDROOT
BRANCH   1  12
ATOM      7  C   UNL     1      -3.910  13.283  23.908  0.00  0.00    +0.000 A 
ATOM      8  N   UNL     1      -4.024  14.586  23.747  0.00  0.00    +0.000 NA
ATOM      9  N   UNL     1      -3.002  15.100  22.976  0.00  0.00    +0.000 NA
ATOM     10  C   UNL     1      -2.137  14.178  22.616  0.00  0.00    +0.000 A 
ATOM     11  N   UNL     1      -1.058  14.472  21.821  0.00  0.00    +0.000 N 
ATOM     12  C   UNL     1       0.008  13.653  21.510  0.00  0.00    +0.000 C 
ATOM     13  O   UNL     1       0.286  12.578  22.030  0.00  0.00    +0.000 OA
ATOM     14  S   UNL     1      -2.534  12.603  23.125  0.00  0.00    +0.000 S 
ATOM     15  H   UNL     1      -1.048  15.440  21.529  0.00  0.00    +0.000 HD
BRANCH   7  17
ATOM     16  C   UNL     1      -6.307  12.674  24.240  0.00  0.00    +0.000 C 
ATOM     17  C   UNL     1      -4.871  12.442  24.684  0.00  0.00    +0.000 C 
ENDBRANCH   7  17
ENDBRANCH   1  12
BRANCH   6  18
ATOM     18  N   UNL     1       0.891  12.101  19.148  0.00  0.00    +0.000 N 
ATOM     19  C   UNL     1       1.544  11.099  18.436  0.00  0.00    +0.000 C 
ATOM     20  O   UNL     1       2.663  11.200  17.939  0.00  0.00    +0.000 OA
ATOM     21  H   UNL     1       0.018  11.867  19.625  0.00  0.00    +0.000 HD
BRANCH  19  22
ATOM     22  C   UNL     1       0.778   9.773  18.346  0.00  0.00    +0.000 C 
ATOM     23  C   UNL     1       0.456   9.193  19.744  0.00  0.00    +0.000 C 
ATOM     24  C   UNL     1       1.660   8.514  20.407  0.00  0.00    +0.000 C 
ATOM     25  N   UNL     1       2.265   7.540  19.504  0.00  0.00    +0.000 N 
ATOM     26  C   UNL     1       2.229   6.175  19.832  0.00  0.00    +0.000 C 
ATOM     27  O   UNL     1       1.586   5.781  20.807  0.00  0.00    +0.000 OA
ATOM     28  C   UNL     1       2.693   8.097  18.223  0.00  0.00    +0.000 C 
ATOM     29  C   UNL     1       1.512   8.735  17.492  0.00  0.00    +0.000 C 
BRANCH  26  30
ATOM     30  C   UNL     1       2.931   5.227  18.982  0.00  0.00    +0.000 A 
ATOM     31  C   UNL     1       4.261   4.846  18.967  0.00  0.00    +0.000 A 
ATOM     32  C   UNL     1       4.401   3.871  17.949  0.00  0.00    +0.000 A 
ATOM     33  C   UNL     1       3.165   3.754  17.363  0.00  0.00    +0.000 A 
ATOM     34  O   UNL     1       2.280   4.591  17.956  0.00  0.00    +0.000 OA
ENDBRANCH  26  30
ENDBRANCH  19  22
ENDBRANCH   6  18
TORSDOF 5
ENDMDL
MODEL 7
REMARK VINA RESULT:      -7.5      6.607     10.853
REMARK  Name = 
REMARK  6 active torsions:
REMARK  status: ('A' for Active; 'I' for Inactive)
REMARK    1  A    between atoms: C_1  and  C_2
REMARK    2  A    between atoms: C_2  and  C_3
REMARK    3  A    between atoms: C_8  and  C_10
REMARK    4  A    between atoms: C_15  and  N_16
REMARK    5  A    between atoms: C_17  and  C_19
REMARK    6  A    between atoms: C_23  and  C_25
REMARK                            x       y       z     vdW  Elec       q    Type
REMARK                         _______ _______ _______ _____ _____    ______ ____
ROOT
ATOM      1  C   UNL     1      -5.832  14.276  22.105  0.00  0.00    +0.000 A 
ATOM      2  C   UNL     1      -7.228  14.487  22.019  0.00  0.00    +0.000 A 
ATOM      3  C   UNL     1      -7.853  15.463  22.789  0.00  0.00    +0.000 A 
ATOM      4  C   UNL     1      -7.089  16.262  23.627  0.00  0.00    +0.000 A 
ATOM      5  C   UNL     1      -5.704  16.086  23.696  0.00  0.00    +0.000 A 
ATOM      6  C   UNL     1      -5.046  15.096  22.955  0.00  0.00    +0.000 A 
ENDROOT
BRANCH   1  12
ATOM      7  C   UNL     1      -3.975  11.075  17.367  0.00  0.00    +0.000 A 
ATOM      8  N   UNL     1      -5.058  11.608  16.838  0.00  0.00    +0.000 NA
ATOM      9  N   UNL     1      -5.725  12.416  17.735  0.00  0.00    +0.000 NA
ATOM     10  C   UNL     1      -5.147  12.434  18.915  0.00  0.00    +0.000 A 
ATOM     11  N   UNL     1      -5.633  13.198  19.946  0.00  0.00    +0.000 N 
ATOM     12  C   UNL     1      -5.235  13.184  21.266  0.00  0.00    +0.000 C 
ATOM     13  O   UNL     1      -4.505  12.360  21.806  0.00  0.00    +0.000 OA
ATOM     14  S   UNL     1      -3.709  11.528  19.008  0.00  0.00    +0.000 S 
ATOM     15  H   UNL     1      -6.433  13.752  19.669  0.00  0.00    +0.000 HD
BRANCH   7  17
ATOM     16  C   UNL     1      -2.873  10.577  15.185  0.00  0.00    +0.000 C 
ATOM     17  C   UNL     1      -3.041  10.165  16.639  0.00  0.00    +0.000 C 
ENDBRANCH   7  17
ENDBRANCH   1  12
BRANCH   6  18
ATOM     18  N   UNL     1      -3.630  14.925  23.042  0.00  0.00    +0.000 N 
ATOM     19  C   UNL     1      -2.667  15.577  22.275  0.00  0.00    +0.000 C 
ATOM     20  O   UNL     1      -2.897  16.472  21.465  0.00  0.00    +0.000 OA
ATOM     21  H   UNL     1      -3.315  14.287  23.775  0.00  0.00    +0.000 HD
BRANCH  19  22
ATOM     22  C   UNL     1      -1.223  15.136  22.548  0.00  0.00    +0.000 C 
ATOM     23  C   UNL     1      -0.299  15.394  21.334  0.00  0.00    +0.000 C 
ATOM     24  C   UNL     1      -0.463  14.355  20.220  0.00  0.00    +0.000 C 
ATOM     25  N   UNL     1      -0.348  13.002  20.755  0.00  0.00    +0.000 N 
ATOM     26  C   UNL     1       0.731  12.192  20.365  0.00  0.00    +0.000 C 
ATOM     27  O   UNL     1       1.644  12.653  19.675  0.00  0.00    +0.000 OA
ATOM     28  C   UNL     1      -1.301  12.696  21.819  0.00  0.00    +0.000 C 
ATOM     29  C   UNL     1      -1.137  13.670  22.985  0.00  0.00    +0.000 C 
BRANCH  26  30
ATOM     30  C   UNL     1       0.776  10.810  20.815  0.00  0.00    +0.000 A 
ATOM     31  C   UNL     1       0.290   9.656  20.227  0.00  0.00    +0.000 A 
ATOM     32  C   UNL     1       0.626   8.581  21.085  0.00  0.00    +0.000 A 
ATOM     33  C   UNL     1       1.245   9.143  22.174  0.00  0.00    +0.000 A 
ATOM     34  O   UNL     1       1.311  10.491  22.037  0.00  0.00    +0.000 OA
ENDBRANCH  26  30
ENDBRANCH  19  22
ENDBRANCH   6  18
TORSDOF 5
ENDMDL
MODEL 8
REMARK VINA RESULT:      -7.5      4.832     11.029
REMARK  Name = 
REMARK  6 active torsions:
REMARK  status: ('A' for Active; 'I' for Inactive)
REMARK    1  A    between atoms: C_1  and  C_2
REMARK    2  A    between atoms: C_2  and  C_3
REMARK    3  A    between atoms: C_8  and  C_10
REMARK    4  A    between atoms: C_15  and  N_16
REMARK    5  A    between atoms: C_17  and  C_19
REMARK    6  A    between atoms: C_23  and  C_25
REMARK                            x       y       z     vdW  Elec       q    Type
REMARK                         _______ _______ _______ _____ _____    ______ ____
ROOT
ATOM      1  C   UNL     1       0.906  14.482  19.286  0.00  0.00    +0.000 A 
ATOM      2  C   UNL     1       1.544  15.738  19.169  0.00  0.00    +0.000 A 
ATOM      3  C   UNL     1       2.803  15.850  18.585  0.00  0.00    +0.000 A 
ATOM      4  C   UNL     1       3.423  14.717  18.081  0.00  0.00    +0.000 A 
ATOM      5  C   UNL     1       2.788  13.473  18.160  0.00  0.00    +0.000 A 
ATOM      6  C   UNL     1       1.534  13.321  18.765  0.00  0.00    +0.000 A 
ENDROOT
BRANCH   1  12
ATOM      7  C   UNL     1      -3.746  15.805  22.856  0.00  0.00    +0.000 A 
ATOM      8  N   UNL     1      -2.766  16.138  23.671  0.00  0.00    +0.000 NA
ATOM      9  N   UNL     1      -1.528  15.922  23.103  0.00  0.00    +0.000 NA
ATOM     10  C   UNL     1      -1.616  15.400  21.900  0.00  0.00    +0.000 A 
ATOM     11  N   UNL     1      -0.501  15.131  21.146  0.00  0.00    +0.000 N 
ATOM     12  C   UNL     1      -0.436  14.437  19.956  0.00  0.00    +0.000 C 
ATOM     13  O   UNL     1      -1.328  13.772  19.442  0.00  0.00    +0.000 OA
ATOM     14  S   UNL     1      -3.209  15.196  21.336  0.00  0.00    +0.000 S 
ATOM     15  H   UNL     1       0.352  15.420  21.606  0.00  0.00    +0.000 HD
BRANCH   7  17
ATOM     16  C   UNL     1      -5.413  16.680  24.492  0.00  0.00    +0.000 C 
ATOM     17  C   UNL     1      -5.198  15.935  23.184  0.00  0.00    +0.000 C 
ENDBRANCH   7  17
ENDBRANCH   1  12
BRANCH   6  18
ATOM     18  N   UNL     1       0.902  12.041  18.844  0.00  0.00    +0.000 N 
ATOM     19  C   UNL     1       0.861  11.205  19.956  0.00  0.00    +0.000 C 
ATOM     20  O   UNL     1       1.291  11.491  21.072  0.00  0.00    +0.000 OA
ATOM     21  H   UNL     1       0.403  11.752  18.001  0.00  0.00    +0.000 HD
BRANCH  19  22
ATOM     22  C   UNL     1       0.165   9.858  19.721  0.00  0.00    +0.000 C 
ATOM     23  C   UNL     1       0.125   8.993  21.003  0.00  0.00    +0.000 C 
ATOM     24  C   UNL     1       1.462   8.310  21.312  0.00  0.00    +0.000 C 
ATOM     25  N   UNL     1       1.953   7.586  20.144  0.00  0.00    +0.000 N 
ATOM     26  C   UNL     1       2.050   6.186  20.187  0.00  0.00    +0.000 C 
ATOM     27  O   UNL     1       1.610   5.556  21.151  0.00  0.00    +0.000 OA
ATOM     28  C   UNL     1       2.119   8.415  18.952  0.00  0.00    +0.000 C 
ATOM     29  C   UNL     1       0.795   9.074  18.566  0.00  0.00    +0.000 C 
BRANCH  26  30
ATOM     30  C   UNL     1       2.645   5.485  19.060  0.00  0.00    +0.000 A 
ATOM     31  C   UNL     1       2.057   4.741  18.051  0.00  0.00    +0.000 A 
ATOM     32  C   UNL     1       3.100   4.302  17.200  0.00  0.00    +0.000 A 
ATOM     33  C   UNL     1       4.267   4.750  17.767  0.00  0.00    +0.000 A 
ATOM     34  O   UNL     1       4.006   5.436  18.907  0.00  0.00    +0.000 OA
ENDBRANCH  26  30
ENDBRANCH  19  22
ENDBRANCH   6  18
TORSDOF 5
ENDMDL
MODEL 9
REMARK VINA RESULT:      -7.5      4.673     10.934
REMARK  Name = 
REMARK  6 active torsions:
REMARK  status: ('A' for Active; 'I' for Inactive)
REMARK    1  A    between atoms: C_1  and  C_2
REMARK    2  A    between atoms: C_2  and  C_3
REMARK    3  A    between atoms: C_8  and  C_10
REMARK    4  A    between atoms: C_15  and  N_16
REMARK    5  A    between atoms: C_17  and  C_19
REMARK    6  A    between atoms: C_23  and  C_25
REMARK                            x       y       z     vdW  Elec       q    Type
REMARK                         _______ _______ _______ _____ _____    ______ ____
ROOT
ATOM      1  C   UNL     1       0.674  13.996  21.768  0.00  0.00    +0.000 A 
ATOM      2  C   UNL     1       1.178  15.264  22.139  0.00  0.00    +0.000 A 
ATOM      3  C   UNL     1       2.409  15.712  21.666  0.00  0.00    +0.000 A 
ATOM      4  C   UNL     1       3.133  14.915  20.791  0.00  0.00    +0.000 A 
ATOM      5  C   UNL     1       2.630  13.673  20.391  0.00  0.00    +0.000 A 
ATOM      6  C   UNL     1       1.408  13.181  20.868  0.00  0.00    +0.000 A 
ENDROOT
BRANCH   1  12
ATOM      7  C   UNL     1      -5.232  13.518  22.784  0.00  0.00    +0.000 A 
ATOM      8  N   UNL     1      -5.183  14.800  22.481  0.00  0.00    +0.000 NA
ATOM      9  N   UNL     1      -3.897  15.214  22.201  0.00  0.00    +0.000 NA
ATOM     10  C   UNL     1      -3.020  14.245  22.340  0.00  0.00    +0.000 A 
ATOM     11  N   UNL     1      -1.686  14.436  22.082  0.00  0.00    +0.000 N 
ATOM     12  C   UNL     1      -0.645  13.571  22.345  0.00  0.00    +0.000 C 
ATOM     13  O   UNL     1      -0.688  12.550  23.022  0.00  0.00    +0.000 OA
ATOM     14  S   UNL     1      -3.696  12.737  22.751  0.00  0.00    +0.000 S 
ATOM     15  H   UNL     1      -1.490  15.369  21.744  0.00  0.00    +0.000 HD
BRANCH   7  17
ATOM     16  C   UNL     1      -7.336  13.545  24.123  0.00  0.00    +0.000 C 
ATOM     17  C   UNL     1      -6.485  12.779  23.123  0.00  0.00    +0.000 C 
ENDBRANCH   7  17
ENDBRANCH   1  12
BRANCH   6  18
ATOM     18  N   UNL     1       0.911  11.907  20.454  0.00  0.00    +0.000 N 
ATOM     19  C   UNL     1       1.143  11.284  19.230  0.00  0.00    +0.000 C 
ATOM     20  O   UNL     1       1.894  11.707  18.353  0.00  0.00    +0.000 OA
ATOM     21  H   UNL     1       0.368  11.404  21.158  0.00  0.00    +0.000 HD
BRANCH  19  22
ATOM     22  C   UNL     1       0.419   9.945  19.044  0.00  0.00    +0.000 C 
ATOM     23  C   UNL     1       0.256   9.183  20.381  0.00  0.00    +0.000 C 
ATOM     24  C   UNL     1       1.542   8.486  20.839  0.00  0.00    +0.000 C 
ATOM     25  N   UNL     1       2.091   7.660  19.768  0.00  0.00    +0.000 N 
ATOM     26  C   UNL     1       2.134   6.265  19.923  0.00  0.00    +0.000 C 
ATOM     27  O   UNL     1       1.604   5.724  20.896  0.00  0.00    +0.000 OA
ATOM     28  C   UNL     1       2.372   8.389  18.534  0.00  0.00    +0.000 C 
ATOM     29  C   UNL     1       1.103   9.055  18.001  0.00  0.00    +0.000 C 
BRANCH  26  30
ATOM     30  C   UNL     1       2.784   5.462  18.899  0.00  0.00    +0.000 A 
ATOM     31  C   UNL     1       4.118   5.358  18.549  0.00  0.00    +0.000 A 
ATOM     32  C   UNL     1       4.199   4.412  17.499  0.00  0.00    +0.000 A 
ATOM     33  C   UNL     1       2.907   4.036  17.227  0.00  0.00    +0.000 A 
ATOM     34  O   UNL     1       2.043   4.688  18.043  0.00  0.00    +0.000 OA
ENDBRANCH  26  30
ENDBRANCH  19  22
ENDBRANCH   6  18
TORSDOF 5
ENDMDL
