MODEL 1
REMARK VINA RESULT:      -7.9      0.000      0.000
REMARK  Name = 
REMARK  4 active torsions:
REMARK  status: ('A' for Active; 'I' for Inactive)
REMARK    1  A    between atoms: S_2  and  N_4
REMARK    2  A    between atoms: S_2  and  C_16
REMARK    3  A    between atoms: N_8  and  C_9
REMARK    4  A    between atoms: N_20  and  C_21
REMARK                            x       y       z     vdW  Elec       q    Type
REMARK                         _______ _______ _______ _____ _____    ______ ____
ROOT
ATOM      1  N   UNL     1       7.403   4.410  16.976  0.00  0.00    +0.000 N 
ATOM      2  C   UNL     1       7.040   4.638  15.664  0.00  0.00    +0.000 A 
ATOM      3  N   UNL     1       7.763   5.466  14.865  0.00  0.00    +0.000 NA
ATOM      4  C   UNL     1       7.323   5.176  13.660  0.00  0.00    +0.000 A 
ATOM      5  N   UNL     1       6.425   4.139  13.720  0.00  0.00    +0.000 N 
ATOM      6  N   UNL     1       6.191   3.837  15.024  0.00  0.00    +0.000 NA
ATOM      7  H   UNL     1       8.419   4.466  17.026  0.00  0.00    +0.000 HD
ENDROOT
BRANCH   5   8
ATOM      8  C   UNL     1       5.857   3.393  12.653  0.00  0.00    +0.000 A 
ATOM      9  C   UNL     1       6.525   2.287  12.106  0.00  0.00    +0.000 A 
ATOM     10  C   UNL     1       5.929   1.546  11.080  0.00  0.00    +0.000 A 
ATOM     11  C   UNL     1       4.672   1.903  10.594  0.00  0.00    +0.000 A 
ATOM     12  C   UNL     1       4.002   2.998  11.137  0.00  0.00    +0.000 A 
ATOM     13  C   UNL     1       4.588   3.741  12.165  0.00  0.00    +0.000 A 
ENDBRANCH   5   8
BRANCH   1  15
ATOM     14  O   UNL     1       7.010   4.825  19.424  0.00  0.00    +0.000 OA
ATOM     15  S   UNL     1       6.903   5.505  18.150  0.00  0.00    +0.000 S 
ATOM     16  O   UNL     1       7.624   6.734  17.901  0.00  0.00    +0.000 OA
BRANCH  15  17
ATOM     17  C   UNL     1       5.187   5.841  18.003  0.00  0.00    +0.000 A 
ATOM     18  C   UNL     1       4.565   7.061  17.770  0.00  0.00    +0.000 A 
ATOM     19  C   UNL     1       3.197   6.798  17.737  0.00  0.00    +0.000 A 
ATOM     20  N   UNL     1       2.934   5.512  17.935  0.00  0.00    +0.000 NA
ATOM     21  N   UNL     1       4.156   4.920  18.023  0.00  0.00    +0.000 N 
BRANCH  21  22
ATOM     22  C   UNL     1       4.242   3.472  18.119  0.00  0.00    +0.000 C 
ATOM     23  C   UNL     1       3.746   2.964  19.507  0.00  0.00    +0.000 C 
ATOM     24  C   UNL     1       2.895   1.905  18.793  0.00  0.00    +0.000 C 
ATOM     25  C   UNL     1       3.007   2.738  17.510  0.00  0.00    +0.000 C 
ENDBRANCH  21  22
ENDBRANCH  15  17
ENDBRANCH   1  15
TORSDOF 4
ENDMDL
MODEL 2
REMARK VINA RESULT:      -7.7      0.469      1.094
REMARK  Name = 
REMARK  4 active torsions:
REMARK  status: ('A' for Active; 'I' for Inactive)
REMARK    1  A    between atoms: S_2  and  N_4
REMARK    2  A    between atoms: S_2  and  C_16
REMARK    3  A    between atoms: N_8  and  C_9
REMARK    4  A    between atoms: N_20  and  C_21
REMARK                            x       y       z     vdW  Elec       q    Type
REMARK                         _______ _______ _______ _____ _____    ______ ____
ROOT
ATOM      1  N   UNL     1       7.018   4.368  17.249  0.00  0.00    +0.000 N 
ATOM      2  C   UNL     1       6.786   4.610  15.910  0.00  0.00    +0.000 A 
ATOM      3  N   UNL     1       7.640   5.364  15.169  0.00  0.00    +0.000 NA
ATOM      4  C   UNL     1       7.279   5.096  13.934  0.00  0.00    +0.000 A 
ATOM      5  N   UNL     1       6.294   4.138  13.925  0.00  0.00    +0.000 N 
ATOM      6  N   UNL     1       5.929   3.874  15.207  0.00  0.00    +0.000 NA
ATOM      7  H   UNL     1       8.028   4.341  17.384  0.00  0.00    +0.000 HD
ENDROOT
BRANCH   5   8
ATOM      8  C   UNL     1       5.756   3.428  12.819  0.00  0.00    +0.000 A 
ATOM      9  C   UNL     1       4.511   3.773  12.273  0.00  0.00    +0.000 A 
ATOM     10  C   UNL     1       4.017   3.083  11.161  0.00  0.00    +0.000 A 
ATOM     11  C   UNL     1       4.758   2.049  10.591  0.00  0.00    +0.000 A 
ATOM     12  C   UNL     1       5.998   1.705  11.125  0.00  0.00    +0.000 A 
ATOM     13  C   UNL     1       6.500   2.391  12.234  0.00  0.00    +0.000 A 
ENDBRANCH   5   8
BRANCH   1  15
ATOM     14  O   UNL     1       6.644   4.904  19.677  0.00  0.00    +0.000 OA
ATOM     15  S   UNL     1       6.517   5.517  18.371  0.00  0.00    +0.000 S 
ATOM     16  O   UNL     1       7.220   6.740  18.052  0.00  0.00    +0.000 OA
BRANCH  15  17
ATOM     17  C   UNL     1       4.796   5.824  18.225  0.00  0.00    +0.000 A 
ATOM     18  C   UNL     1       4.162   6.964  17.745  0.00  0.00    +0.000 A 
ATOM     19  C   UNL     1       2.794   6.712  17.832  0.00  0.00    +0.000 A 
ATOM     20  N   UNL     1       2.542   5.508  18.332  0.00  0.00    +0.000 NA
ATOM     21  N   UNL     1       3.768   4.941  18.501  0.00  0.00    +0.000 N 
BRANCH  21  22
ATOM     22  C   UNL     1       3.860   3.553  18.922  0.00  0.00    +0.000 C 
ATOM     23  C   UNL     1       2.578   3.107  19.689  0.00  0.00    +0.000 C 
ATOM     24  C   UNL     1       2.528   1.838  18.826  0.00  0.00    +0.000 C 
ATOM     25  C   UNL     1       3.439   2.541  17.812  0.00  0.00    +0.000 C 
ENDBRANCH  21  22
ENDBRANCH  15  17
ENDBRANCH   1  15
TORSDOF 4
ENDMDL
MODEL 3
REMARK VINA RESULT:      -7.6      3.195      7.773
REMARK  Name = 
REMARK  4 active torsions:
REMARK  status: ('A' for Active; 'I' for Inactive)
REMARK    1  A    between atoms: S_2  and  N_4
REMARK    2  A    between atoms: S_2  and  C_16
REMARK    3  A    between atoms: N_8  and  C_9
REMARK    4  A    between atoms: N_20  and  C_21
REMARK                            x       y       z     vdW  Elec       q    Type
REMARK                         _______ _______ _______ _____ _____    ______ ____
ROOT
ATOM      1  N   UNL     1       3.049   4.780  18.173  0.00  0.00    +0.000 N 
ATOM      2  C   UNL     1       2.961   6.129  18.449  0.00  0.00    +0.000 A 
ATOM      3  N   UNL     1       3.244   7.065  17.504  0.00  0.00    +0.000 NA
ATOM      4  C   UNL     1       2.743   8.166  18.017  0.00  0.00    +0.000 A 
ATOM      5  N   UNL     1       2.096   7.890  19.196  0.00  0.00    +0.000 N 
ATOM      6  N   UNL     1       2.296   6.583  19.509  0.00  0.00    +0.000 NA
ATOM      7  H   UNL     1       2.810   4.653  17.190  0.00  0.00    +0.000 HD
ENDROOT
BRANCH   5   8
ATOM      8  C   UNL     1       1.266   8.740  19.974  0.00  0.00    +0.000 A 
ATOM      9  C   UNL     1       1.021   8.471  21.329  0.00  0.00    +0.000 A 
ATOM     10  C   UNL     1       0.228   9.343  22.084  0.00  0.00    +0.000 A 
ATOM     11  C   UNL     1      -0.324  10.479  21.495  0.00  0.00    +0.000 A 
ATOM     12  C   UNL     1      -0.080  10.754  20.151  0.00  0.00    +0.000 A 
ATOM     13  C   UNL     1       0.714   9.891  19.390  0.00  0.00    +0.000 A 
ENDBRANCH   5   8
BRANCH   1  15
ATOM     14  O   UNL     1       5.207   4.608  19.452  0.00  0.00    +0.000 OA
ATOM     15  S   UNL     1       4.551   4.031  18.298  0.00  0.00    +0.000 S 
ATOM     16  O   UNL     1       4.309   2.608  18.213  0.00  0.00    +0.000 OA
BRANCH  15  17
ATOM     17  C   UNL     1       5.590   4.488  16.960  0.00  0.00    +0.000 A 
ATOM     18  C   UNL     1       5.679   3.907  15.701  0.00  0.00    +0.000 A 
ATOM     19  C   UNL     1       6.646   4.632  15.007  0.00  0.00    +0.000 A 
ATOM     20  N   UNL     1       7.158   5.610  15.746  0.00  0.00    +0.000 NA
ATOM     21  N   UNL     1       6.457   5.563  16.912  0.00  0.00    +0.000 N 
BRANCH  21  22
ATOM     22  C   UNL     1       6.678   6.590  17.918  0.00  0.00    +0.000 C 
ATOM     23  C   UNL     1       7.966   6.301  18.749  0.00  0.00    +0.000 C 
ATOM     24  C   UNL     1       8.397   7.761  18.550  0.00  0.00    +0.000 C 
ATOM     25  C   UNL     1       7.424   7.844  17.367  0.00  0.00    +0.000 C 
ENDBRANCH  21  22
ENDBRANCH  15  17
ENDBRANCH   1  15
TORSDOF 4
ENDMDL
MODEL 4
REMARK VINA RESULT:      -7.6      3.352      7.963
REMARK  Name = 
REMARK  4 active torsions:
REMARK  status: ('A' for Active; 'I' for Inactive)
REMARK    1  A    between atoms: S_2  and  N_4
REMARK    2  A    between atoms: S_2  and  C_16
REMARK    3  A    between atoms: N_8  and  C_9
REMARK    4  A    between atoms: N_20  and  C_21
REMARK                            x       y       z     vdW  Elec       q    Type
REMARK                         _______ _______ _______ _____ _____    ______ ____
ROOT
ATOM      1  N   UNL     1       2.768   4.929  18.168  0.00  0.00    +0.000 N 
ATOM      2  C   UNL     1       2.744   6.256  18.545  0.00  0.00    +0.000 A 
ATOM      3  N   UNL     1       3.044   7.246  17.663  0.00  0.00    +0.000 NA
ATOM      4  C   UNL     1       2.604   8.327  18.268  0.00  0.00    +0.000 A 
ATOM      5  N   UNL     1       1.975   7.991  19.442  0.00  0.00    +0.000 N 
ATOM      6  N   UNL     1       2.126   6.657  19.653  0.00  0.00    +0.000 NA
ATOM      7  H   UNL     1       2.499   4.885  17.186  0.00  0.00    +0.000 HD
ENDROOT
BRANCH   5   8
ATOM      8  C   UNL     1       1.201   8.814  20.302  0.00  0.00    +0.000 A 
ATOM      9  C   UNL     1       0.393   9.840  19.789  0.00  0.00    +0.000 A 
ATOM     10  C   UNL     1      -0.389  10.615  20.653  0.00  0.00    +0.000 A 
ATOM     11  C   UNL     1      -0.367  10.374  22.026  0.00  0.00    +0.000 A 
ATOM     12  C   UNL     1       0.429   9.353  22.541  0.00  0.00    +0.000 A 
ATOM     13  C   UNL     1       1.210   8.572  21.685  0.00  0.00    +0.000 A 
ENDBRANCH   5   8
BRANCH   1  15
ATOM     14  O   UNL     1       4.965   4.607  19.348  0.00  0.00    +0.000 OA
ATOM     15  S   UNL     1       4.238   4.112  18.197  0.00  0.00    +0.000 S 
ATOM     16  O   UNL     1       3.931   2.705  18.060  0.00  0.00    +0.000 OA
BRANCH  15  17
ATOM     17  C   UNL     1       5.243   4.584  16.839  0.00  0.00    +0.000 A 
ATOM     18  C   UNL     1       5.248   4.066  15.549  0.00  0.00    +0.000 A 
ATOM     19  C   UNL     1       6.221   4.777  14.850  0.00  0.00    +0.000 A 
ATOM     20  N   UNL     1       6.814   5.687  15.612  0.00  0.00    +0.000 NA
ATOM     21  N   UNL     1       6.162   5.616  16.805  0.00  0.00    +0.000 N 
BRANCH  21  22
ATOM     22  C   UNL     1       6.479   6.577  17.849  0.00  0.00    +0.000 C 
ATOM     23  C   UNL     1       7.751   6.151  18.644  0.00  0.00    +0.000 C 
ATOM     24  C   UNL     1       8.294   7.579  18.500  0.00  0.00    +0.000 C 
ATOM     25  C   UNL     1       7.314   7.791  17.339  0.00  0.00    +0.000 C 
ENDBRANCH  21  22
ENDBRANCH  15  17
ENDBRANCH   1  15
TORSDOF 4
ENDMDL
MODEL 5
REMARK VINA RESULT:      -7.6      3.447      8.063
REMARK  Name = 
REMARK  4 active torsions:
REMARK  status: ('A' for Active; 'I' for Inactive)
REMARK    1  A    between atoms: S_2  and  N_4
REMARK    2  A    between atoms: S_2  and  C_16
REMARK    3  A    between atoms: N_8  and  C_9
REMARK    4  A    between atoms: N_20  and  C_21
REMARK                            x       y       z     vdW  Elec       q    Type
REMARK                         _______ _______ _______ _____ _____    ______ ____
ROOT
ATOM      1  N   UNL     1       4.305   5.257  19.102  0.00  0.00    +0.000 N 
ATOM      2  C   UNL     1       3.101   5.758  19.557  0.00  0.00    +0.000 A 
ATOM      3  N   UNL     1       2.356   5.083  20.472  0.00  0.00    +0.000 NA
ATOM      4  C   UNL     1       1.498   5.990  20.884  0.00  0.00    +0.000 A 
ATOM      5  N   UNL     1       1.774   7.204  20.302  0.00  0.00    +0.000 N 
ATOM      6  N   UNL     1       2.769   7.036  19.392  0.00  0.00    +0.000 NA
ATOM      7  H   UNL     1       4.724   4.730  19.867  0.00  0.00    +0.000 HD
ENDROOT
BRANCH   5   8
ATOM      8  C   UNL     1       1.225   8.478  20.603  0.00  0.00    +0.000 A 
ATOM      9  C   UNL     1       1.010   9.431  19.596  0.00  0.00    +0.000 A 
ATOM     10  C   UNL     1       0.435  10.666  19.911  0.00  0.00    +0.000 A 
ATOM     11  C   UNL     1       0.075  10.959  21.225  0.00  0.00    +0.000 A 
ATOM     12  C   UNL     1       0.282  10.015  22.230  0.00  0.00    +0.000 A 
ATOM     13  C   UNL     1       0.853   8.777  21.923  0.00  0.00    +0.000 A 
ENDBRANCH   5   8
BRANCH   1  15
ATOM     14  O   UNL     1       4.720   2.881  18.393  0.00  0.00    +0.000 OA
ATOM     15  S   UNL     1       4.287   4.147  17.839  0.00  0.00    +0.000 S 
ATOM     16  O   UNL     1       2.997   4.275  17.196  0.00  0.00    +0.000 OA
BRANCH  15  17
ATOM     17  C   UNL     1       5.525   4.526  16.656  0.00  0.00    +0.000 A 
ATOM     18  C   UNL     1       5.735   3.942  15.412  0.00  0.00    +0.000 A 
ATOM     19  C   UNL     1       6.837   4.594  14.860  0.00  0.00    +0.000 A 
ATOM     20  N   UNL     1       7.319   5.528  15.672  0.00  0.00    +0.000 NA
ATOM     21  N   UNL     1       6.469   5.533  16.734  0.00  0.00    +0.000 N 
BRANCH  21  22
ATOM     22  C   UNL     1       6.631   6.537  17.773  0.00  0.00    +0.000 C 
ATOM     23  C   UNL     1       7.761   6.142  18.773  0.00  0.00    +0.000 C 
ATOM     24  C   UNL     1       8.336   7.560  18.652  0.00  0.00    +0.000 C 
ATOM     25  C   UNL     1       7.549   7.724  17.346  0.00  0.00    +0.000 C 
ENDBRANCH  21  22
ENDBRANCH  15  17
ENDBRANCH   1  15
TORSDOF 4
ENDMDL
MODEL 6
REMARK VINA RESULT:      -7.3      1.225      1.288
REMARK  Name = 
REMARK  4 active torsions:
REMARK  status: ('A' for Active; 'I' for Inactive)
REMARK    1  A    between atoms: S_2  and  N_4
REMARK    2  A    between atoms: S_2  and  C_16
REMARK    3  A    between atoms: N_8  and  C_9
REMARK    4  A    between atoms: N_20  and  C_21
REMARK                            x       y       z     vdW  Elec       q    Type
REMARK                         _______ _______ _______ _____ _____    ______ ____
ROOT
ATOM      1  N   UNL     1       6.892   4.012  17.632  0.00  0.00    +0.000 N 
ATOM      2  C   UNL     1       6.676   4.406  16.327  0.00  0.00    +0.000 A 
ATOM      3  N   UNL     1       7.470   5.332  15.728  0.00  0.00    +0.000 NA
ATOM      4  C   UNL     1       7.175   5.196  14.454  0.00  0.00    +0.000 A 
ATOM      5  N   UNL     1       6.295   4.157  14.278  0.00  0.00    +0.000 N 
ATOM      6  N   UNL     1       5.921   3.690  15.498  0.00  0.00    +0.000 NA
ATOM      7  H   UNL     1       7.895   4.066  17.805  0.00  0.00    +0.000 HD
ENDROOT
BRANCH   5   8
ATOM      8  C   UNL     1       5.866   3.552  13.067  0.00  0.00    +0.000 A 
ATOM      9  C   UNL     1       6.694   2.660  12.369  0.00  0.00    +0.000 A 
ATOM     10  C   UNL     1       6.235   2.049  11.197  0.00  0.00    +0.000 A 
ATOM     11  C   UNL     1       4.956   2.324  10.715  0.00  0.00    +0.000 A 
ATOM     12  C   UNL     1       4.127   3.206  11.407  0.00  0.00    +0.000 A 
ATOM     13  C   UNL     1       4.576   3.818  12.580  0.00  0.00    +0.000 A 
ENDBRANCH   5   8
BRANCH   1  15
ATOM     14  O   UNL     1       5.703   4.023  19.848  0.00  0.00    +0.000 OA
ATOM     15  S   UNL     1       6.242   4.946  18.871  0.00  0.00    +0.000 S 
ATOM     16  O   UNL     1       7.258   5.908  19.238  0.00  0.00    +0.000 OA
BRANCH  15  17
ATOM     17  C   UNL     1       4.832   5.829  18.314  0.00  0.00    +0.000 A 
ATOM     18  C   UNL     1       4.785   6.938  17.478  0.00  0.00    +0.000 A 
ATOM     19  C   UNL     1       3.436   7.261  17.338  0.00  0.00    +0.000 A 
ATOM     20  N   UNL     1       2.655   6.437  18.028  0.00  0.00    +0.000 NA
ATOM     21  N   UNL     1       3.507   5.521  18.562  0.00  0.00    +0.000 N 
BRANCH  21  22
ATOM     22  C   UNL     1       2.967   4.382  19.287  0.00  0.00    +0.000 C 
ATOM     23  C   UNL     1       2.275   4.830  20.611  0.00  0.00    +0.000 C 
ATOM     24  C   UNL     1       1.069   3.950  20.253  0.00  0.00    +0.000 C 
ATOM     25  C   UNL     1       1.550   3.954  18.797  0.00  0.00    +0.000 C 
ENDBRANCH  21  22
ENDBRANCH  15  17
ENDBRANCH   1  15
TORSDOF 4
ENDMDL
MODEL 7
REMARK VINA RESULT:      -7.3      3.352      7.873
REMARK  Name = 
REMARK  4 active torsions:
REMARK  status: ('A' for Active; 'I' for Inactive)
REMARK    1  A    between atoms: S_2  and  N_4
REMARK    2  A    between atoms: S_2  and  C_16
REMARK    3  A    between atoms: N_8  and  C_9
REMARK    4  A    between atoms: N_20  and  C_21
REMARK                            x       y       z     vdW  Elec       q    Type
REMARK                         _______ _______ _______ _____ _____    ______ ____
ROOT
ATOM      1  N   UNL     1       2.518   4.520  18.791  0.00  0.00    +0.000 N 
ATOM      2  C   UNL     1       2.565   5.884  19.000  0.00  0.00    +0.000 A 
ATOM      3  N   UNL     1       2.860   6.744  17.990  0.00  0.00    +0.000 NA
ATOM      4  C   UNL     1       2.493   7.909  18.474  0.00  0.00    +0.000 A 
ATOM      5  N   UNL     1       1.909   7.748  19.707  0.00  0.00    +0.000 N 
ATOM      6  N   UNL     1       2.017   6.445  20.075  0.00  0.00    +0.000 NA
ATOM      7  H   UNL     1       2.200   4.369  17.835  0.00  0.00    +0.000 HD
ENDROOT
BRANCH   5   8
ATOM      8  C   UNL     1       1.210   8.705  20.490  0.00  0.00    +0.000 A 
ATOM      9  C   UNL     1       0.545   9.785  19.891  0.00  0.00    +0.000 A 
ATOM     10  C   UNL     1      -0.166  10.695  20.681  0.00  0.00    +0.000 A 
ATOM     11  C   UNL     1      -0.216  10.535  22.065  0.00  0.00    +0.000 A 
ATOM     12  C   UNL     1       0.439   9.461  22.665  0.00  0.00    +0.000 A 
ATOM     13  C   UNL     1       1.149   8.546  21.883  0.00  0.00    +0.000 A 
ENDBRANCH   5   8
BRANCH   1  15
ATOM     14  O   UNL     1       4.166   3.303  20.248  0.00  0.00    +0.000 OA
ATOM     15  S   UNL     1       3.954   3.648  18.858  0.00  0.00    +0.000 S 
ATOM     16  O   UNL     1       3.860   2.621  17.844  0.00  0.00    +0.000 OA
BRANCH  15  17
ATOM     17  C   UNL     1       5.326   4.671  18.471  0.00  0.00    +0.000 A 
ATOM     18  C   UNL     1       6.247   5.242  19.341  0.00  0.00    +0.000 A 
ATOM     19  C   UNL     1       7.138   5.959  18.545  0.00  0.00    +0.000 A 
ATOM     20  N   UNL     1       6.831   5.874  17.256  0.00  0.00    +0.000 NA
ATOM     21  N   UNL     1       5.768   5.026  17.210  0.00  0.00    +0.000 N 
BRANCH  21  22
ATOM     22  C   UNL     1       5.245   4.606  15.920  0.00  0.00    +0.000 C 
ATOM     23  C   UNL     1       5.760   5.528  14.772  0.00  0.00    +0.000 C 
ATOM     24  C   UNL     1       6.115   4.277  13.956  0.00  0.00    +0.000 C 
ATOM     25  C   UNL     1       6.079   3.467  15.257  0.00  0.00    +0.000 C 
ENDBRANCH  21  22
ENDBRANCH  15  17
ENDBRANCH   1  15
TORSDOF 4
ENDMDL
MODEL 8
REMARK VINA RESULT:      -7.2      3.684      6.452
REMARK  Name = 
REMARK  4 active torsions:
REMARK  status: ('A' for Active; 'I' for Inactive)
REMARK    1  A    between atoms: S_2  and  N_4
REMARK    2  A    between atoms: S_2  and  C_16
REMARK    3  A    between atoms: N_8  and  C_9
REMARK    4  A    between atoms: N_20  and  C_21
REMARK                            x       y       z     vdW  Elec       q    Type
REMARK                         _______ _______ _______ _____ _____    ______ ____
ROOT
ATOM      1  N   UNL     1       7.311   5.880  15.958  0.00  0.00    +0.000 N 
ATOM      2  C   UNL     1       7.481   6.673  17.075  0.00  0.00    +0.000 A 
ATOM      3  N   UNL     1       7.879   6.145  18.262  0.00  0.00    +0.000 NA
ATOM      4  C   UNL     1       8.237   7.204  18.954  0.00  0.00    +0.000 A 
ATOM      5  N   UNL     1       8.144   8.332  18.177  0.00  0.00    +0.000 N 
ATOM      6  N   UNL     1       7.590   7.996  16.982  0.00  0.00    +0.000 NA
ATOM      7  H   UNL     1       7.986   5.119  16.018  0.00  0.00    +0.000 HD
ENDROOT
BRANCH   5   8
ATOM      8  C   UNL     1       8.604   9.646  18.459  0.00  0.00    +0.000 A 
ATOM      9  C   UNL     1       9.396   9.909  19.587  0.00  0.00    +0.000 A 
ATOM     10  C   UNL     1       9.868  11.204  19.825  0.00  0.00    +0.000 A 
ATOM     11  C   UNL     1       9.552  12.240  18.947  0.00  0.00    +0.000 A 
ATOM     12  C   UNL     1       8.769  11.983  17.822  0.00  0.00    +0.000 A 
ATOM     13  C   UNL     1       8.297  10.691  17.575  0.00  0.00    +0.000 A 
ENDBRANCH   5   8
BRANCH   1  15
ATOM     14  O   UNL     1       5.292   5.530  14.501  0.00  0.00    +0.000 OA
ATOM     15  S   UNL     1       5.847   5.077  15.759  0.00  0.00    +0.000 S 
ATOM     16  O   UNL     1       6.112   3.674  15.993  0.00  0.00    +0.000 OA
BRANCH  15  17
ATOM     17  C   UNL     1       4.672   5.614  16.947  0.00  0.00    +0.000 A 
ATOM     18  C   UNL     1       4.220   6.906  17.188  0.00  0.00    +0.000 A 
ATOM     19  C   UNL     1       3.294   6.804  18.225  0.00  0.00    +0.000 A 
ATOM     20  N   UNL     1       3.148   5.551  18.639  0.00  0.00    +0.000 NA
ATOM     21  N   UNL     1       3.937   4.819  17.806  0.00  0.00    +0.000 N 
BRANCH  21  22
ATOM     22  C   UNL     1       3.918   3.368  17.899  0.00  0.00    +0.000 C 
ATOM     23  C   UNL     1       3.667   2.897  19.364  0.00  0.00    +0.000 C 
ATOM     24  C   UNL     1       2.606   1.917  18.845  0.00  0.00    +0.000 C 
ATOM     25  C   UNL     1       2.530   2.745  17.556  0.00  0.00    +0.000 C 
ENDBRANCH  21  22
ENDBRANCH  15  17
ENDBRANCH   1  15
TORSDOF 4
ENDMDL
MODEL 9
REMARK VINA RESULT:      -7.2      4.275      8.503
REMARK  Name = 
REMARK  4 active torsions:
REMARK  status: ('A' for Active; 'I' for Inactive)
REMARK    1  A    between atoms: S_2  and  N_4
REMARK    2  A    between atoms: S_2  and  C_16
REMARK    3  A    between atoms: N_8  and  C_9
REMARK    4  A    between atoms: N_20  and  C_21
REMARK                            x       y       z     vdW  Elec       q    Type
REMARK                         _______ _______ _______ _____ _____    ______ ____
ROOT
ATOM      1  N   UNL     1       2.227   6.481  18.297  0.00  0.00    +0.000 N 
ATOM      2  C   UNL     1       2.104   7.756  18.811  0.00  0.00    +0.000 A 
ATOM      3  N   UNL     1       2.244   8.853  18.022  0.00  0.00    +0.000 NA
ATOM      4  C   UNL     1       1.747   9.818  18.763  0.00  0.00    +0.000 A 
ATOM      5  N   UNL     1       1.238   9.306  19.931  0.00  0.00    +0.000 N 
ATOM      6  N   UNL     1       1.531   7.980  19.991  0.00  0.00    +0.000 NA
ATOM      7  H   UNL     1       1.894   6.507  17.334  0.00  0.00    +0.000 HD
ENDROOT
BRANCH   5   8
ATOM      8  C   UNL     1       0.453   9.957  20.919  0.00  0.00    +0.000 A 
ATOM      9  C   UNL     1       0.148   9.325  22.134  0.00  0.00    +0.000 A 
ATOM     10  C   UNL     1      -0.598  10.000  23.107  0.00  0.00    +0.000 A 
ATOM     11  C   UNL     1      -1.043  11.300  22.874  0.00  0.00    +0.000 A 
ATOM     12  C   UNL     1      -0.739  11.934  21.671  0.00  0.00    +0.000 A 
ATOM     13  C   UNL     1       0.008  11.269  20.695  0.00  0.00    +0.000 A 
ENDBRANCH   5   8
BRANCH   1  15
ATOM     14  O   UNL     1       4.234   6.150  16.818  0.00  0.00    +0.000 OA
ATOM     15  S   UNL     1       3.767   5.820  18.149  0.00  0.00    +0.000 S 
ATOM     16  O   UNL     1       4.508   6.234  19.320  0.00  0.00    +0.000 OA
BRANCH  15  17
ATOM     17  C   UNL     1       3.698   4.067  18.140  0.00  0.00    +0.000 A 
ATOM     18  C   UNL     1       4.198   3.190  17.186  0.00  0.00    +0.000 A 
ATOM     19  C   UNL     1       3.891   1.908  17.639  0.00  0.00    +0.000 A 
ATOM     20  N   UNL     1       3.238   1.934  18.795  0.00  0.00    +0.000 NA
ATOM     21  N   UNL     1       3.187   3.251  19.133  0.00  0.00    +0.000 N 
BRANCH  21  22
ATOM     22  C   UNL     1       2.641   3.636  20.424  0.00  0.00    +0.000 C 
ATOM     23  C   UNL     1       1.094   3.442  20.466  0.00  0.00    +0.000 C 
ATOM     24  C   UNL     1       1.241   2.731  21.819  0.00  0.00    +0.000 C 
ATOM     25  C   UNL     1       2.722   2.501  21.491  0.00  0.00    +0.000 C 
ENDBRANCH  21  22
ENDBRANCH  15  17
ENDBRANCH   1  15
TORSDOF 4
ENDMDL
