MODEL 1
REMARK VINA RESULT:      -8.5      0.000      0.000
REMARK  Name = 
REMARK  5 active torsions:
REMARK  status: ('A' for Active; 'I' for Inactive)
REMARK    1  A    between atoms: C_1  and  C_2
REMARK    2  A    between atoms: N_16  and  C_17
REMARK    3  A    between atoms: C_22  and  C_23
REMARK    4  A    between atoms: N_25  and  C_26
REMARK    5  A    between atoms: C_26  and  C_27
REMARK                            x       y       z     vdW  Elec       q    Type
REMARK                         _______ _______ _______ _____ _____    ______ ____
ROOT
ATOM      1  C   UNL     1      -0.787   9.628  23.466  0.00  0.00    +0.000 C 
ATOM      2  C   UNL     1      -0.059  10.690  22.644  0.00  0.00    +0.000 C 
ATOM      3  C   UNL     1       0.612  10.087  21.434  0.00  0.00    +0.000 A 
ATOM      4  N   UNL     1       1.254   8.876  21.407  0.00  0.00    +0.000 N 
ATOM      5  C   UNL     1       1.587   8.548  20.112  0.00  0.00    +0.000 A 
ATOM      6  C   UNL     1       2.076   7.346  19.588  0.00  0.00    +0.000 A 
ATOM      7  C   UNL     1       2.319   7.291  18.214  0.00  0.00    +0.000 A 
ATOM      8  C   UNL     1       2.137   8.414  17.409  0.00  0.00    +0.000 A 
ATOM      9  C   UNL     1       1.641   9.607  17.947  0.00  0.00    +0.000 A 
ATOM     10  C   UNL     1       1.314   9.661  19.315  0.00  0.00    +0.000 A 
ATOM     11  C   UNL     1       0.641  10.600  20.146  0.00  0.00    +0.000 A 
ATOM     12  C   UNL     1      -0.092  11.851  19.777  0.00  0.00    +0.000 C 
ATOM     13  C   UNL     1      -0.470  12.619  21.048  0.00  0.00    +0.000 C 
ATOM     14  C   UNL     1      -1.692  13.506  20.865  0.00  0.00    +0.000 C 
ATOM     15  O   UNL     1      -1.732  14.456  20.088  0.00  0.00    +0.000 OA
ATOM     16  N   UNL     1      -2.692  13.061  21.704  0.00  0.00    +0.000 N 
ATOM     17  C   UNL     1      -2.182  12.128  22.573  0.00  0.00    +0.000 C 
ATOM     18  O   UNL     1      -2.732  11.700  23.576  0.00  0.00    +0.000 OA
ATOM     19  N   UNL     1      -0.940  11.738  22.113  0.00  0.00    +0.000 N 
ATOM     20  H   UNL     1       1.369   8.250  22.192  0.00  0.00    +0.000 HD
ENDROOT
BRANCH  16  21
ATOM     21  C   UNL     1      -3.890  13.765  21.978  0.00  0.00    +0.000 A 
ATOM     22  C   UNL     1      -3.773  14.908  22.801  0.00  0.00    +0.000 A 
ATOM     23  C   UNL     1      -4.896  15.637  23.215  0.00  0.00    +0.000 A 
ATOM     24  C   UNL     1      -6.155  15.260  22.780  0.00  0.00    +0.000 A 
ATOM     25  C   UNL     1      -6.286  14.150  21.950  0.00  0.00    +0.000 A 
ATOM     26  C   UNL     1      -5.175  13.369  21.540  0.00  0.00    +0.000 A 
BRANCH  26  27
ATOM     27  C   UNL     1      -5.565  12.255  20.600  0.00  0.00    +0.000 C 
ATOM     28  O   UNL     1      -6.384  11.413  20.979  0.00  0.00    +0.000 OA
ATOM     29  N   UNL     1      -5.044  12.180  19.339  0.00  0.00    +0.000 N 
ATOM     30  H   UNL     1      -4.298  12.784  19.043  0.00  0.00    +0.000 HD
BRANCH  29  31
ATOM     31  C   UNL     1      -5.358  11.057  18.474  0.00  0.00    +0.000 C 
BRANCH  31  32
ATOM     32  C   UNL     1      -4.213  10.830  17.528  0.00  0.00    +0.000 A 
ATOM     33  C   UNL     1      -4.351  11.111  16.164  0.00  0.00    +0.000 A 
ATOM     34  C   UNL     1      -3.371  10.701  15.265  0.00  0.00    +0.000 A 
ATOM     35  C   UNL     1      -2.242  10.022  15.721  0.00  0.00    +0.000 A 
ATOM     36  C   UNL     1      -2.065   9.799  17.085  0.00  0.00    +0.000 A 
ATOM     37  C   UNL     1      -3.046  10.203  17.986  0.00  0.00    +0.000 A 
ENDBRANCH  31  32
ENDBRANCH  29  31
ENDBRANCH  26  27
ENDBRANCH  16  21
TORSDOF 4
ENDMDL
MODEL 2
REMARK VINA RESULT:      -8.1      0.680      1.047
REMARK  Name = 
REMARK  5 active torsions:
REMARK  status: ('A' for Active; 'I' for Inactive)
REMARK    1  A    between atoms: C_1  and  C_2
REMARK    2  A    between atoms: N_16  and  C_17
REMARK    3  A    between atoms: C_22  and  C_23
REMARK    4  A    between atoms: N_25  and  C_26
REMARK    5  A    between atoms: C_26  and  C_27
REMARK                            x       y       z     vdW  Elec       q    Type
REMARK                         _______ _______ _______ _____ _____    ______ ____
ROOT
ATOM      1  C   UNL     1      -0.923   9.932  23.197  0.00  0.00    +0.000 C 
ATOM      2  C   UNL     1      -0.034  10.879  22.392  0.00  0.00    +0.000 C 
ATOM      3  C   UNL     1       0.670  10.155  21.271  0.00  0.00    +0.000 A 
ATOM      4  N   UNL     1       1.194   8.891  21.352  0.00  0.00    +0.000 N 
ATOM      5  C   UNL     1       1.595   8.466  20.105  0.00  0.00    +0.000 A 
ATOM      6  C   UNL     1       2.008   7.199  19.678  0.00  0.00    +0.000 A 
ATOM      7  C   UNL     1       2.353   7.051  18.333  0.00  0.00    +0.000 A 
ATOM      8  C   UNL     1       2.343   8.142  17.466  0.00  0.00    +0.000 A 
ATOM      9  C   UNL     1       1.922   9.402  17.907  0.00  0.00    +0.000 A 
ATOM     10  C   UNL     1       1.494   9.557  19.240  0.00  0.00    +0.000 A 
ATOM     11  C   UNL     1       0.850  10.595  19.968  0.00  0.00    +0.000 A 
ATOM     12  C   UNL     1       0.271  11.887  19.484  0.00  0.00    +0.000 C 
ATOM     13  C   UNL     1      -0.133  12.752  20.683  0.00  0.00    +0.000 C 
ATOM     14  C   UNL     1      -1.246  13.735  20.358  0.00  0.00    +0.000 C 
ATOM     15  O   UNL     1      -1.133  14.643  19.540  0.00  0.00    +0.000 OA
ATOM     16  N   UNL     1      -2.347  13.428  21.130  0.00  0.00    +0.000 N 
ATOM     17  C   UNL     1      -1.998  12.499  22.080  0.00  0.00    +0.000 C 
ATOM     18  O   UNL     1      -2.665  12.176  23.051  0.00  0.00    +0.000 OA
ATOM     19  N   UNL     1      -0.767  11.974  21.744  0.00  0.00    +0.000 N 
ATOM     20  H   UNL     1       1.186   8.299  22.171  0.00  0.00    +0.000 HD
ENDROOT
BRANCH  16  21
ATOM     21  C   UNL     1      -3.490  14.251  21.271  0.00  0.00    +0.000 A 
ATOM     22  C   UNL     1      -3.295  15.494  21.917  0.00  0.00    +0.000 A 
ATOM     23  C   UNL     1      -4.363  16.358  22.193  0.00  0.00    +0.000 A 
ATOM     24  C   UNL     1      -5.643  16.014  21.794  0.00  0.00    +0.000 A 
ATOM     25  C   UNL     1      -5.850  14.804  21.136  0.00  0.00    +0.000 A 
ATOM     26  C   UNL     1      -4.797  13.891  20.871  0.00  0.00    +0.000 A 
BRANCH  26  27
ATOM     27  C   UNL     1      -5.263  12.680  20.099  0.00  0.00    +0.000 C 
ATOM     28  O   UNL     1      -5.725  11.718  20.719  0.00  0.00    +0.000 OA
ATOM     29  N   UNL     1      -5.198  12.643  18.735  0.00  0.00    +0.000 N 
ATOM     30  H   UNL     1      -4.728  13.362  18.213  0.00  0.00    +0.000 HD
BRANCH  29  31
ATOM     31  C   UNL     1      -5.565  11.442  18.008  0.00  0.00    +0.000 C 
BRANCH  31  32
ATOM     32  C   UNL     1      -4.326  10.817  17.433  0.00  0.00    +0.000 A 
ATOM     33  C   UNL     1      -3.351  10.267  18.274  0.00  0.00    +0.000 A 
ATOM     34  C   UNL     1      -2.117   9.886  17.754  0.00  0.00    +0.000 A 
ATOM     35  C   UNL     1      -1.853  10.036  16.394  0.00  0.00    +0.000 A 
ATOM     36  C   UNL     1      -2.842  10.520  15.540  0.00  0.00    +0.000 A 
ATOM     37  C   UNL     1      -4.076  10.907  16.057  0.00  0.00    +0.000 A 
ENDBRANCH  31  32
ENDBRANCH  29  31
ENDBRANCH  26  27
ENDBRANCH  16  21
TORSDOF 4
ENDMDL
MODEL 3
REMARK VINA RESULT:      -7.9      4.964     10.114
REMARK  Name = 
REMARK  5 active torsions:
REMARK  status: ('A' for Active; 'I' for Inactive)
REMARK    1  A    between atoms: C_1  and  C_2
REMARK    2  A    between atoms: N_16  and  C_17
REMARK    3  A    between atoms: C_22  and  C_23
REMARK    4  A    between atoms: N_25  and  C_26
REMARK    5  A    between atoms: C_26  and  C_27
REMARK                            x       y       z     vdW  Elec       q    Type
REMARK                         _______ _______ _______ _____ _____    ______ ____
ROOT
ATOM      1  C   UNL     1       1.356   9.371  17.549  0.00  0.00    +0.000 C 
ATOM      2  C   UNL     1       1.912   9.169  18.957  0.00  0.00    +0.000 C 
ATOM      3  C   UNL     1       1.058   9.859  19.991  0.00  0.00    +0.000 A 
ATOM      4  N   UNL     1       0.463  11.085  19.836  0.00  0.00    +0.000 N 
ATOM      5  C   UNL     1      -0.390  11.331  20.889  0.00  0.00    +0.000 A 
ATOM      6  C   UNL     1      -1.333  12.351  21.060  0.00  0.00    +0.000 A 
ATOM      7  C   UNL     1      -2.079  12.350  22.241  0.00  0.00    +0.000 A 
ATOM      8  C   UNL     1      -1.845  11.402  23.235  0.00  0.00    +0.000 A 
ATOM      9  C   UNL     1      -0.902  10.384  23.046  0.00  0.00    +0.000 A 
ATOM     10  C   UNL     1      -0.196  10.319  21.830  0.00  0.00    +0.000 A 
ATOM     11  C   UNL     1       0.669   9.364  21.228  0.00  0.00    +0.000 A 
ATOM     12  C   UNL     1       1.022   7.979  21.669  0.00  0.00    +0.000 C 
ATOM     13  C   UNL     1       2.147   7.428  20.788  0.00  0.00    +0.000 C 
ATOM     14  C   UNL     1       2.154   5.910  20.711  0.00  0.00    +0.000 C 
ATOM     15  O   UNL     1       2.342   5.181  21.682  0.00  0.00    +0.000 OA
ATOM     16  N   UNL     1       1.926   5.531  19.405  0.00  0.00    +0.000 N 
ATOM     17  C   UNL     1       1.997   6.633  18.587  0.00  0.00    +0.000 C 
ATOM     18  O   UNL     1       2.062   6.622  17.368  0.00  0.00    +0.000 OA
ATOM     19  N   UNL     1       1.967   7.764  19.378  0.00  0.00    +0.000 N 
ATOM     20  H   UNL     1       0.536  11.679  19.022  0.00  0.00    +0.000 HD
ENDROOT
BRANCH  16  21
ATOM     21  C   UNL     1       2.083   4.215  18.905  0.00  0.00    +0.000 A 
ATOM     22  C   UNL     1       1.040   3.305  19.192  0.00  0.00    +0.000 A 
ATOM     23  C   UNL     1       1.119   1.954  18.829  0.00  0.00    +0.000 A 
ATOM     24  C   UNL     1       2.225   1.495  18.135  0.00  0.00    +0.000 A 
ATOM     25  C   UNL     1       3.252   2.383  17.824  0.00  0.00    +0.000 A 
ATOM     26  C   UNL     1       3.220   3.749  18.207  0.00  0.00    +0.000 A 
BRANCH  26  27
ATOM     27  C   UNL     1       4.419   4.518  17.706  0.00  0.00    +0.000 C 
ATOM     28  O   UNL     1       5.257   4.914  18.521  0.00  0.00    +0.000 OA
ATOM     29  N   UNL     1       4.596   4.761  16.374  0.00  0.00    +0.000 N 
ATOM     30  H   UNL     1       3.880   4.547  15.702  0.00  0.00    +0.000 HD
BRANCH  29  31
ATOM     31  C   UNL     1       5.704   5.576  15.910  0.00  0.00    +0.000 C 
BRANCH  31  32
ATOM     32  C   UNL     1       6.275   4.966  14.661  0.00  0.00    +0.000 A 
ATOM     33  C   UNL     1       7.451   5.472  14.096  0.00  0.00    +0.000 A 
ATOM     34  C   UNL     1       7.856   5.050  12.833  0.00  0.00    +0.000 A 
ATOM     35  C   UNL     1       7.100   4.112  12.132  0.00  0.00    +0.000 A 
ATOM     36  C   UNL     1       5.964   3.554  12.716  0.00  0.00    +0.000 A 
ATOM     37  C   UNL     1       5.554   3.978  13.977  0.00  0.00    +0.000 A 
ENDBRANCH  31  32
ENDBRANCH  29  31
ENDBRANCH  26  27
ENDBRANCH  16  21
TORSDOF 4
ENDMDL
MODEL 4
REMARK VINA RESULT:      -7.7      8.054     10.342
REMARK  Name = 
REMARK  5 active torsions:
REMARK  status: ('A' for Active; 'I' for Inactive)
REMARK    1  A    between atoms: C_1  and  C_2
REMARK    2  A    between atoms: N_16  and  C_17
REMARK    3  A    between atoms: C_22  and  C_23
REMARK    4  A    between atoms: N_25  and  C_26
REMARK    5  A    between atoms: C_26  and  C_27
REMARK                            x       y       z     vdW  Elec       q    Type
REMARK                         _______ _______ _______ _____ _____    ______ ____
ROOT
ATOM      1  C   UNL     1       8.593  17.768  19.441  0.00  0.00    +0.000 C 
ATOM      2  C   UNL     1       8.206  16.740  18.379  0.00  0.00    +0.000 C 
ATOM      3  C   UNL     1       9.087  15.517  18.448  0.00  0.00    +0.000 A 
ATOM      4  N   UNL     1      10.435  15.527  18.697  0.00  0.00    +0.000 N 
ATOM      5  C   UNL     1      10.891  14.240  18.875  0.00  0.00    +0.000 A 
ATOM      6  C   UNL     1      12.134  13.782  19.326  0.00  0.00    +0.000 A 
ATOM      7  C   UNL     1      12.319  12.401  19.419  0.00  0.00    +0.000 A 
ATOM      8  C   UNL     1      11.321  11.515  19.019  0.00  0.00    +0.000 A 
ATOM      9  C   UNL     1      10.080  11.989  18.577  0.00  0.00    +0.000 A 
ATOM     10  C   UNL     1       9.843  13.377  18.549  0.00  0.00    +0.000 A 
ATOM     11  C   UNL     1       8.695  14.191  18.345  0.00  0.00    +0.000 A 
ATOM     12  C   UNL     1       7.257  13.801  18.213  0.00  0.00    +0.000 C 
ATOM     13  C   UNL     1       6.427  15.023  17.807  0.00  0.00    +0.000 C 
ATOM     14  C   UNL     1       4.973  14.926  18.241  0.00  0.00    +0.000 C 
ATOM     15  O   UNL     1       4.198  14.066  17.831  0.00  0.00    +0.000 OA
ATOM     16  N   UNL     1       4.708  15.945  19.132  0.00  0.00    +0.000 N 
ATOM     17  C   UNL     1       5.761  16.825  19.151  0.00  0.00    +0.000 C 
ATOM     18  O   UNL     1       5.762  17.937  19.656  0.00  0.00    +0.000 OA
ATOM     19  N   UNL     1       6.834  16.234  18.515  0.00  0.00    +0.000 N 
ATOM     20  H   UNL     1      11.003  16.349  18.849  0.00  0.00    +0.000 HD
ENDROOT
BRANCH  16  21
ATOM     21  C   UNL     1       3.415  16.313  19.577  0.00  0.00    +0.000 A 
ATOM     22  C   UNL     1       2.565  16.907  18.616  0.00  0.00    +0.000 A 
ATOM     23  C   UNL     1       1.295  17.393  18.954  0.00  0.00    +0.000 A 
ATOM     24  C   UNL     1       0.834  17.258  20.252  0.00  0.00    +0.000 A 
ATOM     25  C   UNL     1       1.648  16.655  21.206  0.00  0.00    +0.000 A 
ATOM     26  C   UNL     1       2.952  16.182  20.906  0.00  0.00    +0.000 A 
BRANCH  26  27
ATOM     27  C   UNL     1       3.614  15.519  22.090  0.00  0.00    +0.000 C 
ATOM     28  O   UNL     1       3.294  15.871  23.228  0.00  0.00    +0.000 OA
ATOM     29  N   UNL     1       4.540  14.529  21.918  0.00  0.00    +0.000 N 
ATOM     30  H   UNL     1       4.898  14.299  21.008  0.00  0.00    +0.000 HD
BRANCH  29  31
ATOM     31  C   UNL     1       5.235  13.959  23.057  0.00  0.00    +0.000 C 
BRANCH  31  32
ATOM     32  C   UNL     1       6.616  13.545  22.635  0.00  0.00    +0.000 A 
ATOM     33  C   UNL     1       7.062  12.235  22.846  0.00  0.00    +0.000 A 
ATOM     34  C   UNL     1       8.403  11.916  22.653  0.00  0.00    +0.000 A 
ATOM     35  C   UNL     1       9.303  12.894  22.234  0.00  0.00    +0.000 A 
ATOM     36  C   UNL     1       8.853  14.184  21.957  0.00  0.00    +0.000 A 
ATOM     37  C   UNL     1       7.513  14.508  22.154  0.00  0.00    +0.000 A 
ENDBRANCH  31  32
ENDBRANCH  29  31
ENDBRANCH  26  27
ENDBRANCH  16  21
TORSDOF 4
ENDMDL
MODEL 5
REMARK VINA RESULT:      -7.4      1.972      3.542
REMARK  Name = 
REMARK  5 active torsions:
REMARK  status: ('A' for Active; 'I' for Inactive)
REMARK    1  A    between atoms: C_1  and  C_2
REMARK    2  A    between atoms: N_16  and  C_17
REMARK    3  A    between atoms: C_22  and  C_23
REMARK    4  A    between atoms: N_25  and  C_26
REMARK    5  A    between atoms: C_26  and  C_27
REMARK                            x       y       z     vdW  Elec       q    Type
REMARK                         _______ _______ _______ _____ _____    ______ ____
ROOT
ATOM      1  C   UNL     1      -0.366  13.354  18.224  0.00  0.00    +0.000 C 
ATOM      2  C   UNL     1      -1.089  12.207  18.928  0.00  0.00    +0.000 C 
ATOM      3  C   UNL     1      -0.256  10.949  18.933  0.00  0.00    +0.000 A 
ATOM      4  N   UNL     1       0.525  10.513  17.894  0.00  0.00    +0.000 N 
ATOM      5  C   UNL     1       1.290   9.442  18.297  0.00  0.00    +0.000 A 
ATOM      6  C   UNL     1       2.349   8.800  17.645  0.00  0.00    +0.000 A 
ATOM      7  C   UNL     1       2.959   7.730  18.303  0.00  0.00    +0.000 A 
ATOM      8  C   UNL     1       2.487   7.283  19.536  0.00  0.00    +0.000 A 
ATOM      9  C   UNL     1       1.430   7.940  20.178  0.00  0.00    +0.000 A 
ATOM     10  C   UNL     1       0.852   9.070  19.569  0.00  0.00    +0.000 A 
ATOM     11  C   UNL     1      -0.075  10.065  19.987  0.00  0.00    +0.000 A 
ATOM     12  C   UNL     1      -0.671  10.312  21.337  0.00  0.00    +0.000 C 
ATOM     13  C   UNL     1      -1.766  11.378  21.229  0.00  0.00    +0.000 C 
ATOM     14  C   UNL     1      -1.987  12.138  22.527  0.00  0.00    +0.000 C 
ATOM     15  O   UNL     1      -2.380  11.611  23.564  0.00  0.00    +0.000 OA
ATOM     16  N   UNL     1      -1.682  13.467  22.319  0.00  0.00    +0.000 N 
ATOM     17  C   UNL     1      -1.505  13.694  20.976  0.00  0.00    +0.000 C 
ATOM     18  O   UNL     1      -1.444  14.786  20.432  0.00  0.00    +0.000 OA
ATOM     19  N   UNL     1      -1.393  12.474  20.340  0.00  0.00    +0.000 N 
ATOM     20  H   UNL     1       0.625  10.969  16.998  0.00  0.00    +0.000 HD
ENDROOT
BRANCH  16  21
ATOM     21  C   UNL     1      -1.977  14.515  23.225  0.00  0.00    +0.000 A 
ATOM     22  C   UNL     1      -0.877  15.087  23.904  0.00  0.00    +0.000 A 
ATOM     23  C   UNL     1      -1.047  16.070  24.887  0.00  0.00    +0.000 A 
ATOM     24  C   UNL     1      -2.319  16.529  25.183  0.00  0.00    +0.000 A 
ATOM     25  C   UNL     1      -3.412  15.992  24.508  0.00  0.00    +0.000 A 
ATOM     26  C   UNL     1      -3.279  14.972  23.531  0.00  0.00    +0.000 A 
BRANCH  26  27
ATOM     27  C   UNL     1      -4.599  14.597  22.903  0.00  0.00    +0.000 C 
ATOM     28  O   UNL     1      -5.341  15.492  22.492  0.00  0.00    +0.000 OA
ATOM     29  N   UNL     1      -4.969  13.289  22.765  0.00  0.00    +0.000 N 
ATOM     30  H   UNL     1      -4.438  12.546  23.186  0.00  0.00    +0.000 HD
BRANCH  29  31
ATOM     31  C   UNL     1      -6.276  12.940  22.241  0.00  0.00    +0.000 C 
BRANCH  31  32
ATOM     32  C   UNL     1      -6.115  12.353  20.868  0.00  0.00    +0.000 A 
ATOM     33  C   UNL     1      -7.000  11.371  20.405  0.00  0.00    +0.000 A 
ATOM     34  C   UNL     1      -6.722  10.682  19.228  0.00  0.00    +0.000 A 
ATOM     35  C   UNL     1      -5.572  10.976  18.498  0.00  0.00    +0.000 A 
ATOM     36  C   UNL     1      -4.722  11.998  18.916  0.00  0.00    +0.000 A 
ATOM     37  C   UNL     1      -4.994  12.686  20.095  0.00  0.00    +0.000 A 
ENDBRANCH  31  32
ENDBRANCH  29  31
ENDBRANCH  26  27
ENDBRANCH  16  21
TORSDOF 4
ENDMDL
MODEL 6
REMARK VINA RESULT:      -7.3      0.904      1.205
REMARK  Name = 
REMARK  5 active torsions:
REMARK  status: ('A' for Active; 'I' for Inactive)
REMARK    1  A    between atoms: C_1  and  C_2
REMARK    2  A    between atoms: N_16  and  C_17
REMARK    3  A    between atoms: C_22  and  C_23
REMARK    4  A    between atoms: N_25  and  C_26
REMARK    5  A    between atoms: C_26  and  C_27
REMARK                            x       y       z     vdW  Elec       q    Type
REMARK                         _______ _______ _______ _____ _____    ______ ____
ROOT
ATOM      1  C   UNL     1      -1.043   9.778  23.435  0.00  0.00    +0.000 C 
ATOM      2  C   UNL     1      -0.404  10.914  22.638  0.00  0.00    +0.000 C 
ATOM      3  C   UNL     1       0.322  10.395  21.422  0.00  0.00    +0.000 A 
ATOM      4  N   UNL     1       1.065   9.244  21.376  0.00  0.00    +0.000 N 
ATOM      5  C   UNL     1       1.432   8.970  20.077  0.00  0.00    +0.000 A 
ATOM      6  C   UNL     1       2.025   7.825  19.534  0.00  0.00    +0.000 A 
ATOM      7  C   UNL     1       2.279   7.818  18.161  0.00  0.00    +0.000 A 
ATOM      8  C   UNL     1       2.006   8.937  17.376  0.00  0.00    +0.000 A 
ATOM      9  C   UNL     1       1.406  10.072  17.933  0.00  0.00    +0.000 A 
ATOM     10  C   UNL     1       1.069  10.071  19.300  0.00  0.00    +0.000 A 
ATOM     11  C   UNL     1       0.314  10.933  20.143  0.00  0.00    +0.000 A 
ATOM     12  C   UNL     1      -0.522  12.123  19.794  0.00  0.00    +0.000 C 
ATOM     13  C   UNL     1      -0.972  12.832  21.076  0.00  0.00    +0.000 C 
ATOM     14  C   UNL     1      -2.264  13.613  20.902  0.00  0.00    +0.000 C 
ATOM     15  O   UNL     1      -2.381  14.572  20.143  0.00  0.00    +0.000 OA
ATOM     16  N   UNL     1      -3.226  13.069  21.726  0.00  0.00    +0.000 N 
ATOM     17  C   UNL     1      -2.642  12.166  22.581  0.00  0.00    +0.000 C 
ATOM     18  O   UNL     1      -3.159  11.673  23.572  0.00  0.00    +0.000 OA
ATOM     19  N   UNL     1      -1.369  11.893  22.122  0.00  0.00    +0.000 N 
ATOM     20  H   UNL     1       1.230   8.615  22.150  0.00  0.00    +0.000 HD
ENDROOT
BRANCH  16  21
ATOM     21  C   UNL     1      -4.481  13.662  22.005  0.00  0.00    +0.000 A 
ATOM     22  C   UNL     1      -4.655  14.183  23.308  0.00  0.00    +0.000 A 
ATOM     23  C   UNL     1      -5.879  14.716  23.733  0.00  0.00    +0.000 A 
ATOM     24  C   UNL     1      -6.943  14.774  22.849  0.00  0.00    +0.000 A 
ATOM     25  C   UNL     1      -6.783  14.286  21.555  0.00  0.00    +0.000 A 
ATOM     26  C   UNL     1      -5.569  13.709  21.103  0.00  0.00    +0.000 A 
BRANCH  26  27
ATOM     27  C   UNL     1      -5.625  13.306  19.649  0.00  0.00    +0.000 C 
ATOM     28  O   UNL     1      -5.681  14.187  18.787  0.00  0.00    +0.000 OA
ATOM     29  N   UNL     1      -5.596  11.991  19.279  0.00  0.00    +0.000 N 
ATOM     30  H   UNL     1      -5.661  11.254  19.958  0.00  0.00    +0.000 HD
BRANCH  29  31
ATOM     31  C   UNL     1      -5.739  11.611  17.886  0.00  0.00    +0.000 C 
BRANCH  31  32
ATOM     32  C   UNL     1      -4.482  10.927  17.430  0.00  0.00    +0.000 A 
ATOM     33  C   UNL     1      -3.652  10.275  18.351  0.00  0.00    +0.000 A 
ATOM     34  C   UNL     1      -2.392   9.832  17.962  0.00  0.00    +0.000 A 
ATOM     35  C   UNL     1      -1.956  10.022  16.652  0.00  0.00    +0.000 A 
ATOM     36  C   UNL     1      -2.802  10.609  15.713  0.00  0.00    +0.000 A 
ATOM     37  C   UNL     1      -4.062  11.058  16.100  0.00  0.00    +0.000 A 
ENDBRANCH  31  32
ENDBRANCH  29  31
ENDBRANCH  26  27
ENDBRANCH  16  21
TORSDOF 4
ENDMDL
MODEL 7
REMARK VINA RESULT:      -7.3      2.617      4.383
REMARK  Name = 
REMARK  5 active torsions:
REMARK  status: ('A' for Active; 'I' for Inactive)
REMARK    1  A    between atoms: C_1  and  C_2
REMARK    2  A    between atoms: N_16  and  C_17
REMARK    3  A    between atoms: C_22  and  C_23
REMARK    4  A    between atoms: N_25  and  C_26
REMARK    5  A    between atoms: C_26  and  C_27
REMARK                            x       y       z     vdW  Elec       q    Type
REMARK                         _______ _______ _______ _____ _____    ______ ____
ROOT
ATOM      1  C   UNL     1      -0.120   9.469  23.212  0.00  0.00    +0.000 C 
ATOM      2  C   UNL     1       0.665  10.160  22.099  0.00  0.00    +0.000 C 
ATOM      3  C   UNL     1       1.234   9.161  21.122  0.00  0.00    +0.000 A 
ATOM      4  N   UNL     1       1.767   7.943  21.457  0.00  0.00    +0.000 N 
ATOM      5  C   UNL     1       2.019   7.210  20.319  0.00  0.00    +0.000 A 
ATOM      6  C   UNL     1       2.382   5.866  20.179  0.00  0.00    +0.000 A 
ATOM      7  C   UNL     1       2.566   5.377  18.884  0.00  0.00    +0.000 A 
ATOM      8  C   UNL     1       2.451   6.217  17.778  0.00  0.00    +0.000 A 
ATOM      9  C   UNL     1       2.080   7.559  17.934  0.00  0.00    +0.000 A 
ATOM     10  C   UNL     1       1.813   8.052  19.225  0.00  0.00    +0.000 A 
ATOM     11  C   UNL     1       1.257   9.257  19.738  0.00  0.00    +0.000 A 
ATOM     12  C   UNL     1       0.621  10.402  19.016  0.00  0.00    +0.000 C 
ATOM     13  C   UNL     1       0.360  11.549  19.997  0.00  0.00    +0.000 C 
ATOM     14  C   UNL     1      -0.787  12.450  19.567  0.00  0.00    +0.000 C 
ATOM     15  O   UNL     1      -0.774  13.122  18.539  0.00  0.00    +0.000 OA
ATOM     16  N   UNL     1      -1.787  12.375  20.513  0.00  0.00    +0.000 N 
ATOM     17  C   UNL     1      -1.326  11.704  21.619  0.00  0.00    +0.000 C 
ATOM     18  O   UNL     1      -1.872  11.652  22.710  0.00  0.00    +0.000 OA
ATOM     19  N   UNL     1      -0.142  11.078  21.285  0.00  0.00    +0.000 N 
ATOM     20  H   UNL     1       1.858   7.575  22.393  0.00  0.00    +0.000 HD
ENDROOT
BRANCH  16  21
ATOM     21  C   UNL     1      -2.909  13.238  20.574  0.00  0.00    +0.000 A 
ATOM     22  C   UNL     1      -4.175  12.639  20.385  0.00  0.00    +0.000 A 
ATOM     23  C   UNL     1      -5.351  13.398  20.336  0.00  0.00    +0.000 A 
ATOM     24  C   UNL     1      -5.289  14.769  20.514  0.00  0.00    +0.000 A 
ATOM     25  C   UNL     1      -4.053  15.374  20.724  0.00  0.00    +0.000 A 
ATOM     26  C   UNL     1      -2.839  14.640  20.746  0.00  0.00    +0.000 A 
BRANCH  26  27
ATOM     27  C   UNL     1      -1.642  15.509  21.045  0.00  0.00    +0.000 C 
ATOM     28  O   UNL     1      -1.582  16.088  22.133  0.00  0.00    +0.000 OA
ATOM     29  N   UNL     1      -0.624  15.646  20.144  0.00  0.00    +0.000 N 
ATOM     30  H   UNL     1      -0.697  15.277  19.212  0.00  0.00    +0.000 HD
BRANCH  29  31
ATOM     31  C   UNL     1       0.479  16.552  20.403  0.00  0.00    +0.000 C 
BRANCH  31  32
ATOM     32  C   UNL     1       1.600  16.248  19.452  0.00  0.00    +0.000 A 
ATOM     33  C   UNL     1       2.043  17.215  18.541  0.00  0.00    +0.000 A 
ATOM     34  C   UNL     1       2.927  16.863  17.525  0.00  0.00    +0.000 A 
ATOM     35  C   UNL     1       3.387  15.551  17.420  0.00  0.00    +0.000 A 
ATOM     36  C   UNL     1       3.004  14.599  18.362  0.00  0.00    +0.000 A 
ATOM     37  C   UNL     1       2.116  14.947  19.377  0.00  0.00    +0.000 A 
ENDBRANCH  31  32
ENDBRANCH  29  31
ENDBRANCH  26  27
ENDBRANCH  16  21
TORSDOF 4
ENDMDL
MODEL 8
REMARK VINA RESULT:      -7.2      1.959      3.552
REMARK  Name = 
REMARK  5 active torsions:
REMARK  status: ('A' for Active; 'I' for Inactive)
REMARK    1  A    between atoms: C_1  and  C_2
REMARK    2  A    between atoms: N_16  and  C_17
REMARK    3  A    between atoms: C_22  and  C_23
REMARK    4  A    between atoms: N_25  and  C_26
REMARK    5  A    between atoms: C_26  and  C_27
REMARK                            x       y       z     vdW  Elec       q    Type
REMARK                         _______ _______ _______ _____ _____    ______ ____
ROOT
ATOM      1  C   UNL     1      -0.734  13.129  18.204  0.00  0.00    +0.000 C 
ATOM      2  C   UNL     1      -1.308  11.947  18.982  0.00  0.00    +0.000 C 
ATOM      3  C   UNL     1      -0.388  10.753  18.932  0.00  0.00    +0.000 A 
ATOM      4  N   UNL     1       0.331  10.355  17.834  0.00  0.00    +0.000 N 
ATOM      5  C   UNL     1       1.205   9.349  18.183  0.00  0.00    +0.000 A 
ATOM      6  C   UNL     1       2.248   8.773  17.450  0.00  0.00    +0.000 A 
ATOM      7  C   UNL     1       2.989   7.762  18.066  0.00  0.00    +0.000 A 
ATOM      8  C   UNL     1       2.659   7.306  19.340  0.00  0.00    +0.000 A 
ATOM      9  C   UNL     1       1.615   7.897  20.063  0.00  0.00    +0.000 A 
ATOM     10  C   UNL     1       0.906   8.971  19.493  0.00  0.00    +0.000 A 
ATOM     11  C   UNL     1      -0.053   9.904  19.977  0.00  0.00    +0.000 A 
ATOM     12  C   UNL     1      -0.548  10.134  21.369  0.00  0.00    +0.000 C 
ATOM     13  C   UNL     1      -1.724  11.115  21.343  0.00  0.00    +0.000 C 
ATOM     14  C   UNL     1      -1.888  11.882  22.646  0.00  0.00    +0.000 C 
ATOM     15  O   UNL     1      -2.151  11.348  23.720  0.00  0.00    +0.000 OA
ATOM     16  N   UNL     1      -1.700  13.225  22.396  0.00  0.00    +0.000 N 
ATOM     17  C   UNL     1      -1.656  13.439  21.040  0.00  0.00    +0.000 C 
ATOM     18  O   UNL     1      -1.721  14.521  20.479  0.00  0.00    +0.000 OA
ATOM     19  N   UNL     1      -1.509  12.219  20.411  0.00  0.00    +0.000 N 
ATOM     20  H   UNL     1       0.320  10.799  16.927  0.00  0.00    +0.000 HD
ENDROOT
BRANCH  16  21
ATOM     21  C   UNL     1      -1.993  14.266  23.310  0.00  0.00    +0.000 A 
ATOM     22  C   UNL     1      -0.891  15.013  23.787  0.00  0.00    +0.000 A 
ATOM     23  C   UNL     1      -1.040  16.010  24.759  0.00  0.00    +0.000 A 
ATOM     24  C   UNL     1      -2.301  16.308  25.246  0.00  0.00    +0.000 A 
ATOM     25  C   UNL     1      -3.401  15.598  24.771  0.00  0.00    +0.000 A 
ATOM     26  C   UNL     1      -3.281  14.559  23.812  0.00  0.00    +0.000 A 
BRANCH  26  27
ATOM     27  C   UNL     1      -4.618  13.980  23.416  0.00  0.00    +0.000 C 
ATOM     28  O   UNL     1      -5.198  13.226  24.201  0.00  0.00    +0.000 OA
ATOM     29  N   UNL     1      -5.197  14.295  22.219  0.00  0.00    +0.000 N 
ATOM     30  H   UNL     1      -4.701  14.816  21.518  0.00  0.00    +0.000 HD
BRANCH  29  31
ATOM     31  C   UNL     1      -6.439  13.666  21.809  0.00  0.00    +0.000 C 
BRANCH  31  32
ATOM     32  C   UNL     1      -6.140  12.610  20.783  0.00  0.00    +0.000 A 
ATOM     33  C   UNL     1      -5.087  12.778  19.875  0.00  0.00    +0.000 A 
ATOM     34  C   UNL     1      -4.950  11.907  18.798  0.00  0.00    +0.000 A 
ATOM     35  C   UNL     1      -5.851  10.857  18.626  0.00  0.00    +0.000 A 
ATOM     36  C   UNL     1      -6.861  10.644  19.562  0.00  0.00    +0.000 A 
ATOM     37  C   UNL     1      -7.004  11.516  20.638  0.00  0.00    +0.000 A 
ENDBRANCH  31  32
ENDBRANCH  29  31
ENDBRANCH  26  27
ENDBRANCH  16  21
TORSDOF 4
ENDMDL
MODEL 9
REMARK VINA RESULT:      -7.1      2.929      4.469
REMARK  Name = 
REMARK  5 active torsions:
REMARK  status: ('A' for Active; 'I' for Inactive)
REMARK    1  A    between atoms: C_1  and  C_2
REMARK    2  A    between atoms: N_16  and  C_17
REMARK    3  A    between atoms: C_22  and  C_23
REMARK    4  A    between atoms: N_25  and  C_26
REMARK    5  A    between atoms: C_26  and  C_27
REMARK                            x       y       z     vdW  Elec       q    Type
REMARK                         _______ _______ _______ _____ _____    ______ ____
ROOT
ATOM      1  C   UNL     1      -0.346   9.536  23.238  0.00  0.00    +0.000 C 
ATOM      2  C   UNL     1       0.450  10.283  22.170  0.00  0.00    +0.000 C 
ATOM      3  C   UNL     1       1.074   9.331  21.179  0.00  0.00    +0.000 A 
ATOM      4  N   UNL     1       1.631   8.118  21.492  0.00  0.00    +0.000 N 
ATOM      5  C   UNL     1       1.936   7.428  20.340  0.00  0.00    +0.000 A 
ATOM      6  C   UNL     1       2.340   6.099  20.170  0.00  0.00    +0.000 A 
ATOM      7  C   UNL     1       2.574   5.656  18.866  0.00  0.00    +0.000 A 
ATOM      8  C   UNL     1       2.466   6.527  17.784  0.00  0.00    +0.000 A 
ATOM      9  C   UNL     1       2.054   7.852  17.970  0.00  0.00    +0.000 A 
ATOM     10  C   UNL     1       1.736   8.298  19.267  0.00  0.00    +0.000 A 
ATOM     11  C   UNL     1       1.133   9.470  19.800  0.00  0.00    +0.000 A 
ATOM     12  C   UNL     1       0.485  10.619  19.095  0.00  0.00    +0.000 C 
ATOM     13  C   UNL     1       0.165  11.728  20.103  0.00  0.00    +0.000 C 
ATOM     14  C   UNL     1      -0.994  12.610  19.667  0.00  0.00    +0.000 C 
ATOM     15  O   UNL     1      -0.972  13.314  18.661  0.00  0.00    +0.000 OA
ATOM     16  N   UNL     1      -2.019  12.479  20.581  0.00  0.00    +0.000 N 
ATOM     17  C   UNL     1      -1.570  11.786  21.679  0.00  0.00    +0.000 C 
ATOM     18  O   UNL     1      -2.144  11.685  22.752  0.00  0.00    +0.000 OA
ATOM     19  N   UNL     1      -0.360  11.204  21.361  0.00  0.00    +0.000 N 
ATOM     20  H   UNL     1       1.706   7.723  22.419  0.00  0.00    +0.000 HD
ENDROOT
BRANCH  16  21
ATOM     21  C   UNL     1      -3.165  13.309  20.636  0.00  0.00    +0.000 A 
ATOM     22  C   UNL     1      -4.414  12.667  20.473  0.00  0.00    +0.000 A 
ATOM     23  C   UNL     1      -5.613  13.389  20.420  0.00  0.00    +0.000 A 
ATOM     24  C   UNL     1      -5.591  14.765  20.569  0.00  0.00    +0.000 A 
ATOM     25  C   UNL     1      -4.372  15.412  20.753  0.00  0.00    +0.000 A 
ATOM     26  C   UNL     1      -3.136  14.715  20.778  0.00  0.00    +0.000 A 
BRANCH  26  27
ATOM     27  C   UNL     1      -1.963  15.626  21.046  0.00  0.00    +0.000 C 
ATOM     28  O   UNL     1      -1.341  15.503  22.104  0.00  0.00    +0.000 OA
ATOM     29  N   UNL     1      -1.573  16.564  20.132  0.00  0.00    +0.000 N 
ATOM     30  H   UNL     1      -2.123  16.760  19.315  0.00  0.00    +0.000 HD
BRANCH  29  31
ATOM     31  C   UNL     1      -0.501  17.494  20.436  0.00  0.00    +0.000 C 
BRANCH  31  32
ATOM     32  C   UNL     1       0.273  17.780  19.180  0.00  0.00    +0.000 A 
ATOM     33  C   UNL     1      -0.300  18.531  18.147  0.00  0.00    +0.000 A 
ATOM     34  C   UNL     1       0.332  18.612  16.910  0.00  0.00    +0.000 A 
ATOM     35  C   UNL     1       1.545  17.958  16.699  0.00  0.00    +0.000 A 
ATOM     36  C   UNL     1       2.155  17.264  17.743  0.00  0.00    +0.000 A 
ATOM     37  C   UNL     1       1.522  17.178  18.980  0.00  0.00    +0.000 A 
ENDBRANCH  31  32
ENDBRANCH  29  31
ENDBRANCH  26  27
ENDBRANCH  16  21
TORSDOF 4
ENDMDL
