MODEL 1
REMARK VINA RESULT:      -7.1      0.000      0.000
REMARK  Name = 
REMARK  8 active torsions:
REMARK  status: ('A' for Active; 'I' for Inactive)
REMARK    1  A    between atoms: C_2  and  C_3
REMARK    2  A    between atoms: N_5  and  C_6
REMARK    3  A    between atoms: C_6  and  C_7
REMARK    4  A    between atoms: C_7  and  C_8
REMARK    5  A    between atoms: C_8  and  N_9
REMARK    6  A    between atoms: N_9  and  O_10
REMARK    7  A    between atoms: C_11  and  C_13
REMARK    8  A    between atoms: C_14  and  C_15
REMARK                            x       y       z     vdW  Elec       q    Type
REMARK                         _______ _______ _______ _____ _____    ______ ____
ROOT
ATOM      1  N   UNL     1       7.368   6.224  18.480  0.00  0.00    +0.000 N 
ATOM      2  C   UNL     1       7.463   7.328  17.661  0.00  0.00    +0.000 C 
ATOM      3  O   UNL     1       6.782   7.459  16.638  0.00  0.00    +0.000 OA
ENDROOT
BRANCH   1   4
ATOM      4  O   UNL     1       8.284   6.073  19.540  0.00  0.00    +0.000 OA
ATOM      5  H   UNL     1       8.777   6.911  19.581  0.00  0.00    +0.000 HD
ENDBRANCH   1   4
BRANCH   2   6
ATOM      6  C   UNL     1       8.428   8.392  18.074  0.00  0.00    +0.000 C 
ATOM      7  C   UNL     1       8.066   9.686  18.058  0.00  0.00    +0.000 C 
BRANCH   7   8
ATOM      8  C   UNL     1       8.960  10.777  18.481  0.00  0.00    +0.000 A 
ATOM      9  C   UNL     1      10.011  10.492  19.365  0.00  0.00    +0.000 A 
ATOM     10  C   UNL     1      10.889  11.500  19.783  0.00  0.00    +0.000 A 
ATOM     11  C   UNL     1      10.725  12.802  19.318  0.00  0.00    +0.000 A 
ATOM     12 CL   UNL     1      11.799  14.040  19.838  0.00  0.00    +0.000 Cl
ATOM     13  C   UNL     1       9.695  13.105  18.433  0.00  0.00    +0.000 A 
ATOM     14  C   UNL     1       8.814  12.098  18.018  0.00  0.00    +0.000 A 
ATOM     15 CL   UNL     1       7.561  12.543  16.913  0.00  0.00    +0.000 Cl
ENDBRANCH   7   8
ENDBRANCH   2   6
BRANCH   1  16
ATOM     16  C   UNL     1       6.434   5.112  18.251  0.00  0.00    +0.000 C 
BRANCH  16  17
ATOM     17  C   UNL     1       5.466   4.841  19.413  0.00  0.00    +0.000 C 
BRANCH  17  18
ATOM     18  C   UNL     1       4.113   5.519  19.215  0.00  0.00    +0.000 C 
BRANCH  18  21
ATOM     19  C   UNL     1       2.060   4.415  19.994  0.00  0.00    +0.000 C 
ATOM     20  O   UNL     1       2.019   5.074  21.028  0.00  0.00    +0.000 OA
ATOM     21  N   UNL     1       3.034   4.558  19.043  0.00  0.00    +0.000 N 
ATOM     22  H   UNL     1       3.009   4.005  18.196  0.00  0.00    +0.000 HD
BRANCH  19  24
ATOM     23  C   UNL     1       1.215   2.591  18.603  0.00  0.00    +0.000 C 
ATOM     24  C   UNL     1       1.037   3.386  19.669  0.00  0.00    +0.000 C 
ENDBRANCH  19  24
ENDBRANCH  18  21
ENDBRANCH  17  18
ENDBRANCH  16  17
ENDBRANCH   1  16
TORSDOF 8
ENDMDL
MODEL 2
REMARK VINA RESULT:      -7.1      6.494      8.700
REMARK  Name = 
REMARK  8 active torsions:
REMARK  status: ('A' for Active; 'I' for Inactive)
REMARK    1  A    between atoms: C_2  and  C_3
REMARK    2  A    between atoms: N_5  and  C_6
REMARK    3  A    between atoms: C_6  and  C_7
REMARK    4  A    between atoms: C_7  and  C_8
REMARK    5  A    between atoms: C_8  and  N_9
REMARK    6  A    between atoms: N_9  and  O_10
REMARK    7  A    between atoms: C_11  and  C_13
REMARK    8  A    between atoms: C_14  and  C_15
REMARK                            x       y       z     vdW  Elec       q    Type
REMARK                         _______ _______ _______ _____ _____    ______ ____
ROOT
ATOM      1  N   UNL     1       1.316  10.000  18.756  0.00  0.00    +0.000 N 
ATOM      2  C   UNL     1       1.736   8.733  19.100  0.00  0.00    +0.000 C 
ATOM      3  O   UNL     1       1.484   8.224  20.198  0.00  0.00    +0.000 OA
ENDROOT
BRANCH   1   4
ATOM      4  O   UNL     1       1.772  10.572  17.551  0.00  0.00    +0.000 OA
ATOM      5  H   UNL     1       0.971  10.848  17.074  0.00  0.00    +0.000 HD
ENDBRANCH   1   4
BRANCH   2   6
ATOM      6  C   UNL     1       2.508   7.977  18.068  0.00  0.00    +0.000 C 
ATOM      7  C   UNL     1       3.158   6.847  18.395  0.00  0.00    +0.000 C 
BRANCH   7   8
ATOM      8  C   UNL     1       3.910   6.040  17.419  0.00  0.00    +0.000 A 
ATOM      9  C   UNL     1       4.753   6.688  16.504  0.00  0.00    +0.000 A 
ATOM     10  C   UNL     1       5.494   5.956  15.568  0.00  0.00    +0.000 A 
ATOM     11  C   UNL     1       5.400   4.567  15.541  0.00  0.00    +0.000 A 
ATOM     12 CL   UNL     1       6.303   3.670  14.385  0.00  0.00    +0.000 Cl
ATOM     13  C   UNL     1       4.578   3.903  16.445  0.00  0.00    +0.000 A 
ATOM     14  C   UNL     1       3.834   4.635  17.379  0.00  0.00    +0.000 A 
ATOM     15 CL   UNL     1       2.838   3.745  18.477  0.00  0.00    +0.000 Cl
ENDBRANCH   7   8
ENDBRANCH   2   6
BRANCH   1  16
ATOM     16  C   UNL     1       0.505  10.860  19.629  0.00  0.00    +0.000 C 
BRANCH  16  17
ATOM     17  C   UNL     1      -0.989  10.904  19.273  0.00  0.00    +0.000 C 
BRANCH  17  18
ATOM     18  C   UNL     1      -1.349  12.113  18.414  0.00  0.00    +0.000 C 
BRANCH  18  21
ATOM     19  C   UNL     1      -3.098  11.349  16.865  0.00  0.00    +0.000 C 
ATOM     20  O   UNL     1      -3.953  11.313  17.744  0.00  0.00    +0.000 OA
ATOM     21  N   UNL     1      -1.802  11.730  17.085  0.00  0.00    +0.000 N 
ATOM     22  H   UNL     1      -1.140  11.765  16.320  0.00  0.00    +0.000 HD
BRANCH  19  24
ATOM     23  C   UNL     1      -2.879   9.855  14.943  0.00  0.00    +0.000 C 
ATOM     24  C   UNL     1      -3.395  10.983  15.454  0.00  0.00    +0.000 C 
ENDBRANCH  19  24
ENDBRANCH  18  21
ENDBRANCH  17  18
ENDBRANCH  16  17
ENDBRANCH   1  16
TORSDOF 8
ENDMDL
MODEL 3
REMARK VINA RESULT:      -7.0      0.966      1.008
REMARK  Name = 
REMARK  8 active torsions:
REMARK  status: ('A' for Active; 'I' for Inactive)
REMARK    1  A    between atoms: C_2  and  C_3
REMARK    2  A    between atoms: N_5  and  C_6
REMARK    3  A    between atoms: C_6  and  C_7
REMARK    4  A    between atoms: C_7  and  C_8
REMARK    5  A    between atoms: C_8  and  N_9
REMARK    6  A    between atoms: N_9  and  O_10
REMARK    7  A    between atoms: C_11  and  C_13
REMARK    8  A    between atoms: C_14  and  C_15
REMARK                            x       y       z     vdW  Elec       q    Type
REMARK                         _______ _______ _______ _____ _____    ______ ____
ROOT
ATOM      1  N   UNL     1       7.740   6.140  18.554  0.00  0.00    +0.000 N 
ATOM      2  C   UNL     1       7.807   7.342  17.884  0.00  0.00    +0.000 C 
ATOM      3  O   UNL     1       7.436   7.471  16.712  0.00  0.00    +0.000 OA
ENDROOT
BRANCH   1   4
ATOM      4  O   UNL     1       8.323   6.032  19.832  0.00  0.00    +0.000 OA
ATOM      5  H   UNL     1       8.389   6.942  20.167  0.00  0.00    +0.000 HD
ENDBRANCH   1   4
BRANCH   2   6
ATOM      6  C   UNL     1       8.340   8.510  18.648  0.00  0.00    +0.000 C 
ATOM      7  C   UNL     1       8.657   9.652  18.015  0.00  0.00    +0.000 C 
BRANCH   7   8
ATOM      8  C   UNL     1       9.158  10.848  18.715  0.00  0.00    +0.000 A 
ATOM      9  C   UNL     1      10.049  10.687  19.786  0.00  0.00    +0.000 A 
ATOM     10  C   UNL     1      10.557  11.799  20.470  0.00  0.00    +0.000 A 
ATOM     11  C   UNL     1      10.179  13.083  20.085  0.00  0.00    +0.000 A 
ATOM     12 CL   UNL     1      10.796  14.447  20.930  0.00  0.00    +0.000 Cl
ATOM     13  C   UNL     1       9.305  13.266  19.019  0.00  0.00    +0.000 A 
ATOM     14  C   UNL     1       8.794  12.154  18.337  0.00  0.00    +0.000 A 
ATOM     15 CL   UNL     1       7.717  12.454  17.018  0.00  0.00    +0.000 Cl
ENDBRANCH   7   8
ENDBRANCH   2   6
BRANCH   1  16
ATOM     16  C   UNL     1       7.195   4.905  17.971  0.00  0.00    +0.000 C 
BRANCH  16  17
ATOM     17  C   UNL     1       5.663   4.877  17.850  0.00  0.00    +0.000 C 
BRANCH  17  18
ATOM     18  C   UNL     1       5.002   4.100  18.984  0.00  0.00    +0.000 C 
BRANCH  18  21
ATOM     19  C   UNL     1       2.565   4.272  18.711  0.00  0.00    +0.000 C 
ATOM     20  O   UNL     1       2.533   5.423  19.133  0.00  0.00    +0.000 OA
ATOM     21  N   UNL     1       3.716   3.541  18.594  0.00  0.00    +0.000 N 
ATOM     22  H   UNL     1       3.692   2.601  18.218  0.00  0.00    +0.000 HD
BRANCH  19  24
ATOM     23  C   UNL     1       1.044   2.362  18.821  0.00  0.00    +0.000 C 
ATOM     24  C   UNL     1       1.338   3.552  18.277  0.00  0.00    +0.000 C 
ENDBRANCH  19  24
ENDBRANCH  18  21
ENDBRANCH  17  18
ENDBRANCH  16  17
ENDBRANCH   1  16
TORSDOF 8
ENDMDL
MODEL 4
REMARK VINA RESULT:      -7.0      1.242      1.286
REMARK  Name = 
REMARK  8 active torsions:
REMARK  status: ('A' for Active; 'I' for Inactive)
REMARK    1  A    between atoms: C_2  and  C_3
REMARK    2  A    between atoms: N_5  and  C_6
REMARK    3  A    between atoms: C_6  and  C_7
REMARK    4  A    between atoms: C_7  and  C_8
REMARK    5  A    between atoms: C_8  and  N_9
REMARK    6  A    between atoms: N_9  and  O_10
REMARK    7  A    between atoms: C_11  and  C_13
REMARK    8  A    between atoms: C_14  and  C_15
REMARK                            x       y       z     vdW  Elec       q    Type
REMARK                         _______ _______ _______ _____ _____    ______ ____
ROOT
ATOM      1  N   UNL     1       7.626   6.347  18.573  0.00  0.00    +0.000 N 
ATOM      2  C   UNL     1       7.656   7.493  17.808  0.00  0.00    +0.000 C 
ATOM      3  O   UNL     1       6.964   7.634  16.794  0.00  0.00    +0.000 OA
ENDROOT
BRANCH   1   4
ATOM      4  O   UNL     1       8.553   6.197  19.623  0.00  0.00    +0.000 OA
ATOM      5  H   UNL     1       8.115   5.629  20.280  0.00  0.00    +0.000 HD
ENDBRANCH   1   4
BRANCH   2   6
ATOM      6  C   UNL     1       8.562   8.587  18.271  0.00  0.00    +0.000 C 
ATOM      7  C   UNL     1       8.277   9.871  17.996  0.00  0.00    +0.000 C 
BRANCH   7   8
ATOM      8  C   UNL     1       9.113  10.996  18.449  0.00  0.00    +0.000 A 
ATOM      9  C   UNL     1      10.193  10.740  19.307  0.00  0.00    +0.000 A 
ATOM     10  C   UNL     1      11.017  11.782  19.751  0.00  0.00    +0.000 A 
ATOM     11  C   UNL     1      10.771  13.088  19.338  0.00  0.00    +0.000 A 
ATOM     12 CL   UNL     1      11.779  14.367  19.891  0.00  0.00    +0.000 Cl
ATOM     13  C   UNL     1       9.712  13.363  18.479  0.00  0.00    +0.000 A 
ATOM     14  C   UNL     1       8.884  12.323  18.038  0.00  0.00    +0.000 A 
ATOM     15 CL   UNL     1       7.590  12.735  16.967  0.00  0.00    +0.000 Cl
ENDBRANCH   7   8
ENDBRANCH   2   6
BRANCH   1  16
ATOM     16  C   UNL     1       6.755   5.196  18.292  0.00  0.00    +0.000 C 
BRANCH  16  17
ATOM     17  C   UNL     1       5.424   5.201  19.059  0.00  0.00    +0.000 C 
BRANCH  17  18
ATOM     18  C   UNL     1       4.831   3.803  19.208  0.00  0.00    +0.000 C 
BRANCH  18  21
ATOM     19  C   UNL     1       2.732   2.875  18.329  0.00  0.00    +0.000 C 
ATOM     20  O   UNL     1       3.307   1.992  17.702  0.00  0.00    +0.000 OA
ATOM     21  N   UNL     1       3.380   3.803  19.099  0.00  0.00    +0.000 N 
ATOM     22  H   UNL     1       2.856   4.497  19.616  0.00  0.00    +0.000 HD
BRANCH  19  24
ATOM     23  C   UNL     1       0.501   2.180  19.049  0.00  0.00    +0.000 C 
ATOM     24  C   UNL     1       1.251   3.019  18.318  0.00  0.00    +0.000 C 
ENDBRANCH  19  24
ENDBRANCH  18  21
ENDBRANCH  17  18
ENDBRANCH  16  17
ENDBRANCH   1  16
TORSDOF 8
ENDMDL
MODEL 5
REMARK VINA RESULT:      -6.9      5.613      7.050
REMARK  Name = 
REMARK  8 active torsions:
REMARK  status: ('A' for Active; 'I' for Inactive)
REMARK    1  A    between atoms: C_2  and  C_3
REMARK    2  A    between atoms: N_5  and  C_6
REMARK    3  A    between atoms: C_6  and  C_7
REMARK    4  A    between atoms: C_7  and  C_8
REMARK    5  A    between atoms: C_8  and  N_9
REMARK    6  A    between atoms: N_9  and  O_10
REMARK    7  A    between atoms: C_11  and  C_13
REMARK    8  A    between atoms: C_14  and  C_15
REMARK                            x       y       z     vdW  Elec       q    Type
REMARK                         _______ _______ _______ _____ _____    ______ ____
ROOT
ATOM      1  N   UNL     1       3.354   2.403  19.774  0.00  0.00    +0.000 N 
ATOM      2  C   UNL     1       3.004   2.297  18.445  0.00  0.00    +0.000 C 
ATOM      3  O   UNL     1       1.866   1.980  18.081  0.00  0.00    +0.000 OA
ENDROOT
BRANCH   1   4
ATOM      4  O   UNL     1       4.705   2.617  20.114  0.00  0.00    +0.000 OA
ATOM      5  H   UNL     1       5.189   2.619  19.271  0.00  0.00    +0.000 HD
ENDBRANCH   1   4
BRANCH   2   6
ATOM      6  C   UNL     1       4.068   2.603  17.442  0.00  0.00    +0.000 C 
ATOM      7  C   UNL     1       4.174   3.833  16.913  0.00  0.00    +0.000 C 
BRANCH   7   8
ATOM      8  C   UNL     1       5.219   4.206  15.944  0.00  0.00    +0.000 A 
ATOM      9  C   UNL     1       4.951   4.082  14.572  0.00  0.00    +0.000 A 
ATOM     10  C   UNL     1       5.914   4.436  13.619  0.00  0.00    +0.000 A 
ATOM     11  C   UNL     1       7.153   4.921  14.030  0.00  0.00    +0.000 A 
ATOM     12 CL   UNL     1       8.337   5.347  12.858  0.00  0.00    +0.000 Cl
ATOM     13  C   UNL     1       7.436   5.062  15.384  0.00  0.00    +0.000 A 
ATOM     14  C   UNL     1       6.475   4.704  16.338  0.00  0.00    +0.000 A 
ATOM     15 CL   UNL     1       6.891   4.910  18.004  0.00  0.00    +0.000 Cl
ENDBRANCH   7   8
ENDBRANCH   2   6
BRANCH   1  16
ATOM     16  C   UNL     1       2.419   2.189  20.888  0.00  0.00    +0.000 C 
BRANCH  16  17
ATOM     17  C   UNL     1       1.404   3.324  21.097  0.00  0.00    +0.000 C 
BRANCH  17  18
ATOM     18  C   UNL     1       2.077   4.673  21.331  0.00  0.00    +0.000 C 
BRANCH  18  21
ATOM     19  C   UNL     1       2.986   6.010  19.480  0.00  0.00    +0.000 C 
ATOM     20  O   UNL     1       4.141   5.670  19.714  0.00  0.00    +0.000 OA
ATOM     21  N   UNL     1       1.908   5.577  20.203  0.00  0.00    +0.000 N 
ATOM     22  H   UNL     1       0.972   5.870  19.954  0.00  0.00    +0.000 HD
BRANCH  19  24
ATOM     23  C   UNL     1       3.615   7.393  17.565  0.00  0.00    +0.000 C 
ATOM     24  C   UNL     1       2.642   6.934  18.366  0.00  0.00    +0.000 C 
ENDBRANCH  19  24
ENDBRANCH  18  21
ENDBRANCH  17  18
ENDBRANCH  16  17
ENDBRANCH   1  16
TORSDOF 8
ENDMDL
MODEL 6
REMARK VINA RESULT:      -6.9      4.341      7.751
REMARK  Name = 
REMARK  8 active torsions:
REMARK  status: ('A' for Active; 'I' for Inactive)
REMARK    1  A    between atoms: C_2  and  C_3
REMARK    2  A    between atoms: N_5  and  C_6
REMARK    3  A    between atoms: C_6  and  C_7
REMARK    4  A    between atoms: C_7  and  C_8
REMARK    5  A    between atoms: C_8  and  N_9
REMARK    6  A    between atoms: N_9  and  O_10
REMARK    7  A    between atoms: C_11  and  C_13
REMARK    8  A    between atoms: C_14  and  C_15
REMARK                            x       y       z     vdW  Elec       q    Type
REMARK                         _______ _______ _______ _____ _____    ______ ____
ROOT
ATOM      1  N   UNL     1       2.854   4.478  18.751  0.00  0.00    +0.000 N 
ATOM      2  C   UNL     1       3.447   5.414  19.571  0.00  0.00    +0.000 C 
ATOM      3  O   UNL     1       4.672   5.496  19.709  0.00  0.00    +0.000 OA
ENDROOT
BRANCH   1   4
ATOM      4  O   UNL     1       1.452   4.344  18.763  0.00  0.00    +0.000 OA
ATOM      5  H   UNL     1       1.258   3.577  18.198  0.00  0.00    +0.000 HD
ENDBRANCH   1   4
BRANCH   2   6
ATOM      6  C   UNL     1       2.535   6.356  20.287  0.00  0.00    +0.000 C 
ATOM      7  C   UNL     1       2.223   7.547  19.748  0.00  0.00    +0.000 C 
BRANCH   7   8
ATOM      8  C   UNL     1       1.307   8.506  20.388  0.00  0.00    +0.000 A 
ATOM      9  C   UNL     1       1.124   8.449  21.778  0.00  0.00    +0.000 A 
ATOM     10  C   UNL     1       0.270   9.350  22.427  0.00  0.00    +0.000 A 
ATOM     11  C   UNL     1      -0.406  10.319  21.690  0.00  0.00    +0.000 A 
ATOM     12 CL   UNL     1      -1.461  11.419  22.486  0.00  0.00    +0.000 Cl
ATOM     13  C   UNL     1      -0.232  10.400  20.312  0.00  0.00    +0.000 A 
ATOM     14  C   UNL     1       0.619   9.496  19.663  0.00  0.00    +0.000 A 
ATOM     15 CL   UNL     1       0.793   9.658  17.950  0.00  0.00    +0.000 Cl
ENDBRANCH   7   8
ENDBRANCH   2   6
BRANCH   1  16
ATOM     16  C   UNL     1       3.603   3.512  17.935  0.00  0.00    +0.000 C 
BRANCH  16  17
ATOM     17  C   UNL     1       3.905   3.982  16.504  0.00  0.00    +0.000 C 
BRANCH  17  18
ATOM     18  C   UNL     1       5.396   4.198  16.263  0.00  0.00    +0.000 C 
BRANCH  18  21
ATOM     19  C   UNL     1       7.039   5.919  16.880  0.00  0.00    +0.000 C 
ATOM     20  O   UNL     1       7.549   5.926  15.764  0.00  0.00    +0.000 OA
ATOM     21  N   UNL     1       5.983   5.119  17.225  0.00  0.00    +0.000 N 
ATOM     22  H   UNL     1       5.584   5.169  18.153  0.00  0.00    +0.000 HD
BRANCH  19  24
ATOM     23  C   UNL     1       7.885   8.058  17.706  0.00  0.00    +0.000 C 
ATOM     24  C   UNL     1       7.525   6.795  17.979  0.00  0.00    +0.000 C 
ENDBRANCH  19  24
ENDBRANCH  18  21
ENDBRANCH  17  18
ENDBRANCH  16  17
ENDBRANCH   1  16
TORSDOF 8
ENDMDL
MODEL 7
REMARK VINA RESULT:      -6.7      4.564      7.665
REMARK  Name = 
REMARK  8 active torsions:
REMARK  status: ('A' for Active; 'I' for Inactive)
REMARK    1  A    between atoms: C_2  and  C_3
REMARK    2  A    between atoms: N_5  and  C_6
REMARK    3  A    between atoms: C_6  and  C_7
REMARK    4  A    between atoms: C_7  and  C_8
REMARK    5  A    between atoms: C_8  and  N_9
REMARK    6  A    between atoms: N_9  and  O_10
REMARK    7  A    between atoms: C_11  and  C_13
REMARK    8  A    between atoms: C_14  and  C_15
REMARK                            x       y       z     vdW  Elec       q    Type
REMARK                         _______ _______ _______ _____ _____    ______ ____
ROOT
ATOM      1  N   UNL     1       2.519   5.138  18.473  0.00  0.00    +0.000 N 
ATOM      2  C   UNL     1       2.901   6.456  18.596  0.00  0.00    +0.000 C 
ATOM      3  O   UNL     1       3.783   6.961  17.892  0.00  0.00    +0.000 OA
ENDROOT
BRANCH   1   4
ATOM      4  O   UNL     1       1.619   4.593  19.411  0.00  0.00    +0.000 OA
ATOM      5  H   UNL     1       2.120   4.520  20.242  0.00  0.00    +0.000 HD
ENDBRANCH   1   4
BRANCH   2   6
ATOM      6  C   UNL     1       2.183   7.273  19.621  0.00  0.00    +0.000 C 
ATOM      7  C   UNL     1       1.653   8.464  19.295  0.00  0.00    +0.000 C 
BRANCH   7   8
ATOM      8  C   UNL     1       0.908   9.302  20.250  0.00  0.00    +0.000 A 
ATOM      9  C   UNL     1       0.345   8.703  21.387  0.00  0.00    +0.000 A 
ATOM     10  C   UNL     1      -0.361   9.467  22.324  0.00  0.00    +0.000 A 
ATOM     11  C   UNL     1      -0.508  10.838  22.134  0.00  0.00    +0.000 A 
ATOM     12 CL   UNL     1      -1.382  11.774  23.282  0.00  0.00    +0.000 Cl
ATOM     13  C   UNL     1       0.051  11.455  21.020  0.00  0.00    +0.000 A 
ATOM     14  C   UNL     1       0.754  10.690  20.080  0.00  0.00    +0.000 A 
ATOM     15 CL   UNL     1       1.427  11.522  18.721  0.00  0.00    +0.000 Cl
ENDBRANCH   7   8
ENDBRANCH   2   6
BRANCH   1  16
ATOM     16  C   UNL     1       3.083   4.209  17.483  0.00  0.00    +0.000 C 
BRANCH  16  17
ATOM     17  C   UNL     1       4.490   3.692  17.821  0.00  0.00    +0.000 C 
BRANCH  17  18
ATOM     18  C   UNL     1       5.549   4.205  16.850  0.00  0.00    +0.000 C 
BRANCH  18  21
ATOM     19  C   UNL     1       7.393   5.404  17.948  0.00  0.00    +0.000 C 
ATOM     20  O   UNL     1       8.028   4.375  18.152  0.00  0.00    +0.000 OA
ATOM     21  N   UNL     1       6.178   5.432  17.317  0.00  0.00    +0.000 N 
ATOM     22  H   UNL     1       5.705   6.311  17.153  0.00  0.00    +0.000 HD
BRANCH  19  24
ATOM     23  C   UNL     1       7.677   7.804  17.579  0.00  0.00    +0.000 C 
ATOM     24  C   UNL     1       7.892   6.740  18.369  0.00  0.00    +0.000 C 
ENDBRANCH  19  24
ENDBRANCH  18  21
ENDBRANCH  17  18
ENDBRANCH  16  17
ENDBRANCH   1  16
TORSDOF 8
ENDMDL
MODEL 8
REMARK VINA RESULT:      -6.7      5.687      7.737
REMARK  Name = 
REMARK  8 active torsions:
REMARK  status: ('A' for Active; 'I' for Inactive)
REMARK    1  A    between atoms: C_2  and  C_3
REMARK    2  A    between atoms: N_5  and  C_6
REMARK    3  A    between atoms: C_6  and  C_7
REMARK    4  A    between atoms: C_7  and  C_8
REMARK    5  A    between atoms: C_8  and  N_9
REMARK    6  A    between atoms: N_9  and  O_10
REMARK    7  A    between atoms: C_11  and  C_13
REMARK    8  A    between atoms: C_14  and  C_15
REMARK                            x       y       z     vdW  Elec       q    Type
REMARK                         _______ _______ _______ _____ _____    ______ ____
ROOT
ATOM      1  N   UNL     1       6.081   5.465  17.074  0.00  0.00    +0.000 N 
ATOM      2  C   UNL     1       5.336   6.530  16.617  0.00  0.00    +0.000 C 
ATOM      3  O   UNL     1       5.314   6.864  15.427  0.00  0.00    +0.000 OA
ENDROOT
BRANCH   1   4
ATOM      4  O   UNL     1       6.180   5.240  18.461  0.00  0.00    +0.000 OA
ATOM      5  H   UNL     1       5.424   5.707  18.856  0.00  0.00    +0.000 HD
ENDBRANCH   1   4
BRANCH   2   6
ATOM      6  C   UNL     1       4.527   7.271  17.631  0.00  0.00    +0.000 C 
ATOM      7  C   UNL     1       3.197   7.096  17.704  0.00  0.00    +0.000 C 
BRANCH   7   8
ATOM      8  C   UNL     1       2.349   7.772  18.699  0.00  0.00    +0.000 A 
ATOM      9  C   UNL     1       1.797   9.024  18.387  0.00  0.00    +0.000 A 
ATOM     10  C   UNL     1       0.977   9.695  19.302  0.00  0.00    +0.000 A 
ATOM     11  C   UNL     1       0.698   9.117  20.538  0.00  0.00    +0.000 A 
ATOM     12 CL   UNL     1      -0.303   9.946  21.664  0.00  0.00    +0.000 Cl
ATOM     13  C   UNL     1       1.226   7.873  20.865  0.00  0.00    +0.000 A 
ATOM     14  C   UNL     1       2.050   7.203  19.951  0.00  0.00    +0.000 A 
ATOM     15 CL   UNL     1       2.667   5.658  20.421  0.00  0.00    +0.000 Cl
ENDBRANCH   7   8
ENDBRANCH   2   6
BRANCH   1  16
ATOM     16  C   UNL     1       6.891   4.598  16.206  0.00  0.00    +0.000 C 
BRANCH  16  17
ATOM     17  C   UNL     1       6.077   3.678  15.283  0.00  0.00    +0.000 C 
BRANCH  17  18
ATOM     18  C   UNL     1       6.155   4.103  13.819  0.00  0.00    +0.000 C 
BRANCH  18  21
ATOM     19  C   UNL     1       5.428   2.704  11.933  0.00  0.00    +0.000 C 
ATOM     20  O   UNL     1       4.431   3.388  11.725  0.00  0.00    +0.000 OA
ATOM     21  N   UNL     1       6.334   2.969  12.924  0.00  0.00    +0.000 N 
ATOM     22  H   UNL     1       7.154   2.387  13.039  0.00  0.00    +0.000 HD
BRANCH  19  24
ATOM     23  C   UNL     1       7.034   1.242  10.812  0.00  0.00    +0.000 C 
ATOM     24  C   UNL     1       5.754   1.507  11.113  0.00  0.00    +0.000 C 
ENDBRANCH  19  24
ENDBRANCH  18  21
ENDBRANCH  17  18
ENDBRANCH  16  17
ENDBRANCH   1  16
TORSDOF 8
ENDMDL
MODEL 9
REMARK VINA RESULT:      -6.6      6.001      7.480
REMARK  Name = 
REMARK  8 active torsions:
REMARK  status: ('A' for Active; 'I' for Inactive)
REMARK    1  A    between atoms: C_2  and  C_3
REMARK    2  A    between atoms: N_5  and  C_6
REMARK    3  A    between atoms: C_6  and  C_7
REMARK    4  A    between atoms: C_7  and  C_8
REMARK    5  A    between atoms: C_8  and  N_9
REMARK    6  A    between atoms: N_9  and  O_10
REMARK    7  A    between atoms: C_11  and  C_13
REMARK    8  A    between atoms: C_14  and  C_15
REMARK                            x       y       z     vdW  Elec       q    Type
REMARK                         _______ _______ _______ _____ _____    ______ ____
ROOT
ATOM      1  N   UNL     1       2.302   4.132  19.365  0.00  0.00    +0.000 N 
ATOM      2  C   UNL     1       1.917   4.567  20.614  0.00  0.00    +0.000 C 
ATOM      3  O   UNL     1       2.130   3.912  21.640  0.00  0.00    +0.000 OA
ENDROOT
BRANCH   1   4
ATOM      4  O   UNL     1       1.889   4.856  18.228  0.00  0.00    +0.000 OA
ATOM      5  H   UNL     1       0.921   4.773  18.203  0.00  0.00    +0.000 HD
ENDBRANCH   1   4
BRANCH   2   6
ATOM      6  C   UNL     1       1.234   5.894  20.685  0.00  0.00    +0.000 C 
ATOM      7  C   UNL     1       1.940   7.032  20.575  0.00  0.00    +0.000 C 
BRANCH   7   8
ATOM      8  C   UNL     1       1.323   8.368  20.606  0.00  0.00    +0.000 A 
ATOM      9  C   UNL     1       0.844   8.869  21.826  0.00  0.00    +0.000 A 
ATOM     10  C   UNL     1       0.260  10.140  21.900  0.00  0.00    +0.000 A 
ATOM     11  C   UNL     1       0.154  10.924  20.753  0.00  0.00    +0.000 A 
ATOM     12 CL   UNL     1      -0.570  12.481  20.843  0.00  0.00    +0.000 Cl
ATOM     13  C   UNL     1       0.632  10.451  19.535  0.00  0.00    +0.000 A 
ATOM     14  C   UNL     1       1.212   9.178  19.460  0.00  0.00    +0.000 A 
ATOM     15 CL   UNL     1       1.789   8.656  17.916  0.00  0.00    +0.000 Cl
ENDBRANCH   7   8
ENDBRANCH   2   6
BRANCH   1  16
ATOM     16  C   UNL     1       3.029   2.879  19.120  0.00  0.00    +0.000 C 
BRANCH  16  17
ATOM     17  C   UNL     1       4.495   2.889  19.582  0.00  0.00    +0.000 C 
BRANCH  17  18
ATOM     18  C   UNL     1       5.253   4.119  19.091  0.00  0.00    +0.000 C 
BRANCH  18  21
ATOM     19  C   UNL     1       5.420   4.324  16.647  0.00  0.00    +0.000 C 
ATOM     20  O   UNL     1       4.370   4.953  16.562  0.00  0.00    +0.000 OA
ATOM     21  N   UNL     1       5.941   3.878  17.831  0.00  0.00    +0.000 N 
ATOM     22  H   UNL     1       6.824   3.383  17.849  0.00  0.00    +0.000 HD
BRANCH  19  24
ATOM     23  C   UNL     1       5.755   4.232  14.228  0.00  0.00    +0.000 C 
ATOM     24  C   UNL     1       6.241   3.988  15.454  0.00  0.00    +0.000 C 
ENDBRANCH  19  24
ENDBRANCH  18  21
ENDBRANCH  17  18
ENDBRANCH  16  17
ENDBRANCH   1  16
TORSDOF 8
ENDMDL
