MODEL 1
REMARK VINA RESULT:      -8.3      0.000      0.000
REMARK  Name = 
REMARK  10 active torsions:
REMARK  status: ('A' for Active; 'I' for Inactive)
REMARK    1  A    between atoms: C_1  and  C_2
REMARK    2  A    between atoms: C_2  and  O_3
REMARK    3  A    between atoms: O_3  and  C_4
REMARK    4  A    between atoms: C_4  and  C_6
REMARK    5  A    between atoms: C_8  and  C_9
REMARK    6  A    between atoms: N_12  and  C_13
REMARK    7  A    between atoms: C_21  and  C_22
REMARK    8  A    between atoms: C_22  and  C_24
REMARK    9  A    between atoms: C_25  and  C_26
REMARK   10  A    between atoms: C_25  and  O_27
REMARK                            x       y       z     vdW  Elec       q    Type
REMARK                         _______ _______ _______ _____ _____    ______ ____
ROOT
ATOM      1  C   UNL     1       6.933   5.585  15.158  0.00  0.00    +0.000 A 
ATOM      2  C   UNL     1       5.733   5.558  15.834  0.00  0.00    +0.000 A 
ATOM      3  C   UNL     1       5.838   6.356  17.013  0.00  0.00    +0.000 A 
ATOM      4  C   UNL     1       7.160   6.821  17.060  0.00  0.00    +0.000 A 
ATOM      5  N   UNL     1       7.790   6.325  15.928  0.00  0.00    +0.000 N 
ATOM      6  H   UNL     1       8.758   6.519  15.693  0.00  0.00    +0.000 HD
ENDROOT
BRANCH   3   7
ATOM      7  C   UNL     1       4.714   6.582  17.992  0.00  0.00    +0.000 C 
ATOM      8  C   UNL     1       3.348   6.936  17.400  0.00  0.00    +0.000 C 
ATOM      9  C   UNL     1       2.372   6.413  18.435  0.00  0.00    +0.000 C 
ATOM     10  N   UNL     1       3.027   5.255  18.993  0.00  0.00    +0.000 N 
ATOM     11  C   UNL     1       4.415   5.326  18.806  0.00  0.00    +0.000 C 
ATOM     12  O   UNL     1       5.276   4.566  19.231  0.00  0.00    +0.000 OA
BRANCH  10  13
ATOM     13  C   UNL     1       2.357   4.335  19.838  0.00  0.00    +0.000 A 
ATOM     14  C   UNL     1       1.374   3.471  19.339  0.00  0.00    +0.000 A 
ATOM     15  C   UNL     1       0.740   2.542  20.168  0.00  0.00    +0.000 A 
ATOM     16  C   UNL     1       1.058   2.483  21.520  0.00  0.00    +0.000 A 
ATOM     17  C   UNL     1       2.015   3.349  22.040  0.00  0.00    +0.000 A 
ATOM     18  C   UNL     1       2.670   4.259  21.203  0.00  0.00    +0.000 A 
ENDBRANCH  10  13
ENDBRANCH   3   7
BRANCH   1  19
ATOM     19  C   UNL     1       7.294   5.031  13.879  0.00  0.00    +0.000 C 
ATOM     20  O   UNL     1       8.195   5.449  13.166  0.00  0.00    +0.000 OA
BRANCH  19  21
ATOM     21  O   UNL     1       6.403   4.058  13.544  0.00  0.00    +0.000 OA
BRANCH  21  23
ATOM     22  C   UNL     1       5.091   3.051  11.824  0.00  0.00    +0.000 C 
ATOM     23  C   UNL     1       6.459   3.603  12.187  0.00  0.00    +0.000 C 
ENDBRANCH  21  23
ENDBRANCH  19  21
ENDBRANCH   1  19
BRANCH   4  24
ATOM     24  C   UNL     1       7.927   7.661  17.977  0.00  0.00    +0.000 C 
ATOM     25  O   UNL     1       8.500   7.183  18.960  0.00  0.00    +0.000 OA
BRANCH  24  26
ATOM     26  C   UNL     1       8.076   9.118  17.719  0.00  0.00    +0.000 C 
ATOM     27  C   UNL     1       8.799   9.942  18.493  0.00  0.00    +0.000 C 
ATOM     28  C   UNL     1       9.058  11.367  18.105  0.00  0.00    +0.000 C 
BRANCH  27  29
ATOM     29  O   UNL     1       9.403   9.554  19.670  0.00  0.00    +0.000 OA
ATOM     30  H   UNL     1       9.045   8.673  19.921  0.00  0.00    +0.000 HD
ENDBRANCH  27  29
ENDBRANCH  24  26
ENDBRANCH   4  24
TORSDOF 8
ENDMDL
MODEL 2
REMARK VINA RESULT:      -8.0      3.641      6.288
REMARK  Name = 
REMARK  10 active torsions:
REMARK  status: ('A' for Active; 'I' for Inactive)
REMARK    1  A    between atoms: C_1  and  C_2
REMARK    2  A    between atoms: C_2  and  O_3
REMARK    3  A    between atoms: O_3  and  C_4
REMARK    4  A    between atoms: C_4  and  C_6
REMARK    5  A    between atoms: C_8  and  C_9
REMARK    6  A    between atoms: N_12  and  C_13
REMARK    7  A    between atoms: C_21  and  C_22
REMARK    8  A    between atoms: C_22  and  C_24
REMARK    9  A    between atoms: C_25  and  C_26
REMARK   10  A    between atoms: C_25  and  O_27
REMARK                            x       y       z     vdW  Elec       q    Type
REMARK                         _______ _______ _______ _____ _____    ______ ____
ROOT
ATOM      1  C   UNL     1       2.423   4.264  18.170  0.00  0.00    +0.000 A 
ATOM      2  C   UNL     1       1.938   5.461  18.650  0.00  0.00    +0.000 A 
ATOM      3  C   UNL     1       2.785   6.523  18.209  0.00  0.00    +0.000 A 
ATOM      4  C   UNL     1       3.832   5.924  17.495  0.00  0.00    +0.000 A 
ATOM      5  N   UNL     1       3.582   4.559  17.503  0.00  0.00    +0.000 N 
ATOM      6  H   UNL     1       4.174   3.876  17.042  0.00  0.00    +0.000 HD
ENDROOT
BRANCH   3   7
ATOM      7  C   UNL     1       2.555   7.980  18.519  0.00  0.00    +0.000 C 
ATOM      8  C   UNL     1       1.631   8.748  17.572  0.00  0.00    +0.000 C 
ATOM      9  C   UNL     1       1.051   9.835  18.454  0.00  0.00    +0.000 C 
ATOM     10  N   UNL     1       0.978   9.234  19.763  0.00  0.00    +0.000 N 
ATOM     11  C   UNL     1       1.881   8.167  19.876  0.00  0.00    +0.000 C 
ATOM     12  O   UNL     1       2.145   7.501  20.868  0.00  0.00    +0.000 OA
BRANCH  10  13
ATOM     13  C   UNL     1       0.278   9.837  20.839  0.00  0.00    +0.000 A 
ATOM     14  C   UNL     1      -0.337  11.087  20.697  0.00  0.00    +0.000 A 
ATOM     15  C   UNL     1      -1.055  11.662  21.749  0.00  0.00    +0.000 A 
ATOM     16  C   UNL     1      -1.143  11.009  22.972  0.00  0.00    +0.000 A 
ATOM     17  C   UNL     1      -0.519   9.777  23.141  0.00  0.00    +0.000 A 
ATOM     18  C   UNL     1       0.175   9.188  22.078  0.00  0.00    +0.000 A 
ENDBRANCH  10  13
ENDBRANCH   3   7
BRANCH   1  19
ATOM     19  C   UNL     1       1.871   2.936  18.251  0.00  0.00    +0.000 C 
ATOM     20  O   UNL     1       2.028   2.062  17.411  0.00  0.00    +0.000 OA
BRANCH  19  21
ATOM     21  O   UNL     1       1.060   2.854  19.341  0.00  0.00    +0.000 OA
BRANCH  21  23
ATOM     22  C   UNL     1       1.810   3.306  21.560  0.00  0.00    +0.000 C 
ATOM     23  C   UNL     1       1.633   2.235  20.498  0.00  0.00    +0.000 C 
ENDBRANCH  21  23
ENDBRANCH  19  21
ENDBRANCH   1  19
BRANCH   4  24
ATOM     24  C   UNL     1       5.017   6.414  16.795  0.00  0.00    +0.000 C 
ATOM     25  O   UNL     1       5.750   7.272  17.295  0.00  0.00    +0.000 OA
BRANCH  24  26
ATOM     26  C   UNL     1       5.399   5.851  15.473  0.00  0.00    +0.000 C 
ATOM     27  C   UNL     1       6.490   5.097  15.270  0.00  0.00    +0.000 C 
ATOM     28  C   UNL     1       6.748   4.415  13.960  0.00  0.00    +0.000 C 
BRANCH  27  29
ATOM     29  O   UNL     1       7.435   4.840  16.241  0.00  0.00    +0.000 OA
ATOM     30  H   UNL     1       7.604   3.872  16.254  0.00  0.00    +0.000 HD
ENDBRANCH  27  29
ENDBRANCH  24  26
ENDBRANCH   4  24
TORSDOF 8
ENDMDL
MODEL 3
REMARK VINA RESULT:      -8.0      3.683      6.453
REMARK  Name = 
REMARK  10 active torsions:
REMARK  status: ('A' for Active; 'I' for Inactive)
REMARK    1  A    between atoms: C_1  and  C_2
REMARK    2  A    between atoms: C_2  and  O_3
REMARK    3  A    between atoms: O_3  and  C_4
REMARK    4  A    between atoms: C_4  and  C_6
REMARK    5  A    between atoms: C_8  and  C_9
REMARK    6  A    between atoms: N_12  and  C_13
REMARK    7  A    between atoms: C_21  and  C_22
REMARK    8  A    between atoms: C_22  and  C_24
REMARK    9  A    between atoms: C_25  and  C_26
REMARK   10  A    between atoms: C_25  and  O_27
REMARK                            x       y       z     vdW  Elec       q    Type
REMARK                         _______ _______ _______ _____ _____    ______ ____
ROOT
ATOM      1  C   UNL     1       2.356   4.190  18.531  0.00  0.00    +0.000 A 
ATOM      2  C   UNL     1       1.909   5.413  18.983  0.00  0.00    +0.000 A 
ATOM      3  C   UNL     1       2.731   6.446  18.439  0.00  0.00    +0.000 A 
ATOM      4  C   UNL     1       3.728   5.805  17.689  0.00  0.00    +0.000 A 
ATOM      5  N   UNL     1       3.471   4.444  17.779  0.00  0.00    +0.000 N 
ATOM      6  H   UNL     1       4.029   3.735  17.315  0.00  0.00    +0.000 HD
ENDROOT
BRANCH   3   7
ATOM      7  C   UNL     1       2.529   7.918  18.694  0.00  0.00    +0.000 C 
ATOM      8  C   UNL     1       1.691   8.685  17.669  0.00  0.00    +0.000 C 
ATOM      9  C   UNL     1       1.092   9.815  18.481  0.00  0.00    +0.000 C 
ATOM     10  N   UNL     1       0.918   9.255  19.799  0.00  0.00    +0.000 N 
ATOM     11  C   UNL     1       1.778   8.166  19.999  0.00  0.00    +0.000 C 
ATOM     12  O   UNL     1       1.958   7.522  21.024  0.00  0.00    +0.000 OA
BRANCH  10  13
ATOM     13  C   UNL     1       0.173   9.911  20.812  0.00  0.00    +0.000 A 
ATOM     14  C   UNL     1       0.061   9.370  22.099  0.00  0.00    +0.000 A 
ATOM     15  C   UNL     1      -0.645  10.037  23.103  0.00  0.00    +0.000 A 
ATOM     16  C   UNL     1      -1.280  11.242  22.828  0.00  0.00    +0.000 A 
ATOM     17  C   UNL     1      -1.200  11.784  21.549  0.00  0.00    +0.000 A 
ATOM     18  C   UNL     1      -0.468  11.130  20.551  0.00  0.00    +0.000 A 
ENDBRANCH  10  13
ENDBRANCH   3   7
BRANCH   1  19
ATOM     19  C   UNL     1       1.804   2.873  18.711  0.00  0.00    +0.000 C 
ATOM     20  O   UNL     1       0.730   2.499  18.262  0.00  0.00    +0.000 OA
BRANCH  19  21
ATOM     21  O   UNL     1       2.605   2.161  19.550  0.00  0.00    +0.000 OA
BRANCH  21  23
ATOM     22  C   UNL     1       1.569   2.592  21.656  0.00  0.00    +0.000 C 
ATOM     23  C   UNL     1       2.837   2.749  20.836  0.00  0.00    +0.000 C 
ENDBRANCH  21  23
ENDBRANCH  19  21
ENDBRANCH   1  19
BRANCH   4  24
ATOM     24  C   UNL     1       4.868   6.252  16.893  0.00  0.00    +0.000 C 
ATOM     25  O   UNL     1       5.628   7.137  17.298  0.00  0.00    +0.000 OA
BRANCH  24  26
ATOM     26  C   UNL     1       5.173   5.612  15.586  0.00  0.00    +0.000 C 
ATOM     27  C   UNL     1       6.354   5.049  15.288  0.00  0.00    +0.000 C 
ATOM     28  C   UNL     1       6.563   4.271  14.024  0.00  0.00    +0.000 C 
BRANCH  27  29
ATOM     29  O   UNL     1       7.453   5.088  16.121  0.00  0.00    +0.000 OA
ATOM     30  H   UNL     1       7.977   4.270  15.972  0.00  0.00    +0.000 HD
ENDBRANCH  27  29
ENDBRANCH  24  26
ENDBRANCH   4  24
TORSDOF 8
ENDMDL
MODEL 4
REMARK VINA RESULT:      -8.0      3.683      6.115
REMARK  Name = 
REMARK  10 active torsions:
REMARK  status: ('A' for Active; 'I' for Inactive)
REMARK    1  A    between atoms: C_1  and  C_2
REMARK    2  A    between atoms: C_2  and  O_3
REMARK    3  A    between atoms: O_3  and  C_4
REMARK    4  A    between atoms: C_4  and  C_6
REMARK    5  A    between atoms: C_8  and  C_9
REMARK    6  A    between atoms: N_12  and  C_13
REMARK    7  A    between atoms: C_21  and  C_22
REMARK    8  A    between atoms: C_22  and  C_24
REMARK    9  A    between atoms: C_25  and  C_26
REMARK   10  A    between atoms: C_25  and  O_27
REMARK                            x       y       z     vdW  Elec       q    Type
REMARK                         _______ _______ _______ _____ _____    ______ ____
ROOT
ATOM      1  C   UNL     1       2.410   4.294  18.066  0.00  0.00    +0.000 A 
ATOM      2  C   UNL     1       1.882   5.487  18.510  0.00  0.00    +0.000 A 
ATOM      3  C   UNL     1       2.779   6.549  18.181  0.00  0.00    +0.000 A 
ATOM      4  C   UNL     1       3.894   5.953  17.576  0.00  0.00    +0.000 A 
ATOM      5  N   UNL     1       3.636   4.590  17.535  0.00  0.00    +0.000 N 
ATOM      6  H   UNL     1       4.270   3.910  17.130  0.00  0.00    +0.000 HD
ENDROOT
BRANCH   3   7
ATOM      7  C   UNL     1       2.525   8.003  18.488  0.00  0.00    +0.000 C 
ATOM      8  C   UNL     1       1.584   8.752  17.544  0.00  0.00    +0.000 C 
ATOM      9  C   UNL     1       0.989   9.832  18.425  0.00  0.00    +0.000 C 
ATOM     10  N   UNL     1       0.934   9.233  19.737  0.00  0.00    +0.000 N 
ATOM     11  C   UNL     1       1.856   8.183  19.847  0.00  0.00    +0.000 C 
ATOM     12  O   UNL     1       2.136   7.524  20.841  0.00  0.00    +0.000 OA
BRANCH  10  13
ATOM     13  C   UNL     1       0.229   9.828  20.814  0.00  0.00    +0.000 A 
ATOM     14  C   UNL     1       0.009   9.133  22.010  0.00  0.00    +0.000 A 
ATOM     15  C   UNL     1      -0.655   9.734  23.083  0.00  0.00    +0.000 A 
ATOM     16  C   UNL     1      -1.138  11.032  22.965  0.00  0.00    +0.000 A 
ATOM     17  C   UNL     1      -0.949  11.730  21.777  0.00  0.00    +0.000 A 
ATOM     18  C   UNL     1      -0.259  11.138  20.714  0.00  0.00    +0.000 A 
ENDBRANCH  10  13
ENDBRANCH   3   7
BRANCH   1  19
ATOM     19  C   UNL     1       1.844   2.970  18.065  0.00  0.00    +0.000 C 
ATOM     20  O   UNL     1       1.979   2.153  17.166  0.00  0.00    +0.000 OA
BRANCH  19  21
ATOM     21  O   UNL     1       1.046   2.822  19.158  0.00  0.00    +0.000 OA
BRANCH  21  23
ATOM     22  C   UNL     1       1.525   3.229  21.460  0.00  0.00    +0.000 C 
ATOM     23  C   UNL     1       1.670   2.246  20.311  0.00  0.00    +0.000 C 
ENDBRANCH  21  23
ENDBRANCH  19  21
ENDBRANCH   1  19
BRANCH   4  24
ATOM     24  C   UNL     1       5.152   6.444  17.018  0.00  0.00    +0.000 C 
ATOM     25  O   UNL     1       5.236   6.802  15.840  0.00  0.00    +0.000 OA
BRANCH  24  26
ATOM     26  C   UNL     1       6.359   6.573  17.876  0.00  0.00    +0.000 C 
ATOM     27  C   UNL     1       6.975   5.533  18.459  0.00  0.00    +0.000 C 
ATOM     28  C   UNL     1       8.281   5.688  19.178  0.00  0.00    +0.000 C 
BRANCH  27  29
ATOM     29  O   UNL     1       6.500   4.239  18.413  0.00  0.00    +0.000 OA
ATOM     30  H   UNL     1       7.245   3.649  18.158  0.00  0.00    +0.000 HD
ENDBRANCH  27  29
ENDBRANCH  24  26
ENDBRANCH   4  24
TORSDOF 8
ENDMDL
MODEL 5
REMARK VINA RESULT:      -7.9      3.666      5.923
REMARK  Name = 
REMARK  10 active torsions:
REMARK  status: ('A' for Active; 'I' for Inactive)
REMARK    1  A    between atoms: C_1  and  C_2
REMARK    2  A    between atoms: C_2  and  O_3
REMARK    3  A    between atoms: O_3  and  C_4
REMARK    4  A    between atoms: C_4  and  C_6
REMARK    5  A    between atoms: C_8  and  C_9
REMARK    6  A    between atoms: N_12  and  C_13
REMARK    7  A    between atoms: C_21  and  C_22
REMARK    8  A    between atoms: C_22  and  C_24
REMARK    9  A    between atoms: C_25  and  C_26
REMARK   10  A    between atoms: C_25  and  O_27
REMARK                            x       y       z     vdW  Elec       q    Type
REMARK                         _______ _______ _______ _____ _____    ______ ____
ROOT
ATOM      1  C   UNL     1       2.511   4.363  18.069  0.00  0.00    +0.000 A 
ATOM      2  C   UNL     1       1.958   5.529  18.551  0.00  0.00    +0.000 A 
ATOM      3  C   UNL     1       2.760   6.637  18.139  0.00  0.00    +0.000 A 
ATOM      4  C   UNL     1       3.850   6.098  17.441  0.00  0.00    +0.000 A 
ATOM      5  N   UNL     1       3.667   4.722  17.430  0.00  0.00    +0.000 N 
ATOM      6  H   UNL     1       4.301   4.075  16.974  0.00  0.00    +0.000 HD
ENDROOT
BRANCH   3   7
ATOM      7  C   UNL     1       2.452   8.077  18.460  0.00  0.00    +0.000 C 
ATOM      8  C   UNL     1       1.449   8.786  17.549  0.00  0.00    +0.000 C 
ATOM      9  C   UNL     1       0.836   9.836  18.453  0.00  0.00    +0.000 C 
ATOM     10  N   UNL     1       0.848   9.232  19.763  0.00  0.00    +0.000 N 
ATOM     11  C   UNL     1       1.818   8.223  19.841  0.00  0.00    +0.000 C 
ATOM     12  O   UNL     1       2.159   7.575  20.822  0.00  0.00    +0.000 OA
BRANCH  10  13
ATOM     13  C   UNL     1       0.152   9.792  20.865  0.00  0.00    +0.000 A 
ATOM     14  C   UNL     1       0.086   9.128  22.096  0.00  0.00    +0.000 A 
ATOM     15  C   UNL     1      -0.570   9.698  23.190  0.00  0.00    +0.000 A 
ATOM     16  C   UNL     1      -1.200  10.931  23.060  0.00  0.00    +0.000 A 
ATOM     17  C   UNL     1      -1.165  11.595  21.838  0.00  0.00    +0.000 A 
ATOM     18  C   UNL     1      -0.483  11.036  20.752  0.00  0.00    +0.000 A 
ENDBRANCH  10  13
ENDBRANCH   3   7
BRANCH   1  19
ATOM     19  C   UNL     1       2.023   3.009  18.125  0.00  0.00    +0.000 C 
ATOM     20  O   UNL     1       2.033   2.224  17.188  0.00  0.00    +0.000 OA
BRANCH  19  21
ATOM     21  O   UNL     1       1.448   2.789  19.339  0.00  0.00    +0.000 OA
BRANCH  21  23
ATOM     22  C   UNL     1       1.888   3.211  21.646  0.00  0.00    +0.000 C 
ATOM     23  C   UNL     1       2.349   2.466  20.405  0.00  0.00    +0.000 C 
ENDBRANCH  21  23
ENDBRANCH  19  21
ENDBRANCH   1  19
BRANCH   4  24
ATOM     24  C   UNL     1       5.023   6.653  16.772  0.00  0.00    +0.000 C 
ATOM     25  O   UNL     1       5.216   6.483  15.565  0.00  0.00    +0.000 OA
BRANCH  24  26
ATOM     26  C   UNL     1       5.998   7.486  17.525  0.00  0.00    +0.000 C 
ATOM     27  C   UNL     1       7.313   7.518  17.261  0.00  0.00    +0.000 C 
ATOM     28  C   UNL     1       8.232   8.494  17.933  0.00  0.00    +0.000 C 
BRANCH  27  29
ATOM     29  O   UNL     1       7.927   6.707  16.330  0.00  0.00    +0.000 OA
ATOM     30  H   UNL     1       7.296   5.995  16.081  0.00  0.00    +0.000 HD
ENDBRANCH  27  29
ENDBRANCH  24  26
ENDBRANCH   4  24
TORSDOF 8
ENDMDL
MODEL 6
REMARK VINA RESULT:      -7.9      3.539      6.631
REMARK  Name = 
REMARK  10 active torsions:
REMARK  status: ('A' for Active; 'I' for Inactive)
REMARK    1  A    between atoms: C_1  and  C_2
REMARK    2  A    between atoms: C_2  and  O_3
REMARK    3  A    between atoms: O_3  and  C_4
REMARK    4  A    between atoms: C_4  and  C_6
REMARK    5  A    between atoms: C_8  and  C_9
REMARK    6  A    between atoms: N_12  and  C_13
REMARK    7  A    between atoms: C_21  and  C_22
REMARK    8  A    between atoms: C_22  and  C_24
REMARK    9  A    between atoms: C_25  and  C_26
REMARK   10  A    between atoms: C_25  and  O_27
REMARK                            x       y       z     vdW  Elec       q    Type
REMARK                         _______ _______ _______ _____ _____    ______ ____
ROOT
ATOM      1  C   UNL     1       2.431   3.998  20.455  0.00  0.00    +0.000 A 
ATOM      2  C   UNL     1       2.005   5.290  20.237  0.00  0.00    +0.000 A 
ATOM      3  C   UNL     1       3.061   6.038  19.633  0.00  0.00    +0.000 A 
ATOM      4  C   UNL     1       4.161   5.172  19.547  0.00  0.00    +0.000 A 
ATOM      5  N   UNL     1       3.742   3.954  20.063  0.00  0.00    +0.000 N 
ATOM      6  H   UNL     1       4.332   3.131  20.110  0.00  0.00    +0.000 HD
ENDROOT
BRANCH   3   7
ATOM      7  C   UNL     1       2.955   7.485  19.225  0.00  0.00    +0.000 C 
ATOM      8  C   UNL     1       2.702   7.766  17.743  0.00  0.00    +0.000 C 
ATOM      9  C   UNL     1       1.969   9.092  17.758  0.00  0.00    +0.000 C 
ATOM     10  N   UNL     1       1.211   9.069  18.985  0.00  0.00    +0.000 N 
ATOM     11  C   UNL     1       1.777   8.177  19.907  0.00  0.00    +0.000 C 
ATOM     12  O   UNL     1       1.447   7.980  21.069  0.00  0.00    +0.000 OA
BRANCH  10  13
ATOM     13  C   UNL     1       0.206  10.026  19.276  0.00  0.00    +0.000 A 
ATOM     14  C   UNL     1       0.343  10.922  20.343  0.00  0.00    +0.000 A 
ATOM     15  C   UNL     1      -0.633  11.887  20.606  0.00  0.00    +0.000 A 
ATOM     16  C   UNL     1      -1.780  11.950  19.824  0.00  0.00    +0.000 A 
ATOM     17  C   UNL     1      -1.946  11.052  18.773  0.00  0.00    +0.000 A 
ATOM     18  C   UNL     1      -0.954  10.106  18.493  0.00  0.00    +0.000 A 
ENDBRANCH  10  13
ENDBRANCH   3   7
BRANCH   1  19
ATOM     19  C   UNL     1       1.709   2.850  20.939  0.00  0.00    +0.000 C 
ATOM     20  O   UNL     1       1.279   2.723  22.076  0.00  0.00    +0.000 OA
BRANCH  19  21
ATOM     21  O   UNL     1       1.689   1.892  19.972  0.00  0.00    +0.000 OA
BRANCH  21  23
ATOM     22  C   UNL     1       2.226   2.167  17.663  0.00  0.00    +0.000 C 
ATOM     23  C   UNL     1       1.135   2.291  18.712  0.00  0.00    +0.000 C 
ENDBRANCH  21  23
ENDBRANCH  19  21
ENDBRANCH   1  19
BRANCH   4  24
ATOM     24  C   UNL     1       5.530   5.288  19.051  0.00  0.00    +0.000 C 
ATOM     25  O   UNL     1       6.492   5.335  19.822  0.00  0.00    +0.000 OA
BRANCH  24  26
ATOM     26  C   UNL     1       5.804   5.304  17.589  0.00  0.00    +0.000 C 
ATOM     27  C   UNL     1       6.847   4.683  17.019  0.00  0.00    +0.000 C 
ATOM     28  C   UNL     1       6.993   4.586  15.530  0.00  0.00    +0.000 C 
BRANCH  27  29
ATOM     29  O   UNL     1       7.841   4.044  17.731  0.00  0.00    +0.000 OA
ATOM     30  H   UNL     1       7.647   3.081  17.727  0.00  0.00    +0.000 HD
ENDBRANCH  27  29
ENDBRANCH  24  26
ENDBRANCH   4  24
TORSDOF 8
ENDMDL
MODEL 7
REMARK VINA RESULT:      -7.8      1.891      3.011
REMARK  Name = 
REMARK  10 active torsions:
REMARK  status: ('A' for Active; 'I' for Inactive)
REMARK    1  A    between atoms: C_1  and  C_2
REMARK    2  A    between atoms: C_2  and  O_3
REMARK    3  A    between atoms: O_3  and  C_4
REMARK    4  A    between atoms: C_4  and  C_6
REMARK    5  A    between atoms: C_8  and  C_9
REMARK    6  A    between atoms: N_12  and  C_13
REMARK    7  A    between atoms: C_21  and  C_22
REMARK    8  A    between atoms: C_22  and  C_24
REMARK    9  A    between atoms: C_25  and  C_26
REMARK   10  A    between atoms: C_25  and  O_27
REMARK                            x       y       z     vdW  Elec       q    Type
REMARK                         _______ _______ _______ _____ _____    ______ ____
ROOT
ATOM      1  C   UNL     1       6.592   4.816  14.677  0.00  0.00    +0.000 A 
ATOM      2  C   UNL     1       5.384   4.514  15.267  0.00  0.00    +0.000 A 
ATOM      3  C   UNL     1       5.298   5.174  16.530  0.00  0.00    +0.000 A 
ATOM      4  C   UNL     1       6.519   5.840  16.712  0.00  0.00    +0.000 A 
ATOM      5  N   UNL     1       7.275   5.590  15.576  0.00  0.00    +0.000 N 
ATOM      6  H   UNL     1       8.206   5.965  15.426  0.00  0.00    +0.000 HD
ENDROOT
BRANCH   3   7
ATOM      7  C   UNL     1       4.109   5.097  17.453  0.00  0.00    +0.000 C 
ATOM      8  C   UNL     1       4.379   4.640  18.887  0.00  0.00    +0.000 C 
ATOM      9  C   UNL     1       3.278   5.312  19.682  0.00  0.00    +0.000 C 
ATOM     10  N   UNL     1       3.036   6.551  18.983  0.00  0.00    +0.000 N 
ATOM     11  C   UNL     1       3.459   6.464  17.649  0.00  0.00    +0.000 C 
ATOM     12  O   UNL     1       3.321   7.291  16.757  0.00  0.00    +0.000 OA
BRANCH  10  13
ATOM     13  C   UNL     1       2.236   7.588  19.527  0.00  0.00    +0.000 A 
ATOM     14  C   UNL     1       1.820   7.560  20.864  0.00  0.00    +0.000 A 
ATOM     15  C   UNL     1       1.061   8.600  21.406  0.00  0.00    +0.000 A 
ATOM     16  C   UNL     1       0.678   9.673  20.609  0.00  0.00    +0.000 A 
ATOM     17  C   UNL     1       1.062   9.707  19.272  0.00  0.00    +0.000 A 
ATOM     18  C   UNL     1       1.847   8.679  18.738  0.00  0.00    +0.000 A 
ENDBRANCH  10  13
ENDBRANCH   3   7
BRANCH   1  19
ATOM     19  C   UNL     1       7.098   4.482  13.371  0.00  0.00    +0.000 C 
ATOM     20  O   UNL     1       7.826   5.200  12.700  0.00  0.00    +0.000 OA
BRANCH  19  21
ATOM     21  O   UNL     1       6.546   3.307  12.962  0.00  0.00    +0.000 OA
BRANCH  21  23
ATOM     22  C   UNL     1       4.531   3.311  11.684  0.00  0.00    +0.000 C 
ATOM     23  C   UNL     1       6.048   3.287  11.619  0.00  0.00    +0.000 C 
ENDBRANCH  21  23
ENDBRANCH  19  21
ENDBRANCH   1  19
BRANCH   4  24
ATOM     24  C   UNL     1       7.090   6.680  17.762  0.00  0.00    +0.000 C 
ATOM     25  O   UNL     1       7.429   6.207  18.851  0.00  0.00    +0.000 OA
BRANCH  24  26
ATOM     26  C   UNL     1       7.324   8.129  17.525  0.00  0.00    +0.000 C 
ATOM     27  C   UNL     1       8.250   8.851  18.174  0.00  0.00    +0.000 C 
ATOM     28  C   UNL     1       8.564  10.265  17.788  0.00  0.00    +0.000 C 
BRANCH  27  29
ATOM     29  O   UNL     1       9.021   8.359  19.206  0.00  0.00    +0.000 OA
ATOM     30  H   UNL     1       9.545   7.602  18.861  0.00  0.00    +0.000 HD
ENDBRANCH  27  29
ENDBRANCH  24  26
ENDBRANCH   4  24
TORSDOF 8
ENDMDL
MODEL 8
REMARK VINA RESULT:      -7.8      3.524      6.633
REMARK  Name = 
REMARK  10 active torsions:
REMARK  status: ('A' for Active; 'I' for Inactive)
REMARK    1  A    between atoms: C_1  and  C_2
REMARK    2  A    between atoms: C_2  and  O_3
REMARK    3  A    between atoms: O_3  and  C_4
REMARK    4  A    between atoms: C_4  and  C_6
REMARK    5  A    between atoms: C_8  and  C_9
REMARK    6  A    between atoms: N_12  and  C_13
REMARK    7  A    between atoms: C_21  and  C_22
REMARK    8  A    between atoms: C_22  and  C_24
REMARK    9  A    between atoms: C_25  and  C_26
REMARK   10  A    between atoms: C_25  and  O_27
REMARK                            x       y       z     vdW  Elec       q    Type
REMARK                         _______ _______ _______ _____ _____    ______ ____
ROOT
ATOM      1  C   UNL     1       5.467   6.042  17.274  0.00  0.00    +0.000 A 
ATOM      2  C   UNL     1       4.531   6.986  17.639  0.00  0.00    +0.000 A 
ATOM      3  C   UNL     1       3.385   6.328  18.181  0.00  0.00    +0.000 A 
ATOM      4  C   UNL     1       3.633   4.952  18.077  0.00  0.00    +0.000 A 
ATOM      5  N   UNL     1       4.895   4.822  17.516  0.00  0.00    +0.000 N 
ATOM      6  H   UNL     1       5.343   3.929  17.339  0.00  0.00    +0.000 HD
ENDROOT
BRANCH   3   7
ATOM      7  C   UNL     1       2.166   7.039  18.710  0.00  0.00    +0.000 C 
ATOM      8  C   UNL     1       2.136   7.329  20.212  0.00  0.00    +0.000 C 
ATOM      9  C   UNL     1       1.269   8.568  20.312  0.00  0.00    +0.000 C 
ATOM     10  N   UNL     1       1.530   9.288  19.090  0.00  0.00    +0.000 N 
ATOM     11  C   UNL     1       2.011   8.426  18.094  0.00  0.00    +0.000 C 
ATOM     12  O   UNL     1       2.245   8.683  16.920  0.00  0.00    +0.000 OA
BRANCH  10  13
ATOM     13  C   UNL     1       1.091  10.620  18.884  0.00  0.00    +0.000 A 
ATOM     14  C   UNL     1       2.004  11.671  18.731  0.00  0.00    +0.000 A 
ATOM     15  C   UNL     1       1.568  12.978  18.493  0.00  0.00    +0.000 A 
ATOM     16  C   UNL     1       0.209  13.260  18.436  0.00  0.00    +0.000 A 
ATOM     17  C   UNL     1      -0.714  12.233  18.608  0.00  0.00    +0.000 A 
ATOM     18  C   UNL     1      -0.277  10.921  18.817  0.00  0.00    +0.000 A 
ENDBRANCH  10  13
ENDBRANCH   3   7
BRANCH   1  19
ATOM     19  C   UNL     1       6.810   6.206  16.784  0.00  0.00    +0.000 C 
ATOM     20  O   UNL     1       7.443   7.252  16.816  0.00  0.00    +0.000 OA
BRANCH  19  21
ATOM     21  O   UNL     1       7.211   5.054  16.179  0.00  0.00    +0.000 OA
BRANCH  21  23
ATOM     22  C   UNL     1       6.235   3.919  14.320  0.00  0.00    +0.000 C 
ATOM     23  C   UNL     1       7.154   5.051  14.747  0.00  0.00    +0.000 C 
ENDBRANCH  21  23
ENDBRANCH  19  21
ENDBRANCH   1  19
BRANCH   4  24
ATOM     24  C   UNL     1       2.895   3.741  18.428  0.00  0.00    +0.000 C 
ATOM     25  O   UNL     1       2.354   3.045  17.565  0.00  0.00    +0.000 OA
BRANCH  24  26
ATOM     26  C   UNL     1       2.818   3.287  19.842  0.00  0.00    +0.000 C 
ATOM     27  C   UNL     1       1.668   3.145  20.518  0.00  0.00    +0.000 C 
ATOM     28  C   UNL     1       1.624   2.529  21.884  0.00  0.00    +0.000 C 
BRANCH  27  29
ATOM     29  O   UNL     1       0.434   3.499  20.014  0.00  0.00    +0.000 OA
ATOM     30  H   UNL     1      -0.253   3.002  20.512  0.00  0.00    +0.000 HD
ENDBRANCH  27  29
ENDBRANCH  24  26
ENDBRANCH   4  24
TORSDOF 8
ENDMDL
MODEL 9
REMARK VINA RESULT:      -7.8      2.101      3.226
REMARK  Name = 
REMARK  10 active torsions:
REMARK  status: ('A' for Active; 'I' for Inactive)
REMARK    1  A    between atoms: C_1  and  C_2
REMARK    2  A    between atoms: C_2  and  O_3
REMARK    3  A    between atoms: O_3  and  C_4
REMARK    4  A    between atoms: C_4  and  C_6
REMARK    5  A    between atoms: C_8  and  C_9
REMARK    6  A    between atoms: N_12  and  C_13
REMARK    7  A    between atoms: C_21  and  C_22
REMARK    8  A    between atoms: C_22  and  C_24
REMARK    9  A    between atoms: C_25  and  C_26
REMARK   10  A    between atoms: C_25  and  O_27
REMARK                            x       y       z     vdW  Elec       q    Type
REMARK                         _______ _______ _______ _____ _____    ______ ____
ROOT
ATOM      1  C   UNL     1       6.414   4.734  15.228  0.00  0.00    +0.000 A 
ATOM      2  C   UNL     1       5.115   4.633  15.677  0.00  0.00    +0.000 A 
ATOM      3  C   UNL     1       5.058   5.030  17.048  0.00  0.00    +0.000 A 
ATOM      4  C   UNL     1       6.376   5.319  17.431  0.00  0.00    +0.000 A 
ATOM      5  N   UNL     1       7.164   5.118  16.307  0.00  0.00    +0.000 N 
ATOM      6  H   UNL     1       8.167   5.270  16.289  0.00  0.00    +0.000 HD
ENDROOT
BRANCH   3   7
ATOM      7  C   UNL     1       3.796   5.072  17.871  0.00  0.00    +0.000 C 
ATOM      8  C   UNL     1       3.905   4.605  19.323  0.00  0.00    +0.000 C 
ATOM      9  C   UNL     1       2.811   5.383  20.025  0.00  0.00    +0.000 C 
ATOM     10  N   UNL     1       2.743   6.633  19.307  0.00  0.00    +0.000 N 
ATOM     11  C   UNL     1       3.263   6.495  18.012  0.00  0.00    +0.000 C 
ATOM     12  O   UNL     1       3.275   7.323  17.110  0.00  0.00    +0.000 OA
BRANCH  10  13
ATOM     13  C   UNL     1       2.002   7.744  19.782  0.00  0.00    +0.000 A 
ATOM     14  C   UNL     1       1.705   8.830  18.950  0.00  0.00    +0.000 A 
ATOM     15  C   UNL     1       0.944   9.907  19.411  0.00  0.00    +0.000 A 
ATOM     16  C   UNL     1       0.494   9.930  20.726  0.00  0.00    +0.000 A 
ATOM     17  C   UNL     1       0.798   8.871  21.576  0.00  0.00    +0.000 A 
ATOM     18  C   UNL     1       1.535   7.780  21.104  0.00  0.00    +0.000 A 
ENDBRANCH  10  13
ENDBRANCH   3   7
BRANCH   1  19
ATOM     19  C   UNL     1       6.959   4.550  13.908  0.00  0.00    +0.000 C 
ATOM     20  O   UNL     1       7.684   5.350  13.334  0.00  0.00    +0.000 OA
BRANCH  19  21
ATOM     21  O   UNL     1       6.446   3.412  13.366  0.00  0.00    +0.000 OA
BRANCH  21  23
ATOM     22  C   UNL     1       5.506   2.285  11.484  0.00  0.00    +0.000 C 
ATOM     23  C   UNL     1       6.531   3.309  11.939  0.00  0.00    +0.000 C 
ENDBRANCH  21  23
ENDBRANCH  19  21
ENDBRANCH   1  19
BRANCH   4  24
ATOM     24  C   UNL     1       7.017   5.764  18.666  0.00  0.00    +0.000 C 
ATOM     25  O   UNL     1       6.844   5.167  19.732  0.00  0.00    +0.000 OA
BRANCH  24  26
ATOM     26  C   UNL     1       7.941   6.930  18.659  0.00  0.00    +0.000 C 
ATOM     27  C   UNL     1       7.748   8.030  17.917  0.00  0.00    +0.000 C 
ATOM     28  C   UNL     1       8.613   9.246  18.064  0.00  0.00    +0.000 C 
BRANCH  27  29
ATOM     29  O   UNL     1       6.726   8.167  17.000  0.00  0.00    +0.000 OA
ATOM     30  H   UNL     1       6.360   7.273  16.816  0.00  0.00    +0.000 HD
ENDBRANCH  27  29
ENDBRANCH  24  26
ENDBRANCH   4  24
TORSDOF 8
ENDMDL
