MODEL 1
REMARK VINA RESULT:      -7.5      0.000      0.000
REMARK  Name = 
REMARK  7 active torsions:
REMARK  status: ('A' for Active; 'I' for Inactive)
REMARK    1  A    between atoms: C_1  and  N_2
REMARK    2  A    between atoms: C_5  and  C_6
REMARK    3  A    between atoms: C_9  and  C_10
REMARK    4  A    between atoms: C_10  and  O_12
REMARK    5  A    between atoms: C_18  and  C_19
REMARK    6  A    between atoms: C_22  and  C_23
REMARK    7  A    between atoms: C_23  and  O_25
REMARK                            x       y       z     vdW  Elec       q    Type
REMARK                         _______ _______ _______ _____ _____    ______ ____
ROOT
ATOM      1  C   UNL     1      -1.033  11.118  18.418  0.00  0.00    +0.000 C 
ATOM      2  N   UNL     1      -0.504  10.836  19.751  0.00  0.00    +0.000 NA
ATOM      3  C   UNL     1      -0.189   9.412  19.894  0.00  0.00    +0.000 C 
ATOM      4  C   UNL     1       0.463   9.113  21.211  0.00  0.00    +0.000 C 
ATOM      5  C   UNL     1       1.342   8.113  21.425  0.00  0.00    +0.000 C 
ATOM      6  C   UNL     1       0.130   9.995  22.374  0.00  0.00    +0.000 C 
ATOM      7  O   UNL     1       0.663   9.836  23.472  0.00  0.00    +0.000 OA
ATOM      8  C   UNL     1      -0.903  11.057  22.159  0.00  0.00    +0.000 C 
ATOM      9  C   UNL     1      -1.260  11.803  23.225  0.00  0.00    +0.000 C 
ATOM     10  C   UNL     1      -1.474  11.210  20.782  0.00  0.00    +0.000 C 
ENDROOT
BRANCH   5  11
ATOM     11  C   UNL     1       1.782   7.158  20.404  0.00  0.00    +0.000 A 
ATOM     12  C   UNL     1       1.607   5.786  20.609  0.00  0.00    +0.000 A 
ATOM     13  C   UNL     1       2.004   4.872  19.629  0.00  0.00    +0.000 A 
ATOM     14  C   UNL     1       2.570   5.317  18.428  0.00  0.00    +0.000 A 
ATOM     15  C   UNL     1       2.742   6.692  18.218  0.00  0.00    +0.000 A 
ATOM     16  C   UNL     1       2.358   7.608  19.208  0.00  0.00    +0.000 A 
BRANCH  14  17
ATOM     17  C   UNL     1       2.905   4.290  17.402  0.00  0.00    +0.000 C 
ATOM     18  O   UNL     1       3.981   4.268  16.828  0.00  0.00    +0.000 OA
BRANCH  17  19
ATOM     19  O   UNL     1       1.918   3.413  17.135  0.00  0.00    +0.000 OA
ATOM     20  H   UNL     1       1.915   2.598  17.667  0.00  0.00    +0.000 HD
ENDBRANCH  17  19
ENDBRANCH  14  17
ENDBRANCH   5  11
BRANCH   9  21
ATOM     21  C   UNL     1      -2.325  12.810  23.199  0.00  0.00    +0.000 A 
ATOM     22  C   UNL     1      -3.610  12.463  23.628  0.00  0.00    +0.000 A 
ATOM     23  C   UNL     1      -4.636  13.411  23.613  0.00  0.00    +0.000 A 
ATOM     24  C   UNL     1      -4.392  14.714  23.163  0.00  0.00    +0.000 A 
ATOM     25  C   UNL     1      -3.105  15.065  22.733  0.00  0.00    +0.000 A 
ATOM     26  C   UNL     1      -2.078  14.110  22.745  0.00  0.00    +0.000 A 
BRANCH  24  27
ATOM     27  C   UNL     1      -5.518  15.684  23.226  0.00  0.00    +0.000 C 
ATOM     28  O   UNL     1      -5.667  16.569  22.399  0.00  0.00    +0.000 OA
BRANCH  27  29
ATOM     29  O   UNL     1      -6.337  15.537  24.287  0.00  0.00    +0.000 OA
ATOM     30  H   UNL     1      -7.001  14.830  24.216  0.00  0.00    +0.000 HD
ENDBRANCH  27  29
ENDBRANCH  24  27
ENDBRANCH   9  21
TORSDOF 6
ENDMDL
MODEL 2
REMARK VINA RESULT:      -7.3      0.277      1.316
REMARK  Name = 
REMARK  7 active torsions:
REMARK  status: ('A' for Active; 'I' for Inactive)
REMARK    1  A    between atoms: C_1  and  N_2
REMARK    2  A    between atoms: C_5  and  C_6
REMARK    3  A    between atoms: C_9  and  C_10
REMARK    4  A    between atoms: C_10  and  O_12
REMARK    5  A    between atoms: C_18  and  C_19
REMARK    6  A    between atoms: C_22  and  C_23
REMARK    7  A    between atoms: C_23  and  O_25
REMARK                            x       y       z     vdW  Elec       q    Type
REMARK                         _______ _______ _______ _____ _____    ______ ____
ROOT
ATOM      1  C   UNL     1      -0.990  11.120  18.461  0.00  0.00    +0.000 C 
ATOM      2  N   UNL     1      -0.452  10.802  19.782  0.00  0.00    +0.000 NA
ATOM      3  C   UNL     1      -0.159   9.371  19.893  0.00  0.00    +0.000 C 
ATOM      4  C   UNL     1       0.501   9.035  21.197  0.00  0.00    +0.000 C 
ATOM      5  C   UNL     1       1.365   8.016  21.382  0.00  0.00    +0.000 C 
ATOM      6  C   UNL     1       0.194   9.898  22.381  0.00  0.00    +0.000 C 
ATOM      7  O   UNL     1       0.735   9.708  23.470  0.00  0.00    +0.000 OA
ATOM      8  C   UNL     1      -0.824  10.981  22.198  0.00  0.00    +0.000 C 
ATOM      9  C   UNL     1      -1.158  11.711  23.283  0.00  0.00    +0.000 C 
ATOM     10  C   UNL     1      -1.406  11.171  20.830  0.00  0.00    +0.000 C 
ENDROOT
BRANCH   5  11
ATOM     11  C   UNL     1       1.779   7.075  20.337  0.00  0.00    +0.000 A 
ATOM     12  C   UNL     1       2.398   7.549  19.176  0.00  0.00    +0.000 A 
ATOM     13  C   UNL     1       2.816   6.655  18.187  0.00  0.00    +0.000 A 
ATOM     14  C   UNL     1       2.630   5.276  18.349  0.00  0.00    +0.000 A 
ATOM     15  C   UNL     1       2.014   4.798  19.513  0.00  0.00    +0.000 A 
ATOM     16  C   UNL     1       1.581   5.697  20.499  0.00  0.00    +0.000 A 
BRANCH  14  17
ATOM     17  C   UNL     1       3.162   4.380  17.285  0.00  0.00    +0.000 C 
ATOM     18  O   UNL     1       4.235   4.577  16.740  0.00  0.00    +0.000 OA
BRANCH  17  19
ATOM     19  O   UNL     1       2.352   3.356  16.949  0.00  0.00    +0.000 OA
ATOM     20  H   UNL     1       1.450   3.598  16.675  0.00  0.00    +0.000 HD
ENDBRANCH  17  19
ENDBRANCH  14  17
ENDBRANCH   5  11
BRANCH   9  21
ATOM     21  C   UNL     1      -2.206  12.735  23.287  0.00  0.00    +0.000 A 
ATOM     22  C   UNL     1      -1.863  14.071  23.060  0.00  0.00    +0.000 A 
ATOM     23  C   UNL     1      -2.849  15.061  23.057  0.00  0.00    +0.000 A 
ATOM     24  C   UNL     1      -4.190  14.727  23.286  0.00  0.00    +0.000 A 
ATOM     25  C   UNL     1      -4.537  13.388  23.513  0.00  0.00    +0.000 A 
ATOM     26  C   UNL     1      -3.544  12.398  23.520  0.00  0.00    +0.000 A 
BRANCH  24  27
ATOM     27  C   UNL     1      -5.193  15.823  23.214  0.00  0.00    +0.000 C 
ATOM     28  O   UNL     1      -5.480  16.380  22.167  0.00  0.00    +0.000 OA
BRANCH  27  29
ATOM     29  O   UNL     1      -5.730  16.181  24.398  0.00  0.00    +0.000 OA
ATOM     30  H   UNL     1      -6.701  16.162  24.447  0.00  0.00    +0.000 HD
ENDBRANCH  27  29
ENDBRANCH  24  27
ENDBRANCH   9  21
TORSDOF 6
ENDMDL
MODEL 3
REMARK VINA RESULT:      -7.3      0.254      1.270
REMARK  Name = 
REMARK  7 active torsions:
REMARK  status: ('A' for Active; 'I' for Inactive)
REMARK    1  A    between atoms: C_1  and  N_2
REMARK    2  A    between atoms: C_5  and  C_6
REMARK    3  A    between atoms: C_9  and  C_10
REMARK    4  A    between atoms: C_10  and  O_12
REMARK    5  A    between atoms: C_18  and  C_19
REMARK    6  A    between atoms: C_22  and  C_23
REMARK    7  A    between atoms: C_23  and  O_25
REMARK                            x       y       z     vdW  Elec       q    Type
REMARK                         _______ _______ _______ _____ _____    ______ ____
ROOT
ATOM      1  C   UNL     1      -0.912  11.194  18.379  0.00  0.00    +0.000 C 
ATOM      2  N   UNL     1      -0.418  10.878  19.717  0.00  0.00    +0.000 NA
ATOM      3  C   UNL     1      -0.170   9.440  19.854  0.00  0.00    +0.000 C 
ATOM      4  C   UNL     1       0.446   9.103  21.179  0.00  0.00    +0.000 C 
ATOM      5  C   UNL     1       1.275   8.063  21.399  0.00  0.00    +0.000 C 
ATOM      6  C   UNL     1       0.133   9.990  22.344  0.00  0.00    +0.000 C 
ATOM      7  O   UNL     1       0.639   9.799  23.449  0.00  0.00    +0.000 OA
ATOM      8  C   UNL     1      -0.848  11.099  22.120  0.00  0.00    +0.000 C 
ATOM      9  C   UNL     1      -1.189  11.853  23.187  0.00  0.00    +0.000 C 
ATOM     10  C   UNL     1      -1.388  11.288  20.735  0.00  0.00    +0.000 C 
ENDROOT
BRANCH   5  11
ATOM     11  C   UNL     1       1.689   7.097  20.378  0.00  0.00    +0.000 A 
ATOM     12  C   UNL     1       2.299   7.543  19.201  0.00  0.00    +0.000 A 
ATOM     13  C   UNL     1       2.717   6.625  18.234  0.00  0.00    +0.000 A 
ATOM     14  C   UNL     1       2.540   5.251  18.433  0.00  0.00    +0.000 A 
ATOM     15  C   UNL     1       1.933   4.800  19.613  0.00  0.00    +0.000 A 
ATOM     16  C   UNL     1       1.500   5.723  20.577  0.00  0.00    +0.000 A 
BRANCH  14  17
ATOM     17  C   UNL     1       3.072   4.329  17.390  0.00  0.00    +0.000 C 
ATOM     18  O   UNL     1       2.429   3.383  16.965  0.00  0.00    +0.000 OA
BRANCH  17  19
ATOM     19  O   UNL     1       4.326   4.600  16.980  0.00  0.00    +0.000 OA
ATOM     20  H   UNL     1       4.420   5.333  16.347  0.00  0.00    +0.000 HD
ENDBRANCH  17  19
ENDBRANCH  14  17
ENDBRANCH   5  11
BRANCH   9  21
ATOM     21  C   UNL     1      -2.207  12.907  23.151  0.00  0.00    +0.000 A 
ATOM     22  C   UNL     1      -3.539  12.585  23.429  0.00  0.00    +0.000 A 
ATOM     23  C   UNL     1      -4.522  13.577  23.403  0.00  0.00    +0.000 A 
ATOM     24  C   UNL     1      -4.187  14.901  23.093  0.00  0.00    +0.000 A 
ATOM     25  C   UNL     1      -2.852  15.226  22.814  0.00  0.00    +0.000 A 
ATOM     26  C   UNL     1      -1.868  14.227  22.837  0.00  0.00    +0.000 A 
BRANCH  24  27
ATOM     27  C   UNL     1      -5.275  15.914  23.137  0.00  0.00    +0.000 C 
ATOM     28  O   UNL     1      -6.148  15.901  23.990  0.00  0.00    +0.000 OA
BRANCH  27  29
ATOM     29  O   UNL     1      -5.247  16.822  22.141  0.00  0.00    +0.000 OA
ATOM     30  H   UNL     1      -6.105  17.205  21.890  0.00  0.00    +0.000 HD
ENDBRANCH  27  29
ENDBRANCH  24  27
ENDBRANCH   9  21
TORSDOF 6
ENDMDL
MODEL 4
REMARK VINA RESULT:      -7.3      2.492     10.571
REMARK  Name = 
REMARK  7 active torsions:
REMARK  status: ('A' for Active; 'I' for Inactive)
REMARK    1  A    between atoms: C_1  and  N_2
REMARK    2  A    between atoms: C_5  and  C_6
REMARK    3  A    between atoms: C_9  and  C_10
REMARK    4  A    between atoms: C_10  and  O_12
REMARK    5  A    between atoms: C_18  and  C_19
REMARK    6  A    between atoms: C_22  and  C_23
REMARK    7  A    between atoms: C_23  and  O_25
REMARK                            x       y       z     vdW  Elec       q    Type
REMARK                         _______ _______ _______ _____ _____    ______ ____
ROOT
ATOM      1  C   UNL     1       1.122   8.709  22.525  0.00  0.00    +0.000 C 
ATOM      2  N   UNL     1       1.409   9.104  21.148  0.00  0.00    +0.000 NA
ATOM      3  C   UNL     1       0.348   9.968  20.624  0.00  0.00    +0.000 C 
ATOM      4  C   UNL     1       0.673  10.482  19.253  0.00  0.00    +0.000 C 
ATOM      5  C   UNL     1       0.247  11.659  18.752  0.00  0.00    +0.000 C 
ATOM      6  C   UNL     1       1.545   9.638  18.376  0.00  0.00    +0.000 C 
ATOM      7  O   UNL     1       1.888  10.018  17.257  0.00  0.00    +0.000 OA
ATOM      8  C   UNL     1       1.954   8.296  18.899  0.00  0.00    +0.000 C 
ATOM      9  C   UNL     1       2.677   7.502  18.081  0.00  0.00    +0.000 C 
ATOM     10  C   UNL     1       1.526   7.925  20.287  0.00  0.00    +0.000 C 
ENDROOT
BRANCH   5  11
ATOM     11  C   UNL     1      -0.609  12.609  19.469  0.00  0.00    +0.000 A 
ATOM     12  C   UNL     1      -1.974  12.343  19.618  0.00  0.00    +0.000 A 
ATOM     13  C   UNL     1      -2.790  13.233  20.322  0.00  0.00    +0.000 A 
ATOM     14  C   UNL     1      -2.253  14.394  20.892  0.00  0.00    +0.000 A 
ATOM     15  C   UNL     1      -0.884  14.660  20.747  0.00  0.00    +0.000 A 
ATOM     16  C   UNL     1      -0.069  13.774  20.029  0.00  0.00    +0.000 A 
BRANCH  14  17
ATOM     17  C   UNL     1      -3.170  15.260  21.684  0.00  0.00    +0.000 C 
ATOM     18  O   UNL     1      -2.966  16.452  21.844  0.00  0.00    +0.000 OA
BRANCH  17  19
ATOM     19  O   UNL     1      -4.219  14.620  22.237  0.00  0.00    +0.000 OA
ATOM     20  H   UNL     1      -4.277  14.656  23.208  0.00  0.00    +0.000 HD
ENDBRANCH  17  19
ENDBRANCH  14  17
ENDBRANCH   5  11
BRANCH   9  21
ATOM     21  C   UNL     1       3.066   6.128  18.409  0.00  0.00    +0.000 A 
ATOM     22  C   UNL     1       4.330   5.883  18.953  0.00  0.00    +0.000 A 
ATOM     23  C   UNL     1       4.717   4.580  19.276  0.00  0.00    +0.000 A 
ATOM     24  C   UNL     1       3.846   3.506  19.053  0.00  0.00    +0.000 A 
ATOM     25  C   UNL     1       2.577   3.749  18.509  0.00  0.00    +0.000 A 
ATOM     26  C   UNL     1       2.194   5.058  18.182  0.00  0.00    +0.000 A 
BRANCH  24  27
ATOM     27  C   UNL     1       4.304   2.154  19.471  0.00  0.00    +0.000 C 
ATOM     28  O   UNL     1       4.922   1.962  20.505  0.00  0.00    +0.000 OA
BRANCH  27  29
ATOM     29  O   UNL     1       4.019   1.164  18.601  0.00  0.00    +0.000 OA
ATOM     30  H   UNL     1       4.729   0.518  18.444  0.00  0.00    +0.000 HD
ENDBRANCH  27  29
ENDBRANCH  24  27
ENDBRANCH   9  21
TORSDOF 6
ENDMDL
MODEL 5
REMARK VINA RESULT:      -7.2      2.458     10.556
REMARK  Name = 
REMARK  7 active torsions:
REMARK  status: ('A' for Active; 'I' for Inactive)
REMARK    1  A    between atoms: C_1  and  N_2
REMARK    2  A    between atoms: C_5  and  C_6
REMARK    3  A    between atoms: C_9  and  C_10
REMARK    4  A    between atoms: C_10  and  O_12
REMARK    5  A    between atoms: C_18  and  C_19
REMARK    6  A    between atoms: C_22  and  C_23
REMARK    7  A    between atoms: C_23  and  O_25
REMARK                            x       y       z     vdW  Elec       q    Type
REMARK                         _______ _______ _______ _____ _____    ______ ____
ROOT
ATOM      1  C   UNL     1       1.211   8.796  22.598  0.00  0.00    +0.000 C 
ATOM      2  N   UNL     1       1.444   9.140  21.197  0.00  0.00    +0.000 NA
ATOM      3  C   UNL     1       0.333   9.935  20.667  0.00  0.00    +0.000 C 
ATOM      4  C   UNL     1       0.597  10.399  19.266  0.00  0.00    +0.000 C 
ATOM      5  C   UNL     1       0.107  11.534  18.726  0.00  0.00    +0.000 C 
ATOM      6  C   UNL     1       1.479   9.553  18.401  0.00  0.00    +0.000 C 
ATOM      7  O   UNL     1       1.775   9.897  17.257  0.00  0.00    +0.000 OA
ATOM      8  C   UNL     1       1.960   8.254  18.971  0.00  0.00    +0.000 C 
ATOM      9  C   UNL     1       2.692   7.455  18.167  0.00  0.00    +0.000 C 
ATOM     10  C   UNL     1       1.587   7.930  20.386  0.00  0.00    +0.000 C 
ENDROOT
BRANCH   5  11
ATOM     11  C   UNL     1      -0.768  12.479  19.426  0.00  0.00    +0.000 A 
ATOM     12  C   UNL     1      -2.115  12.164  19.629  0.00  0.00    +0.000 A 
ATOM     13  C   UNL     1      -2.949  13.050  20.316  0.00  0.00    +0.000 A 
ATOM     14  C   UNL     1      -2.446  14.258  20.817  0.00  0.00    +0.000 A 
ATOM     15  C   UNL     1      -1.095  14.574  20.618  0.00  0.00    +0.000 A 
ATOM     16  C   UNL     1      -0.263  13.691  19.916  0.00  0.00    +0.000 A 
BRANCH  14  17
ATOM     17  C   UNL     1      -3.376  15.121  21.597  0.00  0.00    +0.000 C 
ATOM     18  O   UNL     1      -4.378  14.681  22.136  0.00  0.00    +0.000 OA
BRANCH  17  19
ATOM     19  O   UNL     1      -3.043  16.426  21.632  0.00  0.00    +0.000 OA
ATOM     20  H   UNL     1      -3.279  16.948  20.845  0.00  0.00    +0.000 HD
ENDBRANCH  17  19
ENDBRANCH  14  17
ENDBRANCH   5  11
BRANCH   9  21
ATOM     21  C   UNL     1       3.148   6.114  18.544  0.00  0.00    +0.000 A 
ATOM     22  C   UNL     1       2.252   5.043  18.490  0.00  0.00    +0.000 A 
ATOM     23  C   UNL     1       2.670   3.757  18.842  0.00  0.00    +0.000 A 
ATOM     24  C   UNL     1       3.988   3.529  19.258  0.00  0.00    +0.000 A 
ATOM     25  C   UNL     1       4.889   4.601  19.311  0.00  0.00    +0.000 A 
ATOM     26  C   UNL     1       4.464   5.892  18.962  0.00  0.00    +0.000 A 
BRANCH  24  27
ATOM     27  C   UNL     1       4.378   2.126  19.565  0.00  0.00    +0.000 C 
ATOM     28  O   UNL     1       4.993   1.824  20.575  0.00  0.00    +0.000 OA
BRANCH  27  29
ATOM     29  O   UNL     1       4.034   1.222  18.626  0.00  0.00    +0.000 OA
ATOM     30  H   UNL     1       4.551   0.398  18.619  0.00  0.00    +0.000 HD
ENDBRANCH  27  29
ENDBRANCH  24  27
ENDBRANCH   9  21
TORSDOF 6
ENDMDL
MODEL 6
REMARK VINA RESULT:      -7.2      2.875      3.766
REMARK  Name = 
REMARK  7 active torsions:
REMARK  status: ('A' for Active; 'I' for Inactive)
REMARK    1  A    between atoms: C_1  and  N_2
REMARK    2  A    between atoms: C_5  and  C_6
REMARK    3  A    between atoms: C_9  and  C_10
REMARK    4  A    between atoms: C_10  and  O_12
REMARK    5  A    between atoms: C_18  and  C_19
REMARK    6  A    between atoms: C_22  and  C_23
REMARK    7  A    between atoms: C_23  and  O_25
REMARK                            x       y       z     vdW  Elec       q    Type
REMARK                         _______ _______ _______ _____ _____    ______ ____
ROOT
ATOM      1  C   UNL     1      -0.182   8.424  21.981  0.00  0.00    +0.000 C 
ATOM      2  N   UNL     1       0.318   8.884  20.688  0.00  0.00    +0.000 NA
ATOM      3  C   UNL     1       1.506   8.123  20.291  0.00  0.00    +0.000 C 
ATOM      4  C   UNL     1       1.974   8.495  18.915  0.00  0.00    +0.000 C 
ATOM      5  C   UNL     1       2.617   7.664  18.071  0.00  0.00    +0.000 C 
ATOM      6  C   UNL     1       1.696   9.885  18.432  0.00  0.00    +0.000 C 
ATOM      7  O   UNL     1       2.011  10.244  17.298  0.00  0.00    +0.000 OA
ATOM      8  C   UNL     1       1.052  10.833  19.396  0.00  0.00    +0.000 C 
ATOM      9  C   UNL     1       0.870  12.107  18.989  0.00  0.00    +0.000 C 
ATOM     10  C   UNL     1       0.665  10.305  20.744  0.00  0.00    +0.000 C 
ENDROOT
BRANCH   5  11
ATOM     11  C   UNL     1       2.968   6.274  18.376  0.00  0.00    +0.000 A 
ATOM     12  C   UNL     1       2.099   5.239  18.015  0.00  0.00    +0.000 A 
ATOM     13  C   UNL     1       2.440   3.910  18.283  0.00  0.00    +0.000 A 
ATOM     14  C   UNL     1       3.654   3.597  18.906  0.00  0.00    +0.000 A 
ATOM     15  C   UNL     1       4.529   4.633  19.265  0.00  0.00    +0.000 A 
ATOM     16  C   UNL     1       4.180   5.967  19.009  0.00  0.00    +0.000 A 
BRANCH  14  17
ATOM     17  C   UNL     1       3.980   2.157  19.097  0.00  0.00    +0.000 C 
ATOM     18  O   UNL     1       3.369   1.268  18.528  0.00  0.00    +0.000 OA
BRANCH  17  19
ATOM     19  O   UNL     1       4.975   1.912  19.972  0.00  0.00    +0.000 OA
ATOM     20  H   UNL     1       4.901   2.352  20.837  0.00  0.00    +0.000 HD
ENDBRANCH  17  19
ENDBRANCH  14  17
ENDBRANCH   5  11
BRANCH   9  21
ATOM     21  C   UNL     1       0.348  13.173  19.848  0.00  0.00    +0.000 A 
ATOM     22  C   UNL     1      -1.000  13.531  19.756  0.00  0.00    +0.000 A 
ATOM     23  C   UNL     1      -1.518  14.542  20.569  0.00  0.00    +0.000 A 
ATOM     24  C   UNL     1      -0.691  15.211  21.481  0.00  0.00    +0.000 A 
ATOM     25  C   UNL     1       0.661  14.852  21.577  0.00  0.00    +0.000 A 
ATOM     26  C   UNL     1       1.177  13.840  20.755  0.00  0.00    +0.000 A 
BRANCH  24  27
ATOM     27  C   UNL     1      -1.321  16.238  22.353  0.00  0.00    +0.000 C 
ATOM     28  O   UNL     1      -0.697  16.841  23.210  0.00  0.00    +0.000 OA
BRANCH  27  29
ATOM     29  O   UNL     1      -2.641  16.424  22.150  0.00  0.00    +0.000 OA
ATOM     30  H   UNL     1      -3.215  15.669  22.368  0.00  0.00    +0.000 HD
ENDBRANCH  27  29
ENDBRANCH  24  27
ENDBRANCH   9  21
TORSDOF 6
ENDMDL
MODEL 7
REMARK VINA RESULT:      -7.2      2.484     10.585
REMARK  Name = 
REMARK  7 active torsions:
REMARK  status: ('A' for Active; 'I' for Inactive)
REMARK    1  A    between atoms: C_1  and  N_2
REMARK    2  A    between atoms: C_5  and  C_6
REMARK    3  A    between atoms: C_9  and  C_10
REMARK    4  A    between atoms: C_10  and  O_12
REMARK    5  A    between atoms: C_18  and  C_19
REMARK    6  A    between atoms: C_22  and  C_23
REMARK    7  A    between atoms: C_23  and  O_25
REMARK                            x       y       z     vdW  Elec       q    Type
REMARK                         _______ _______ _______ _____ _____    ______ ____
ROOT
ATOM      1  C   UNL     1       1.034   8.662  22.503  0.00  0.00    +0.000 C 
ATOM      2  N   UNL     1       1.339   9.094  21.141  0.00  0.00    +0.000 NA
ATOM      3  C   UNL     1       0.282   9.967  20.624  0.00  0.00    +0.000 C 
ATOM      4  C   UNL     1       0.623  10.518  19.272  0.00  0.00    +0.000 C 
ATOM      5  C   UNL     1       0.199  11.707  18.796  0.00  0.00    +0.000 C 
ATOM      6  C   UNL     1       1.510   9.701  18.385  0.00  0.00    +0.000 C 
ATOM      7  O   UNL     1       1.867  10.112  17.281  0.00  0.00    +0.000 OA
ATOM      8  C   UNL     1       1.918   8.347  18.879  0.00  0.00    +0.000 C 
ATOM      9  C   UNL     1       2.655   7.578  18.050  0.00  0.00    +0.000 C 
ATOM     10  C   UNL     1       1.473   7.939  20.251  0.00  0.00    +0.000 C 
ENDROOT
BRANCH   5  11
ATOM     11  C   UNL     1      -0.671  12.633  19.526  0.00  0.00    +0.000 A 
ATOM     12  C   UNL     1      -0.134  13.793  20.095  0.00  0.00    +0.000 A 
ATOM     13  C   UNL     1      -0.963  14.692  20.771  0.00  0.00    +0.000 A 
ATOM     14  C   UNL     1      -2.338  14.451  20.881  0.00  0.00    +0.000 A 
ATOM     15  C   UNL     1      -2.879  13.291  20.308  0.00  0.00    +0.000 A 
ATOM     16  C   UNL     1      -2.044  12.382  19.642  0.00  0.00    +0.000 A 
BRANCH  14  17
ATOM     17  C   UNL     1      -3.168  15.486  21.556  0.00  0.00    +0.000 C 
ATOM     18  O   UNL     1      -3.029  16.678  21.339  0.00  0.00    +0.000 OA
BRANCH  17  19
ATOM     19  O   UNL     1      -4.057  15.006  22.448  0.00  0.00    +0.000 OA
ATOM     20  H   UNL     1      -4.985  15.263  22.307  0.00  0.00    +0.000 HD
ENDBRANCH  17  19
ENDBRANCH  14  17
ENDBRANCH   5  11
BRANCH   9  21
ATOM     21  C   UNL     1       3.046   6.197  18.348  0.00  0.00    +0.000 A 
ATOM     22  C   UNL     1       2.169   5.153  18.039  0.00  0.00    +0.000 A 
ATOM     23  C   UNL     1       2.526   3.830  18.312  0.00  0.00    +0.000 A 
ATOM     24  C   UNL     1       3.761   3.537  18.903  0.00  0.00    +0.000 A 
ATOM     25  C   UNL     1       4.643   4.582  19.213  0.00  0.00    +0.000 A 
ATOM     26  C   UNL     1       4.279   5.909  18.941  0.00  0.00    +0.000 A 
BRANCH  24  27
ATOM     27  C   UNL     1       4.097   2.103  19.116  0.00  0.00    +0.000 C 
ATOM     28  O   UNL     1       3.537   1.203  18.511  0.00  0.00    +0.000 OA
BRANCH  27  29
ATOM     29  O   UNL     1       5.038   1.873  20.054  0.00  0.00    +0.000 OA
ATOM     30  H   UNL     1       5.382   0.964  20.096  0.00  0.00    +0.000 HD
ENDBRANCH  27  29
ENDBRANCH  24  27
ENDBRANCH   9  21
TORSDOF 6
ENDMDL
MODEL 8
REMARK VINA RESULT:      -7.2      2.962      3.885
REMARK  Name = 
REMARK  7 active torsions:
REMARK  status: ('A' for Active; 'I' for Inactive)
REMARK    1  A    between atoms: C_1  and  N_2
REMARK    2  A    between atoms: C_5  and  C_6
REMARK    3  A    between atoms: C_9  and  C_10
REMARK    4  A    between atoms: C_10  and  O_12
REMARK    5  A    between atoms: C_18  and  C_19
REMARK    6  A    between atoms: C_22  and  C_23
REMARK    7  A    between atoms: C_23  and  O_25
REMARK                            x       y       z     vdW  Elec       q    Type
REMARK                         _______ _______ _______ _____ _____    ______ ____
ROOT
ATOM      1  C   UNL     1      -0.154   8.392  22.002  0.00  0.00    +0.000 C 
ATOM      2  N   UNL     1       0.337   8.854  20.707  0.00  0.00    +0.000 NA
ATOM      3  C   UNL     1       1.524   8.095  20.301  0.00  0.00    +0.000 C 
ATOM      4  C   UNL     1       1.982   8.470  18.923  0.00  0.00    +0.000 C 
ATOM      5  C   UNL     1       2.621   7.640  18.073  0.00  0.00    +0.000 C 
ATOM      6  C   UNL     1       1.701   9.860  18.444  0.00  0.00    +0.000 C 
ATOM      7  O   UNL     1       2.009  10.221  17.308  0.00  0.00    +0.000 OA
ATOM      8  C   UNL     1       1.063  10.806  19.413  0.00  0.00    +0.000 C 
ATOM      9  C   UNL     1       0.878  12.081  19.009  0.00  0.00    +0.000 C 
ATOM     10  C   UNL     1       0.684  10.276  20.763  0.00  0.00    +0.000 C 
ENDROOT
BRANCH   5  11
ATOM     11  C   UNL     1       2.975   6.250  18.374  0.00  0.00    +0.000 A 
ATOM     12  C   UNL     1       2.098   5.216  18.028  0.00  0.00    +0.000 A 
ATOM     13  C   UNL     1       2.441   3.887  18.291  0.00  0.00    +0.000 A 
ATOM     14  C   UNL     1       3.665   3.573  18.894  0.00  0.00    +0.000 A 
ATOM     15  C   UNL     1       4.546   4.607  19.239  0.00  0.00    +0.000 A 
ATOM     16  C   UNL     1       4.196   5.941  18.988  0.00  0.00    +0.000 A 
BRANCH  14  17
ATOM     17  C   UNL     1       3.991   2.132  19.082  0.00  0.00    +0.000 C 
ATOM     18  O   UNL     1       3.386   1.244  18.504  0.00  0.00    +0.000 OA
BRANCH  17  19
ATOM     19  O   UNL     1       4.979   1.884  19.964  0.00  0.00    +0.000 OA
ATOM     20  H   UNL     1       5.718   2.517  19.966  0.00  0.00    +0.000 HD
ENDBRANCH  17  19
ENDBRANCH  14  17
ENDBRANCH   5  11
BRANCH   9  21
ATOM     21  C   UNL     1       0.360  13.145  19.874  0.00  0.00    +0.000 A 
ATOM     22  C   UNL     1       1.230  13.809  20.742  0.00  0.00    +0.000 A 
ATOM     23  C   UNL     1       0.755  14.829  21.571  0.00  0.00    +0.000 A 
ATOM     24  C   UNL     1      -0.597  15.192  21.545  0.00  0.00    +0.000 A 
ATOM     25  C   UNL     1      -1.472  14.528  20.673  0.00  0.00    +0.000 A 
ATOM     26  C   UNL     1      -0.992  13.502  19.847  0.00  0.00    +0.000 A 
BRANCH  24  27
ATOM     27  C   UNL     1      -1.022  16.322  22.414  0.00  0.00    +0.000 C 
ATOM     28  O   UNL     1      -2.069  16.924  22.241  0.00  0.00    +0.000 OA
BRANCH  27  29
ATOM     29  O   UNL     1      -0.144  16.655  23.382  0.00  0.00    +0.000 OA
ATOM     30  H   UNL     1      -0.119  16.064  24.155  0.00  0.00    +0.000 HD
ENDBRANCH  27  29
ENDBRANCH  24  27
ENDBRANCH   9  21
TORSDOF 6
ENDMDL
MODEL 9
REMARK VINA RESULT:      -7.1      2.962      3.788
REMARK  Name = 
REMARK  7 active torsions:
REMARK  status: ('A' for Active; 'I' for Inactive)
REMARK    1  A    between atoms: C_1  and  N_2
REMARK    2  A    between atoms: C_5  and  C_6
REMARK    3  A    between atoms: C_9  and  C_10
REMARK    4  A    between atoms: C_10  and  O_12
REMARK    5  A    between atoms: C_18  and  C_19
REMARK    6  A    between atoms: C_22  and  C_23
REMARK    7  A    between atoms: C_23  and  O_25
REMARK                            x       y       z     vdW  Elec       q    Type
REMARK                         _______ _______ _______ _____ _____    ______ ____
ROOT
ATOM      1  C   UNL     1      -0.167   8.352  21.910  0.00  0.00    +0.000 C 
ATOM      2  N   UNL     1       0.340   8.864  20.639  0.00  0.00    +0.000 NA
ATOM      3  C   UNL     1       1.518   8.106  20.206  0.00  0.00    +0.000 C 
ATOM      4  C   UNL     1       1.991   8.535  18.849  0.00  0.00    +0.000 C 
ATOM      5  C   UNL     1       2.623   7.735  17.967  0.00  0.00    +0.000 C 
ATOM      6  C   UNL     1       1.733   9.949  18.432  0.00  0.00    +0.000 C 
ATOM      7  O   UNL     1       2.053  10.357  17.315  0.00  0.00    +0.000 OA
ATOM      8  C   UNL     1       1.103  10.861  19.439  0.00  0.00    +0.000 C 
ATOM      9  C   UNL     1       0.939  12.155  19.092  0.00  0.00    +0.000 C 
ATOM     10  C   UNL     1       0.707  10.276  20.762  0.00  0.00    +0.000 C 
ENDROOT
BRANCH   5  11
ATOM     11  C   UNL     1       2.954   6.328  18.207  0.00  0.00    +0.000 A 
ATOM     12  C   UNL     1       4.204   5.984  18.731  0.00  0.00    +0.000 A 
ATOM     13  C   UNL     1       4.516   4.646  18.985  0.00  0.00    +0.000 A 
ATOM     14  C   UNL     1       3.582   3.635  18.726  0.00  0.00    +0.000 A 
ATOM     15  C   UNL     1       2.327   3.977  18.205  0.00  0.00    +0.000 A 
ATOM     16  C   UNL     1       2.019   5.319  17.937  0.00  0.00    +0.000 A 
BRANCH  14  17
ATOM     17  C   UNL     1       3.960   2.239  19.084  0.00  0.00    +0.000 C 
ATOM     18  O   UNL     1       3.343   1.270  18.675  0.00  0.00    +0.000 OA
BRANCH  17  19
ATOM     19  O   UNL     1       5.011   2.133  19.921  0.00  0.00    +0.000 OA
ATOM     20  H   UNL     1       5.671   1.455  19.693  0.00  0.00    +0.000 HD
ENDBRANCH  17  19
ENDBRANCH  14  17
ENDBRANCH   5  11
BRANCH   9  21
ATOM     21  C   UNL     1       0.431  13.187  20.000  0.00  0.00    +0.000 A 
ATOM     22  C   UNL     1      -0.920  13.542  19.950  0.00  0.00    +0.000 A 
ATOM     23  C   UNL     1      -1.423  14.521  20.811  0.00  0.00    +0.000 A 
ATOM     24  C   UNL     1      -0.579  15.160  21.728  0.00  0.00    +0.000 A 
ATOM     25  C   UNL     1       0.776  14.804  21.781  0.00  0.00    +0.000 A 
ATOM     26  C   UNL     1       1.278  13.825  20.912  0.00  0.00    +0.000 A 
BRANCH  24  27
ATOM     27  C   UNL     1      -1.193  16.153  22.650  0.00  0.00    +0.000 C 
ATOM     28  O   UNL     1      -1.620  17.228  22.263  0.00  0.00    +0.000 OA
BRANCH  27  29
ATOM     29  O   UNL     1      -1.206  15.790  23.949  0.00  0.00    +0.000 OA
ATOM     30  H   UNL     1      -1.439  14.863  24.129  0.00  0.00    +0.000 HD
ENDBRANCH  27  29
ENDBRANCH  24  27
ENDBRANCH   9  21
TORSDOF 6
ENDMDL
