MODEL 1
REMARK VINA RESULT:      -9.0      0.000      0.000
REMARK  Name = 
REMARK  5 active torsions:
REMARK  status: ('A' for Active; 'I' for Inactive)
REMARK    1  A    between atoms: C_1  and  C_2
REMARK    2  A    between atoms: C_10  and  C_11
REMARK    3  A    between atoms: C_16  and  N_17
REMARK    4  A    between atoms: N_17  and  S_18
REMARK    5  A    between atoms: S_18  and  C_21
REMARK                            x       y       z     vdW  Elec       q    Type
REMARK                         _______ _______ _______ _____ _____    ______ ____
ROOT
ATOM      1  C   UNL     1       3.807   6.731  17.890  0.00  0.00    +0.000 A 
ATOM      2  C   UNL     1       4.559   6.854  16.716  0.00  0.00    +0.000 A 
ATOM      3  N   UNL     1       5.540   6.010  16.318  0.00  0.00    +0.000 NA
ATOM      4  C   UNL     1       5.795   4.966  17.129  0.00  0.00    +0.000 A 
ATOM      5 CL   UNL     1       7.136   4.027  16.597  0.00  0.00    +0.000 Cl
ATOM      6  C   UNL     1       5.113   4.707  18.318  0.00  0.00    +0.000 A 
ATOM      7  C   UNL     1       4.105   5.608  18.691  0.00  0.00    +0.000 A 
ENDROOT
BRANCH   1  17
ATOM      8  C   UNL     1      -2.228  11.939  23.545  0.00  0.00    +0.000 C 
ATOM      9  C   UNL     1      -1.182  11.031  22.958  0.00  0.00    +0.000 C 
ATOM     10  O   UNL     1      -0.433  10.399  23.699  0.00  0.00    +0.000 OA
ATOM     11  N   UNL     1      -1.180  11.034  21.580  0.00  0.00    +0.000 N 
ATOM     12  C   UNL     1      -0.341  10.278  20.793  0.00  0.00    +0.000 A 
ATOM     13  N   UNL     1      -0.122  10.561  19.529  0.00  0.00    +0.000 NA
ATOM     14  C   UNL     1       0.832   9.686  19.022  0.00  0.00    +0.000 A 
ATOM     15  C   UNL     1       1.418   9.719  17.742  0.00  0.00    +0.000 A 
ATOM     16  C   UNL     1       2.393   8.767  17.388  0.00  0.00    +0.000 A 
ATOM     17  C   UNL     1       2.796   7.750  18.268  0.00  0.00    +0.000 A 
ATOM     18  C   UNL     1       2.199   7.720  19.546  0.00  0.00    +0.000 A 
ATOM     19  C   UNL     1       1.245   8.689  19.900  0.00  0.00    +0.000 A 
ATOM     20  S   UNL     1       0.415   8.874  21.387  0.00  0.00    +0.000 S 
ATOM     21  H   UNL     1      -1.659  11.769  21.080  0.00  0.00    +0.000 HD
ENDBRANCH   1  17
BRANCH   6  22
ATOM     22  N   UNL     1       5.459   3.622  19.183  0.00  0.00    +0.000 N 
ATOM     23  H   UNL     1       5.841   3.826  20.106  0.00  0.00    +0.000 HD
BRANCH  22  24
ATOM     24  S   UNL     1       4.598   2.180  19.134  0.00  0.00    +0.000 S 
ATOM     25  O   UNL     1       4.545   1.801  17.737  0.00  0.00    +0.000 OA
ATOM     26  O   UNL     1       5.154   1.280  20.126  0.00  0.00    +0.000 OA
BRANCH  24  27
ATOM     27  C   UNL     1       2.954   2.629  19.635  0.00  0.00    +0.000 A 
ATOM     28  C   UNL     1       2.709   3.016  20.956  0.00  0.00    +0.000 A 
ATOM     29  C   UNL     1       1.422   3.411  21.329  0.00  0.00    +0.000 A 
ATOM     30  C   UNL     1       0.395   3.432  20.384  0.00  0.00    +0.000 A 
ATOM     31  C   UNL     1       0.648   3.063  19.063  0.00  0.00    +0.000 A 
ATOM     32  C   UNL     1       1.931   2.665  18.683  0.00  0.00    +0.000 A 
ENDBRANCH  24  27
ENDBRANCH  22  24
ENDBRANCH   6  22
TORSDOF 4
ENDMDL
MODEL 2
REMARK VINA RESULT:      -9.0      2.390      4.038
REMARK  Name = 
REMARK  5 active torsions:
REMARK  status: ('A' for Active; 'I' for Inactive)
REMARK    1  A    between atoms: C_1  and  C_2
REMARK    2  A    between atoms: C_10  and  C_11
REMARK    3  A    between atoms: C_16  and  N_17
REMARK    4  A    between atoms: N_17  and  S_18
REMARK    5  A    between atoms: S_18  and  C_21
REMARK                            x       y       z     vdW  Elec       q    Type
REMARK                         _______ _______ _______ _____ _____    ______ ____
ROOT
ATOM      1  C   UNL     1       2.802   6.464  18.887  0.00  0.00    +0.000 A 
ATOM      2  C   UNL     1       2.797   5.638  20.019  0.00  0.00    +0.000 A 
ATOM      3  N   UNL     1       3.258   4.367  20.066  0.00  0.00    +0.000 NA
ATOM      4  C   UNL     1       3.769   3.873  18.922  0.00  0.00    +0.000 A 
ATOM      5 CL   UNL     1       4.213   2.216  19.057  0.00  0.00    +0.000 Cl
ATOM      6  C   UNL     1       3.856   4.586  17.727  0.00  0.00    +0.000 A 
ATOM      7  C   UNL     1       3.365   5.900  17.723  0.00  0.00    +0.000 A 
ENDROOT
BRANCH   1  17
ATOM      8  C   UNL     1      -1.637  14.389  22.493  0.00  0.00    +0.000 C 
ATOM      9  C   UNL     1      -0.936  13.081  22.249  0.00  0.00    +0.000 C 
ATOM     10  O   UNL     1      -0.621  12.369  23.200  0.00  0.00    +0.000 OA
ATOM     11  N   UNL     1      -0.702  12.837  20.913  0.00  0.00    +0.000 N 
ATOM     12  C   UNL     1      -0.097  11.706  20.415  0.00  0.00    +0.000 A 
ATOM     13  N   UNL     1       0.422  11.662  19.209  0.00  0.00    +0.000 NA
ATOM     14  C   UNL     1       1.039  10.431  19.019  0.00  0.00    +0.000 A 
ATOM     15  C   UNL     1       1.799  10.026  17.905  0.00  0.00    +0.000 A 
ATOM     16  C   UNL     1       2.380   8.744  17.877  0.00  0.00    +0.000 A 
ATOM     17  C   UNL     1       2.210   7.824  18.924  0.00  0.00    +0.000 A 
ATOM     18  C   UNL     1       1.442   8.236  20.034  0.00  0.00    +0.000 A 
ATOM     19  C   UNL     1       0.886   9.526  20.065  0.00  0.00    +0.000 A 
ATOM     20  S   UNL     1      -0.047  10.255  21.303  0.00  0.00    +0.000 S 
ATOM     21  H   UNL     1      -0.772  13.592  20.246  0.00  0.00    +0.000 HD
ENDBRANCH   1  17
BRANCH   6  22
ATOM     22  N   UNL     1       4.346   4.002  16.516  0.00  0.00    +0.000 N 
ATOM     23  H   UNL     1       3.693   3.522  15.897  0.00  0.00    +0.000 HD
BRANCH  22  24
ATOM     24  S   UNL     1       5.640   4.692  15.695  0.00  0.00    +0.000 S 
ATOM     25  O   UNL     1       6.417   3.583  15.182  0.00  0.00    +0.000 OA
ATOM     26  O   UNL     1       5.124   5.712  14.803  0.00  0.00    +0.000 OA
BRANCH  24  27
ATOM     27  C   UNL     1       6.598   5.483  16.964  0.00  0.00    +0.000 A 
ATOM     28  C   UNL     1       7.208   4.713  17.959  0.00  0.00    +0.000 A 
ATOM     29  C   UNL     1       7.998   5.341  18.926  0.00  0.00    +0.000 A 
ATOM     30  C   UNL     1       8.185   6.723  18.887  0.00  0.00    +0.000 A 
ATOM     31  C   UNL     1       7.588   7.485  17.883  0.00  0.00    +0.000 A 
ATOM     32  C   UNL     1       6.797   6.867  16.914  0.00  0.00    +0.000 A 
ENDBRANCH  24  27
ENDBRANCH  22  24
ENDBRANCH   6  22
TORSDOF 4
ENDMDL
MODEL 3
REMARK VINA RESULT:      -9.0      2.725      4.557
REMARK  Name = 
REMARK  5 active torsions:
REMARK  status: ('A' for Active; 'I' for Inactive)
REMARK    1  A    between atoms: C_1  and  C_2
REMARK    2  A    between atoms: C_10  and  C_11
REMARK    3  A    between atoms: C_16  and  N_17
REMARK    4  A    between atoms: N_17  and  S_18
REMARK    5  A    between atoms: S_18  and  C_21
REMARK                            x       y       z     vdW  Elec       q    Type
REMARK                         _______ _______ _______ _____ _____    ______ ____
ROOT
ATOM      1  C   UNL     1       3.091   6.102  19.031  0.00  0.00    +0.000 A 
ATOM      2  C   UNL     1       2.797   5.176  20.038  0.00  0.00    +0.000 A 
ATOM      3  N   UNL     1       3.302   3.923  20.125  0.00  0.00    +0.000 NA
ATOM      4  C   UNL     1       4.163   3.557  19.157  0.00  0.00    +0.000 A 
ATOM      5 CL   UNL     1       4.649   1.911  19.292  0.00  0.00    +0.000 Cl
ATOM      6  C   UNL     1       4.561   4.381  18.105  0.00  0.00    +0.000 A 
ATOM      7  C   UNL     1       4.013   5.671  18.054  0.00  0.00    +0.000 A 
ENDROOT
BRANCH   1  17
ATOM      8  C   UNL     1      -1.629  14.046  22.214  0.00  0.00    +0.000 C 
ATOM      9  C   UNL     1      -0.870  12.759  22.040  0.00  0.00    +0.000 C 
ATOM     10  O   UNL     1      -0.488  12.136  23.027  0.00  0.00    +0.000 OA
ATOM     11  N   UNL     1      -0.668  12.429  20.717  0.00  0.00    +0.000 N 
ATOM     12  C   UNL     1      -0.022  11.295  20.280  0.00  0.00    +0.000 A 
ATOM     13  N   UNL     1       0.458  11.188  19.063  0.00  0.00    +0.000 NA
ATOM     14  C   UNL     1       1.132   9.978  18.939  0.00  0.00    +0.000 A 
ATOM     15  C   UNL     1       1.874   9.529  17.831  0.00  0.00    +0.000 A 
ATOM     16  C   UNL     1       2.519   8.278  17.874  0.00  0.00    +0.000 A 
ATOM     17  C   UNL     1       2.431   7.432  18.990  0.00  0.00    +0.000 A 
ATOM     18  C   UNL     1       1.680   7.886  20.095  0.00  0.00    +0.000 A 
ATOM     19  C   UNL     1       1.059   9.146  20.053  0.00  0.00    +0.000 A 
ATOM     20  S   UNL     1       0.132   9.918  21.268  0.00  0.00    +0.000 S 
ATOM     21  H   UNL     1      -0.799  13.128  20.001  0.00  0.00    +0.000 HD
ENDBRANCH   1  17
BRANCH   6  22
ATOM     22  N   UNL     1       5.429   3.930  17.060  0.00  0.00    +0.000 N 
ATOM     23  H   UNL     1       5.049   3.342  16.319  0.00  0.00    +0.000 HD
BRANCH  22  24
ATOM     24  S   UNL     1       6.717   4.880  16.549  0.00  0.00    +0.000 S 
ATOM     25  O   UNL     1       6.321   6.250  16.803  0.00  0.00    +0.000 OA
ATOM     26  O   UNL     1       7.937   4.342  17.119  0.00  0.00    +0.000 OA
BRANCH  24  27
ATOM     27  C   UNL     1       6.767   4.649  14.789  0.00  0.00    +0.000 A 
ATOM     28  C   UNL     1       7.720   5.326  14.023  0.00  0.00    +0.000 A 
ATOM     29  C   UNL     1       7.780   5.102  12.645  0.00  0.00    +0.000 A 
ATOM     30  C   UNL     1       6.903   4.197  12.044  0.00  0.00    +0.000 A 
ATOM     31  C   UNL     1       5.966   3.510  12.815  0.00  0.00    +0.000 A 
ATOM     32  C   UNL     1       5.898   3.730  14.192  0.00  0.00    +0.000 A 
ENDBRANCH  24  27
ENDBRANCH  22  24
ENDBRANCH   6  22
TORSDOF 4
ENDMDL
MODEL 4
REMARK VINA RESULT:      -8.9      1.793      2.272
REMARK  Name = 
REMARK  5 active torsions:
REMARK  status: ('A' for Active; 'I' for Inactive)
REMARK    1  A    between atoms: C_1  and  C_2
REMARK    2  A    between atoms: C_10  and  C_11
REMARK    3  A    between atoms: C_16  and  N_17
REMARK    4  A    between atoms: N_17  and  S_18
REMARK    5  A    between atoms: S_18  and  C_21
REMARK                            x       y       z     vdW  Elec       q    Type
REMARK                         _______ _______ _______ _____ _____    ______ ____
ROOT
ATOM      1  C   UNL     1       3.340   6.743  18.057  0.00  0.00    +0.000 A 
ATOM      2  C   UNL     1       4.076   7.352  17.033  0.00  0.00    +0.000 A 
ATOM      3  N   UNL     1       4.965   6.726  16.226  0.00  0.00    +0.000 NA
ATOM      4  C   UNL     1       5.135   5.407  16.433  0.00  0.00    +0.000 A 
ATOM      5 CL   UNL     1       6.369   4.735  15.440  0.00  0.00    +0.000 Cl
ATOM      6  C   UNL     1       4.456   4.668  17.402  0.00  0.00    +0.000 A 
ATOM      7  C   UNL     1       3.546   5.357  18.217  0.00  0.00    +0.000 A 
ENDROOT
BRANCH   1  17
ATOM      8  C   UNL     1      -3.157  13.554  20.686  0.00  0.00    +0.000 C 
ATOM      9  C   UNL     1      -2.239  12.594  19.981  0.00  0.00    +0.000 C 
ATOM     10  O   UNL     1      -2.227  12.550  18.753  0.00  0.00    +0.000 OA
ATOM     11  N   UNL     1      -1.497  11.824  20.849  0.00  0.00    +0.000 N 
ATOM     12  C   UNL     1      -0.567  10.884  20.468  0.00  0.00    +0.000 A 
ATOM     13  N   UNL     1      -0.149   9.942  21.281  0.00  0.00    +0.000 NA
ATOM     14  C   UNL     1       0.712   9.092  20.596  0.00  0.00    +0.000 A 
ATOM     15  C   UNL     1       1.292   7.902  21.077  0.00  0.00    +0.000 A 
ATOM     16  C   UNL     1       2.131   7.139  20.243  0.00  0.00    +0.000 A 
ATOM     17  C   UNL     1       2.438   7.534  18.932  0.00  0.00    +0.000 A 
ATOM     18  C   UNL     1       1.858   8.730  18.459  0.00  0.00    +0.000 A 
ATOM     19  C   UNL     1       1.003   9.474  19.290  0.00  0.00    +0.000 A 
ATOM     20  S   UNL     1       0.165  10.925  18.932  0.00  0.00    +0.000 S 
ATOM     21  H   UNL     1      -1.765  11.764  21.821  0.00  0.00    +0.000 HD
ENDBRANCH   1  17
BRANCH   6  22
ATOM     22  N   UNL     1       4.715   3.279  17.633  0.00  0.00    +0.000 N 
ATOM     23  H   UNL     1       5.528   3.012  18.187  0.00  0.00    +0.000 HD
BRANCH  22  24
ATOM     24  S   UNL     1       3.449   2.182  17.753  0.00  0.00    +0.000 S 
ATOM     25  O   UNL     1       2.549   2.497  16.662  0.00  0.00    +0.000 OA
ATOM     26  O   UNL     1       4.008   0.851  17.892  0.00  0.00    +0.000 OA
BRANCH  24  27
ATOM     27  C   UNL     1       2.632   2.613  19.270  0.00  0.00    +0.000 A 
ATOM     28  C   UNL     1       1.299   3.035  19.248  0.00  0.00    +0.000 A 
ATOM     29  C   UNL     1       0.652   3.327  20.452  0.00  0.00    +0.000 A 
ATOM     30  C   UNL     1       1.329   3.184  21.664  0.00  0.00    +0.000 A 
ATOM     31  C   UNL     1       2.653   2.745  21.681  0.00  0.00    +0.000 A 
ATOM     32  C   UNL     1       3.307   2.452  20.484  0.00  0.00    +0.000 A 
ENDBRANCH  24  27
ENDBRANCH  22  24
ENDBRANCH   6  22
TORSDOF 4
ENDMDL
MODEL 5
REMARK VINA RESULT:      -8.7      0.823      1.252
REMARK  Name = 
REMARK  5 active torsions:
REMARK  status: ('A' for Active; 'I' for Inactive)
REMARK    1  A    between atoms: C_1  and  C_2
REMARK    2  A    between atoms: C_10  and  C_11
REMARK    3  A    between atoms: C_16  and  N_17
REMARK    4  A    between atoms: N_17  and  S_18
REMARK    5  A    between atoms: S_18  and  C_21
REMARK                            x       y       z     vdW  Elec       q    Type
REMARK                         _______ _______ _______ _____ _____    ______ ____
ROOT
ATOM      1  C   UNL     1       3.978   6.833  17.709  0.00  0.00    +0.000 A 
ATOM      2  C   UNL     1       5.148   7.278  17.081  0.00  0.00    +0.000 A 
ATOM      3  N   UNL     1       6.195   6.496  16.724  0.00  0.00    +0.000 NA
ATOM      4  C   UNL     1       6.080   5.183  16.996  0.00  0.00    +0.000 A 
ATOM      5 CL   UNL     1       7.508   4.302  16.615  0.00  0.00    +0.000 Cl
ATOM      6  C   UNL     1       4.966   4.598  17.598  0.00  0.00    +0.000 A 
ATOM      7  C   UNL     1       3.906   5.445  17.953  0.00  0.00    +0.000 A 
ENDROOT
BRANCH   1  17
ATOM      8  C   UNL     1      -2.161  11.681  23.567  0.00  0.00    +0.000 C 
ATOM      9  C   UNL     1      -1.080  10.841  22.944  0.00  0.00    +0.000 C 
ATOM     10  O   UNL     1      -0.258  10.273  23.659  0.00  0.00    +0.000 OA
ATOM     11  N   UNL     1      -1.137  10.826  21.567  0.00  0.00    +0.000 N 
ATOM     12  C   UNL     1      -0.281  10.120  20.753  0.00  0.00    +0.000 A 
ATOM     13  N   UNL     1      -0.137  10.401  19.478  0.00  0.00    +0.000 NA
ATOM     14  C   UNL     1       0.854   9.588  18.938  0.00  0.00    +0.000 A 
ATOM     15  C   UNL     1       1.381   9.645  17.634  0.00  0.00    +0.000 A 
ATOM     16  C   UNL     1       2.405   8.759  17.248  0.00  0.00    +0.000 A 
ATOM     17  C   UNL     1       2.915   7.784  18.120  0.00  0.00    +0.000 A 
ATOM     18  C   UNL     1       2.377   7.729  19.423  0.00  0.00    +0.000 A 
ATOM     19  C   UNL     1       1.373   8.633  19.808  0.00  0.00    +0.000 A 
ATOM     20  S   UNL     1       0.596   8.780  21.327  0.00  0.00    +0.000 S 
ATOM     21  H   UNL     1      -1.687  11.519  21.081  0.00  0.00    +0.000 HD
ENDBRANCH   1  17
BRANCH   6  22
ATOM     22  N   UNL     1       4.912   3.207  17.929  0.00  0.00    +0.000 N 
ATOM     23  H   UNL     1       5.531   2.844  18.653  0.00  0.00    +0.000 HD
BRANCH  22  24
ATOM     24  S   UNL     1       3.467   2.356  17.816  0.00  0.00    +0.000 S 
ATOM     25  O   UNL     1       2.724   2.985  16.742  0.00  0.00    +0.000 OA
ATOM     26  O   UNL     1       3.772   0.939  17.776  0.00  0.00    +0.000 OA
BRANCH  24  27
ATOM     27  C   UNL     1       2.624   2.712  19.337  0.00  0.00    +0.000 A 
ATOM     28  C   UNL     1       1.324   3.226  19.311  0.00  0.00    +0.000 A 
ATOM     29  C   UNL     1       0.652   3.458  20.514  0.00  0.00    +0.000 A 
ATOM     30  C   UNL     1       1.272   3.164  21.730  0.00  0.00    +0.000 A 
ATOM     31  C   UNL     1       2.562   2.635  21.751  0.00  0.00    +0.000 A 
ATOM     32  C   UNL     1       3.241   2.401  20.554  0.00  0.00    +0.000 A 
ENDBRANCH  24  27
ENDBRANCH  22  24
ENDBRANCH   6  22
TORSDOF 4
ENDMDL
MODEL 6
REMARK VINA RESULT:      -8.6      2.262      3.812
REMARK  Name = 
REMARK  5 active torsions:
REMARK  status: ('A' for Active; 'I' for Inactive)
REMARK    1  A    between atoms: C_1  and  C_2
REMARK    2  A    between atoms: C_10  and  C_11
REMARK    3  A    between atoms: C_16  and  N_17
REMARK    4  A    between atoms: N_17  and  S_18
REMARK    5  A    between atoms: S_18  and  C_21
REMARK                            x       y       z     vdW  Elec       q    Type
REMARK                         _______ _______ _______ _____ _____    ______ ____
ROOT
ATOM      1  C   UNL     1       2.806   6.038  18.879  0.00  0.00    +0.000 A 
ATOM      2  C   UNL     1       1.987   4.946  18.565  0.00  0.00    +0.000 A 
ATOM      3  N   UNL     1       2.399   3.662  18.451  0.00  0.00    +0.000 NA
ATOM      4  C   UNL     1       3.707   3.432  18.671  0.00  0.00    +0.000 A 
ATOM      5 CL   UNL     1       4.148   1.793  18.383  0.00  0.00    +0.000 Cl
ATOM      6  C   UNL     1       4.634   4.417  19.010  0.00  0.00    +0.000 A 
ATOM      7  C   UNL     1       4.163   5.735  19.116  0.00  0.00    +0.000 A 
ENDROOT
BRANCH   1  17
ATOM      8  C   UNL     1      -1.412  14.099  22.449  0.00  0.00    +0.000 C 
ATOM      9  C   UNL     1      -0.756  12.766  22.210  0.00  0.00    +0.000 C 
ATOM     10  O   UNL     1      -0.494  12.034  23.161  0.00  0.00    +0.000 OA
ATOM     11  N   UNL     1      -0.497  12.526  20.878  0.00  0.00    +0.000 N 
ATOM     12  C   UNL     1       0.076  11.376  20.384  0.00  0.00    +0.000 A 
ATOM     13  N   UNL     1       0.623  11.323  19.192  0.00  0.00    +0.000 NA
ATOM     14  C   UNL     1       1.197  10.070  19.005  0.00  0.00    +0.000 A 
ATOM     15  C   UNL     1       1.969   9.646  17.907  0.00  0.00    +0.000 A 
ATOM     16  C   UNL     1       2.500   8.341  17.881  0.00  0.00    +0.000 A 
ATOM     17  C   UNL     1       2.267   7.420  18.914  0.00  0.00    +0.000 A 
ATOM     18  C   UNL     1       1.487   7.852  20.008  0.00  0.00    +0.000 A 
ATOM     19  C   UNL     1       0.981   9.162  20.038  0.00  0.00    +0.000 A 
ATOM     20  S   UNL     1       0.046   9.917  21.259  0.00  0.00    +0.000 S 
ATOM     21  H   UNL     1      -0.521  13.289  20.217  0.00  0.00    +0.000 HD
ENDBRANCH   1  17
BRANCH   6  22
ATOM     22  N   UNL     1       6.028   4.140  19.171  0.00  0.00    +0.000 N 
ATOM     23  H   UNL     1       6.318   3.209  19.467  0.00  0.00    +0.000 HD
BRANCH  22  24
ATOM     24  S   UNL     1       7.170   4.906  18.204  0.00  0.00    +0.000 S 
ATOM     25  O   UNL     1       7.226   6.276  18.671  0.00  0.00    +0.000 OA
ATOM     26  O   UNL     1       8.364   4.084  18.169  0.00  0.00    +0.000 OA
BRANCH  24  27
ATOM     27  C   UNL     1       6.442   4.916  16.584  0.00  0.00    +0.000 A 
ATOM     28  C   UNL     1       5.776   6.056  16.126  0.00  0.00    +0.000 A 
ATOM     29  C   UNL     1       5.248   6.070  14.832  0.00  0.00    +0.000 A 
ATOM     30  C   UNL     1       5.398   4.958  14.003  0.00  0.00    +0.000 A 
ATOM     31  C   UNL     1       6.080   3.829  14.458  0.00  0.00    +0.000 A 
ATOM     32  C   UNL     1       6.609   3.806  15.749  0.00  0.00    +0.000 A 
ENDBRANCH  24  27
ENDBRANCH  22  24
ENDBRANCH   6  22
TORSDOF 4
ENDMDL
MODEL 7
REMARK VINA RESULT:      -8.5      2.458      4.252
REMARK  Name = 
REMARK  5 active torsions:
REMARK  status: ('A' for Active; 'I' for Inactive)
REMARK    1  A    between atoms: C_1  and  C_2
REMARK    2  A    between atoms: C_10  and  C_11
REMARK    3  A    between atoms: C_16  and  N_17
REMARK    4  A    between atoms: N_17  and  S_18
REMARK    5  A    between atoms: S_18  and  C_21
REMARK                            x       y       z     vdW  Elec       q    Type
REMARK                         _______ _______ _______ _____ _____    ______ ____
ROOT
ATOM      1  C   UNL     1       2.906   6.021  19.034  0.00  0.00    +0.000 A 
ATOM      2  C   UNL     1       2.089   4.884  19.001  0.00  0.00    +0.000 A 
ATOM      3  N   UNL     1       2.526   3.603  18.981  0.00  0.00    +0.000 NA
ATOM      4  C   UNL     1       3.860   3.425  19.004  0.00  0.00    +0.000 A 
ATOM      5 CL   UNL     1       4.310   1.771  18.852  0.00  0.00    +0.000 Cl
ATOM      6  C   UNL     1       4.791   4.462  19.057  0.00  0.00    +0.000 A 
ATOM      7  C   UNL     1       4.295   5.774  19.075  0.00  0.00    +0.000 A 
ENDROOT
BRANCH   1  17
ATOM      8  C   UNL     1      -1.396  14.221  22.157  0.00  0.00    +0.000 C 
ATOM      9  C   UNL     1      -0.712  12.892  21.993  0.00  0.00    +0.000 C 
ATOM     10  O   UNL     1      -0.388  12.243  22.985  0.00  0.00    +0.000 OA
ATOM     11  N   UNL     1      -0.503  12.555  20.673  0.00  0.00    +0.000 N 
ATOM     12  C   UNL     1       0.083  11.386  20.244  0.00  0.00    +0.000 A 
ATOM     13  N   UNL     1       0.581  11.254  19.036  0.00  0.00    +0.000 NA
ATOM     14  C   UNL     1       1.184  10.006  18.921  0.00  0.00    +0.000 A 
ATOM     15  C   UNL     1       1.921   9.518  17.826  0.00  0.00    +0.000 A 
ATOM     16  C   UNL     1       2.489   8.230  17.876  0.00  0.00    +0.000 A 
ATOM     17  C   UNL     1       2.328   7.387  18.987  0.00  0.00    +0.000 A 
ATOM     18  C   UNL     1       1.583   7.881  20.077  0.00  0.00    +0.000 A 
ATOM     19  C   UNL     1       1.039   9.177  20.029  0.00  0.00    +0.000 A 
ATOM     20  S   UNL     1       0.135   9.999  21.229  0.00  0.00    +0.000 S 
ATOM     21  H   UNL     1      -0.577  13.263  19.957  0.00  0.00    +0.000 HD
ENDBRANCH   1  17
BRANCH   6  22
ATOM     22  N   UNL     1       6.203   4.232  19.013  0.00  0.00    +0.000 N 
ATOM     23  H   UNL     1       6.591   3.435  19.517  0.00  0.00    +0.000 HD
BRANCH  22  24
ATOM     24  S   UNL     1       7.096   4.645  17.652  0.00  0.00    +0.000 S 
ATOM     25  O   UNL     1       8.362   3.953  17.787  0.00  0.00    +0.000 OA
ATOM     26  O   UNL     1       6.264   4.447  16.481  0.00  0.00    +0.000 OA
BRANCH  24  27
ATOM     27  C   UNL     1       7.408   6.383  17.837  0.00  0.00    +0.000 A 
ATOM     28  C   UNL     1       8.350   6.827  18.770  0.00  0.00    +0.000 A 
ATOM     29  C   UNL     1       8.622   8.194  18.876  0.00  0.00    +0.000 A 
ATOM     30  C   UNL     1       7.965   9.104  18.045  0.00  0.00    +0.000 A 
ATOM     31  C   UNL     1       7.040   8.655  17.104  0.00  0.00    +0.000 A 
ATOM     32  C   UNL     1       6.762   7.291  16.993  0.00  0.00    +0.000 A 
ENDBRANCH  24  27
ENDBRANCH  22  24
ENDBRANCH   6  22
TORSDOF 4
ENDMDL
MODEL 8
REMARK VINA RESULT:      -8.4      2.397      4.280
REMARK  Name = 
REMARK  5 active torsions:
REMARK  status: ('A' for Active; 'I' for Inactive)
REMARK    1  A    between atoms: C_1  and  C_2
REMARK    2  A    between atoms: C_10  and  C_11
REMARK    3  A    between atoms: C_16  and  N_17
REMARK    4  A    between atoms: N_17  and  S_18
REMARK    5  A    between atoms: S_18  and  C_21
REMARK                            x       y       z     vdW  Elec       q    Type
REMARK                         _______ _______ _______ _____ _____    ______ ____
ROOT
ATOM      1  C   UNL     1       2.852   5.987  19.453  0.00  0.00    +0.000 A 
ATOM      2  C   UNL     1       2.394   5.065  20.402  0.00  0.00    +0.000 A 
ATOM      3  N   UNL     1       2.848   3.798  20.550  0.00  0.00    +0.000 NA
ATOM      4  C   UNL     1       3.829   3.413  19.712  0.00  0.00    +0.000 A 
ATOM      5 CL   UNL     1       4.248   1.755  19.902  0.00  0.00    +0.000 Cl
ATOM      6  C   UNL     1       4.394   4.230  18.733  0.00  0.00    +0.000 A 
ATOM      7  C   UNL     1       3.892   5.534  18.614  0.00  0.00    +0.000 A 
ENDROOT
BRANCH   1  17
ATOM      8  C   UNL     1      -1.518  14.305  22.140  0.00  0.00    +0.000 C 
ATOM      9  C   UNL     1      -0.809  12.982  22.046  0.00  0.00    +0.000 C 
ATOM     10  O   UNL     1      -0.430  12.416  23.068  0.00  0.00    +0.000 OA
ATOM     11  N   UNL     1      -0.644  12.552  20.747  0.00  0.00    +0.000 N 
ATOM     12  C   UNL     1      -0.048  11.367  20.381  0.00  0.00    +0.000 A 
ATOM     13  N   UNL     1       0.404  11.156  19.166  0.00  0.00    +0.000 NA
ATOM     14  C   UNL     1       1.031   9.916  19.118  0.00  0.00    +0.000 A 
ATOM     15  C   UNL     1       1.736   9.363  18.032  0.00  0.00    +0.000 A 
ATOM     16  C   UNL     1       2.336   8.095  18.153  0.00  0.00    +0.000 A 
ATOM     17  C   UNL     1       2.239   7.333  19.329  0.00  0.00    +0.000 A 
ATOM     18  C   UNL     1       1.527   7.892  20.410  0.00  0.00    +0.000 A 
ATOM     19  C   UNL     1       0.951   9.169  20.290  0.00  0.00    +0.000 A 
ATOM     20  S   UNL     1       0.075  10.059  21.462  0.00  0.00    +0.000 S 
ATOM     21  H   UNL     1      -0.764  13.203  19.984  0.00  0.00    +0.000 HD
ENDBRANCH   1  17
BRANCH   6  22
ATOM     22  N   UNL     1       5.389   3.760  17.818  0.00  0.00    +0.000 N 
ATOM     23  H   UNL     1       5.430   2.766  17.598  0.00  0.00    +0.000 HD
BRANCH  22  24
ATOM     24  S   UNL     1       5.921   4.735  16.558  0.00  0.00    +0.000 S 
ATOM     25  O   UNL     1       6.811   3.907  15.769  0.00  0.00    +0.000 OA
ATOM     26  O   UNL     1       4.767   5.370  15.952  0.00  0.00    +0.000 OA
BRANCH  24  27
ATOM     27  C   UNL     1       6.905   5.984  17.348  0.00  0.00    +0.000 A 
ATOM     28  C   UNL     1       6.866   7.301  16.881  0.00  0.00    +0.000 A 
ATOM     29  C   UNL     1       7.608   8.286  17.540  0.00  0.00    +0.000 A 
ATOM     30  C   UNL     1       8.369   7.955  18.662  0.00  0.00    +0.000 A 
ATOM     31  C   UNL     1       8.391   6.643  19.135  0.00  0.00    +0.000 A 
ATOM     32  C   UNL     1       7.654   5.653  18.482  0.00  0.00    +0.000 A 
ENDBRANCH  24  27
ENDBRANCH  22  24
ENDBRANCH   6  22
TORSDOF 4
ENDMDL
MODEL 9
REMARK VINA RESULT:      -8.4      1.743      2.008
REMARK  Name = 
REMARK  5 active torsions:
REMARK  status: ('A' for Active; 'I' for Inactive)
REMARK    1  A    between atoms: C_1  and  C_2
REMARK    2  A    between atoms: C_10  and  C_11
REMARK    3  A    between atoms: C_16  and  N_17
REMARK    4  A    between atoms: N_17  and  S_18
REMARK    5  A    between atoms: S_18  and  C_21
REMARK                            x       y       z     vdW  Elec       q    Type
REMARK                         _______ _______ _______ _____ _____    ______ ____
ROOT
ATOM      1  C   UNL     1       3.452   6.526  17.922  0.00  0.00    +0.000 A 
ATOM      2  C   UNL     1       4.357   7.130  17.042  0.00  0.00    +0.000 A 
ATOM      3  N   UNL     1       5.242   6.477  16.252  0.00  0.00    +0.000 NA
ATOM      4  C   UNL     1       5.230   5.132  16.327  0.00  0.00    +0.000 A 
ATOM      5 CL   UNL     1       6.469   4.407  15.380  0.00  0.00    +0.000 Cl
ATOM      6  C   UNL     1       4.371   4.397  17.143  0.00  0.00    +0.000 A 
ATOM      7  C   UNL     1       3.471   5.115  17.945  0.00  0.00    +0.000 A 
ENDROOT
BRANCH   1  17
ATOM      8  C   UNL     1      -2.869  13.504  20.543  0.00  0.00    +0.000 C 
ATOM      9  C   UNL     1      -1.974  12.522  19.838  0.00  0.00    +0.000 C 
ATOM     10  O   UNL     1      -1.955  12.482  18.610  0.00  0.00    +0.000 OA
ATOM     11  N   UNL     1      -1.258  11.727  20.708  0.00  0.00    +0.000 N 
ATOM     12  C   UNL     1      -0.352  10.763  20.328  0.00  0.00    +0.000 A 
ATOM     13  N   UNL     1       0.034   9.806  21.139  0.00  0.00    +0.000 NA
ATOM     14  C   UNL     1       0.875   8.936  20.456  0.00  0.00    +0.000 A 
ATOM     15  C   UNL     1       1.418   7.729  20.935  0.00  0.00    +0.000 A 
ATOM     16  C   UNL     1       2.241   6.945  20.103  0.00  0.00    +0.000 A 
ATOM     17  C   UNL     1       2.567   7.338  18.795  0.00  0.00    +0.000 A 
ATOM     18  C   UNL     1       2.024   8.551  18.324  0.00  0.00    +0.000 A 
ATOM     19  C   UNL     1       1.184   9.315  19.153  0.00  0.00    +0.000 A 
ATOM     20  S   UNL     1       0.390  10.790  18.797  0.00  0.00    +0.000 S 
ATOM     21  H   UNL     1      -1.534  11.671  21.678  0.00  0.00    +0.000 HD
ENDBRANCH   1  17
BRANCH   6  22
ATOM     22  N   UNL     1       4.435   2.971  17.242  0.00  0.00    +0.000 N 
ATOM     23  H   UNL     1       4.983   2.451  16.557  0.00  0.00    +0.000 HD
BRANCH  22  24
ATOM     24  S   UNL     1       4.365   2.212  18.739  0.00  0.00    +0.000 S 
ATOM     25  O   UNL     1       4.412   0.791  18.462  0.00  0.00    +0.000 OA
ATOM     26  O   UNL     1       5.344   2.830  19.612  0.00  0.00    +0.000 OA
BRANCH  24  27
ATOM     27  C   UNL     1       2.742   2.591  19.352  0.00  0.00    +0.000 A 
ATOM     28  C   UNL     1       2.591   3.166  20.617  0.00  0.00    +0.000 A 
ATOM     29  C   UNL     1       1.313   3.503  21.071  0.00  0.00    +0.000 A 
ATOM     30  C   UNL     1       0.201   3.278  20.258  0.00  0.00    +0.000 A 
ATOM     31  C   UNL     1       0.358   2.721  18.989  0.00  0.00    +0.000 A 
ATOM     32  C   UNL     1       1.631   2.380  18.529  0.00  0.00    +0.000 A 
ENDBRANCH  24  27
ENDBRANCH  22  24
ENDBRANCH   6  22
TORSDOF 4
ENDMDL
