MODEL 1
REMARK VINA RESULT:      -7.6      0.000      0.000
REMARK  Name = 
REMARK  5 active torsions:
REMARK  status: ('A' for Active; 'I' for Inactive)
REMARK    1  A    between atoms: C_1  and  C_2
REMARK    2  A    between atoms: C_2  and  C_3
REMARK    3  A    between atoms: C_2  and  C_4
REMARK    4  A    between atoms: N_14  and  C_15
REMARK    5  A    between atoms: C_20  and  C_21
REMARK                            x       y       z     vdW  Elec       q    Type
REMARK                         _______ _______ _______ _____ _____    ______ ____
ROOT
ATOM      1  C   UNL     1       3.651   4.057  18.924  0.00  0.00    +0.000 A 
ATOM      2  N   UNL     1       2.763   4.132  19.872  0.00  0.00    +0.000 NA
ATOM      3  C   UNL     1       2.006   5.247  20.067  0.00  0.00    +0.000 A 
ATOM      4  O   UNL     1       1.139   5.299  20.931  0.00  0.00    +0.000 OA
ATOM      5  C   UNL     1       2.278   6.423  19.241  0.00  0.00    +0.000 A 
ATOM      6  C   UNL     1       1.554   7.605  19.513  0.00  0.00    +0.000 A 
ATOM      7  C   UNL     1       1.788   8.754  18.773  0.00  0.00    +0.000 A 
ATOM      8  C   UNL     1       2.805   8.741  17.836  0.00  0.00    +0.000 A 
ATOM      9  C   UNL     1       3.586   7.587  17.658  0.00  0.00    +0.000 A 
ATOM     10  C   UNL     1       3.286   6.358  18.265  0.00  0.00    +0.000 A 
ATOM     11  N   UNL     1       3.983   5.110  17.985  0.00  0.00    +0.000 N 
ENDROOT
BRANCH  11  12
ATOM     12  C   UNL     1       5.011   4.981  16.938  0.00  0.00    +0.000 A 
ATOM     13  C   UNL     1       4.646   4.542  15.648  0.00  0.00    +0.000 A 
ATOM     14  C   UNL     1       5.534   4.226  14.614  0.00  0.00    +0.000 A 
ATOM     15  C   UNL     1       6.887   4.288  14.834  0.00  0.00    +0.000 A 
ATOM     16  C   UNL     1       7.328   4.760  16.059  0.00  0.00    +0.000 A 
ATOM     17  C   UNL     1       6.421   5.132  17.092  0.00  0.00    +0.000 A 
BRANCH  17  18
ATOM     18  C   UNL     1       7.096   5.723  18.269  0.00  0.00    +0.000 C 
ATOM     19  N   UNL     1       7.727   6.938  18.047  0.00  0.00    +0.000 N 
ATOM     20  O   UNL     1       7.140   5.168  19.358  0.00  0.00    +0.000 OA
ATOM     21  H   UNL     1       7.843   7.339  17.124  0.00  0.00    +0.000 HD
ATOM     22  H   UNL     1       8.300   7.300  18.794  0.00  0.00    +0.000 HD
ENDBRANCH  17  18
ENDBRANCH  11  12
BRANCH   1  24
ATOM     23  C   UNL     1       4.458   2.204  20.463  0.00  0.00    +0.000 C 
ATOM     24  C   UNL     1       4.357   2.663  18.992  0.00  0.00    +0.000 C 
ATOM     25  C   UNL     1       3.627   1.543  18.231  0.00  0.00    +0.000 C 
ENDBRANCH   1  24
TORSDOF 3
ENDMDL
MODEL 2
REMARK VINA RESULT:      -7.0      1.074      3.635
REMARK  Name = 
REMARK  5 active torsions:
REMARK  status: ('A' for Active; 'I' for Inactive)
REMARK    1  A    between atoms: C_1  and  C_2
REMARK    2  A    between atoms: C_2  and  C_3
REMARK    3  A    between atoms: C_2  and  C_4
REMARK    4  A    between atoms: N_14  and  C_15
REMARK    5  A    between atoms: C_20  and  C_21
REMARK                            x       y       z     vdW  Elec       q    Type
REMARK                         _______ _______ _______ _____ _____    ______ ____
ROOT
ATOM      1  C   UNL     1       3.179   6.504  18.498  0.00  0.00    +0.000 A 
ATOM      2  N   UNL     1       2.233   6.797  19.342  0.00  0.00    +0.000 NA
ATOM      3  C   UNL     1       1.903   5.969  20.371  0.00  0.00    +0.000 A 
ATOM      4  O   UNL     1       1.043   6.267  21.192  0.00  0.00    +0.000 OA
ATOM      5  C   UNL     1       2.571   4.672  20.460  0.00  0.00    +0.000 A 
ATOM      6  C   UNL     1       2.155   3.780  21.474  0.00  0.00    +0.000 A 
ATOM      7  C   UNL     1       2.742   2.530  21.590  0.00  0.00    +0.000 A 
ATOM      8  C   UNL     1       3.669   2.144  20.637  0.00  0.00    +0.000 A 
ATOM      9  C   UNL     1       3.988   3.004  19.574  0.00  0.00    +0.000 A 
ATOM     10  C   UNL     1       3.543   4.333  19.504  0.00  0.00    +0.000 A 
ATOM     11  N   UNL     1       3.975   5.294  18.498  0.00  0.00    +0.000 N 
ENDROOT
BRANCH  11  12
ATOM     12  C   UNL     1       5.025   5.002  17.507  0.00  0.00    +0.000 A 
ATOM     13  C   UNL     1       4.670   4.486  16.243  0.00  0.00    +0.000 A 
ATOM     14  C   UNL     1       5.564   4.019  15.273  0.00  0.00    +0.000 A 
ATOM     15  C   UNL     1       6.910   3.999  15.541  0.00  0.00    +0.000 A 
ATOM     16  C   UNL     1       7.345   4.538  16.740  0.00  0.00    +0.000 A 
ATOM     17  C   UNL     1       6.436   5.062  17.702  0.00  0.00    +0.000 A 
BRANCH  17  18
ATOM     18  C   UNL     1       7.116   5.697  18.854  0.00  0.00    +0.000 C 
ATOM     19  N   UNL     1       7.924   6.781  18.545  0.00  0.00    +0.000 N 
ATOM     20  O   UNL     1       7.015   5.279  19.999  0.00  0.00    +0.000 OA
ATOM     21  H   UNL     1       8.151   7.046  17.594  0.00  0.00    +0.000 HD
ATOM     22  H   UNL     1       8.497   7.152  19.288  0.00  0.00    +0.000 HD
ENDBRANCH  17  18
ENDBRANCH  11  12
BRANCH   1  24
ATOM     23  C   UNL     1       2.349   8.809  17.823  0.00  0.00    +0.000 C 
ATOM     24  C   UNL     1       3.285   7.645  17.431  0.00  0.00    +0.000 C 
ATOM     25  C   UNL     1       4.693   8.244  17.281  0.00  0.00    +0.000 C 
ENDBRANCH   1  24
TORSDOF 3
ENDMDL
MODEL 3
REMARK VINA RESULT:      -6.3      5.197      8.283
REMARK  Name = 
REMARK  5 active torsions:
REMARK  status: ('A' for Active; 'I' for Inactive)
REMARK    1  A    between atoms: C_1  and  C_2
REMARK    2  A    between atoms: C_2  and  C_3
REMARK    3  A    between atoms: C_2  and  C_4
REMARK    4  A    between atoms: N_14  and  C_15
REMARK    5  A    between atoms: C_20  and  C_21
REMARK                            x       y       z     vdW  Elec       q    Type
REMARK                         _______ _______ _______ _____ _____    ______ ____
ROOT
ATOM      1  C   UNL     1      -0.091  12.261  20.136  0.00  0.00    +0.000 A 
ATOM      2  N   UNL     1      -0.964  13.210  20.308  0.00  0.00    +0.000 NA
ATOM      3  C   UNL     1      -2.254  13.088  19.891  0.00  0.00    +0.000 A 
ATOM      4  O   UNL     1      -3.088  13.964  20.095  0.00  0.00    +0.000 OA
ATOM      5  C   UNL     1      -2.632  11.890  19.143  0.00  0.00    +0.000 A 
ATOM      6  C   UNL     1      -3.947  11.814  18.631  0.00  0.00    +0.000 A 
ATOM      7  C   UNL     1      -4.349  10.709  17.897  0.00  0.00    +0.000 A 
ATOM      8  C   UNL     1      -3.412   9.737  17.599  0.00  0.00    +0.000 A 
ATOM      9  C   UNL     1      -2.081   9.885  18.024  0.00  0.00    +0.000 A 
ATOM     10  C   UNL     1      -1.666  10.899  18.900  0.00  0.00    +0.000 A 
ATOM     11  N   UNL     1      -0.331  10.993  19.478  0.00  0.00    +0.000 N 
ENDROOT
BRANCH  11  12
ATOM     12  C   UNL     1       0.699   9.957  19.292  0.00  0.00    +0.000 A 
ATOM     13  C   UNL     1       1.291   9.777  18.024  0.00  0.00    +0.000 A 
ATOM     14  C   UNL     1       2.158   8.737  17.671  0.00  0.00    +0.000 A 
ATOM     15  C   UNL     1       2.456   7.758  18.584  0.00  0.00    +0.000 A 
ATOM     16  C   UNL     1       1.956   7.889  19.869  0.00  0.00    +0.000 A 
ATOM     17  C   UNL     1       1.117   8.978  20.241  0.00  0.00    +0.000 A 
BRANCH  17  18
ATOM     18  C   UNL     1       0.796   8.992  21.686  0.00  0.00    +0.000 C 
ATOM     19  N   UNL     1      -0.475   8.548  22.018  0.00  0.00    +0.000 N 
ATOM     20  O   UNL     1       1.573   9.404  22.536  0.00  0.00    +0.000 OA
ATOM     21  H   UNL     1      -1.190   8.353  21.328  0.00  0.00    +0.000 HD
ATOM     22  H   UNL     1      -0.766   8.665  22.978  0.00  0.00    +0.000 HD
ENDBRANCH  17  18
ENDBRANCH  11  12
BRANCH   1  24
ATOM     23  C   UNL     1       2.240  13.071  19.530  0.00  0.00    +0.000 C 
ATOM     24  C   UNL     1       1.292  12.729  20.700  0.00  0.00    +0.000 C 
ATOM     25  C   UNL     1       1.223  13.980  21.592  0.00  0.00    +0.000 C 
ENDBRANCH   1  24
TORSDOF 3
ENDMDL
MODEL 4
REMARK VINA RESULT:      -6.2      2.162      5.394
REMARK  Name = 
REMARK  5 active torsions:
REMARK  status: ('A' for Active; 'I' for Inactive)
REMARK    1  A    between atoms: C_1  and  C_2
REMARK    2  A    between atoms: C_2  and  C_3
REMARK    3  A    between atoms: C_2  and  C_4
REMARK    4  A    between atoms: N_14  and  C_15
REMARK    5  A    between atoms: C_20  and  C_21
REMARK                            x       y       z     vdW  Elec       q    Type
REMARK                         _______ _______ _______ _____ _____    ______ ____
ROOT
ATOM      1  C   UNL     1       3.842   3.753  17.161  0.00  0.00    +0.000 A 
ATOM      2  N   UNL     1       4.466   3.930  16.033  0.00  0.00    +0.000 NA
ATOM      3  C   UNL     1       5.718   4.461  15.977  0.00  0.00    +0.000 A 
ATOM      4  O   UNL     1       6.324   4.585  14.918  0.00  0.00    +0.000 OA
ATOM      5  C   UNL     1       6.329   4.932  17.219  0.00  0.00    +0.000 A 
ATOM      6  C   UNL     1       7.587   5.569  17.139  0.00  0.00    +0.000 A 
ATOM      7  C   UNL     1       8.201   6.053  18.285  0.00  0.00    +0.000 A 
ATOM      8  C   UNL     1       7.512   5.983  19.482  0.00  0.00    +0.000 A 
ATOM      9  C   UNL     1       6.215   5.445  19.521  0.00  0.00    +0.000 A 
ATOM     10  C   UNL     1       5.620   4.802  18.425  0.00  0.00    +0.000 A 
ATOM     11  N   UNL     1       4.343   4.103  18.474  0.00  0.00    +0.000 N 
ENDROOT
BRANCH  11  12
ATOM     12  C   UNL     1       3.587   3.898  19.722  0.00  0.00    +0.000 A 
ATOM     13  C   UNL     1       3.657   2.655  20.387  0.00  0.00    +0.000 A 
ATOM     14  C   UNL     1       2.876   2.273  21.482  0.00  0.00    +0.000 A 
ATOM     15  C   UNL     1       1.914   3.124  21.964  0.00  0.00    +0.000 A 
ATOM     16  C   UNL     1       1.815   4.385  21.399  0.00  0.00    +0.000 A 
ATOM     17  C   UNL     1       2.649   4.791  20.318  0.00  0.00    +0.000 A 
BRANCH  17  18
ATOM     18  C   UNL     1       2.464   6.212  19.949  0.00  0.00    +0.000 C 
ATOM     19  N   UNL     1       1.929   7.021  20.940  0.00  0.00    +0.000 N 
ATOM     20  O   UNL     1       2.722   6.649  18.836  0.00  0.00    +0.000 OA
ATOM     21  H   UNL     1       1.559   6.657  21.810  0.00  0.00    +0.000 HD
ATOM     22  H   UNL     1       1.674   7.962  20.677  0.00  0.00    +0.000 HD
ENDBRANCH  17  18
ENDBRANCH  11  12
BRANCH   1  24
ATOM     23  C   UNL     1       2.256   1.829  17.649  0.00  0.00    +0.000 C 
ATOM     24  C   UNL     1       2.425   3.153  16.874  0.00  0.00    +0.000 C 
ATOM     25  C   UNL     1       1.255   4.061  17.291  0.00  0.00    +0.000 C 
ENDBRANCH   1  24
TORSDOF 3
ENDMDL
MODEL 5
REMARK VINA RESULT:      -6.1      0.979      3.697
REMARK  Name = 
REMARK  5 active torsions:
REMARK  status: ('A' for Active; 'I' for Inactive)
REMARK    1  A    between atoms: C_1  and  C_2
REMARK    2  A    between atoms: C_2  and  C_3
REMARK    3  A    between atoms: C_2  and  C_4
REMARK    4  A    between atoms: N_14  and  C_15
REMARK    5  A    between atoms: C_20  and  C_21
REMARK                            x       y       z     vdW  Elec       q    Type
REMARK                         _______ _______ _______ _____ _____    ______ ____
ROOT
ATOM      1  C   UNL     1       3.182   6.073  18.036  0.00  0.00    +0.000 A 
ATOM      2  N   UNL     1       2.221   6.125  18.911  0.00  0.00    +0.000 NA
ATOM      3  C   UNL     1       1.833   5.031  19.623  0.00  0.00    +0.000 A 
ATOM      4  O   UNL     1       0.958   5.091  20.480  0.00  0.00    +0.000 OA
ATOM      5  C   UNL     1       2.457   3.745  19.315  0.00  0.00    +0.000 A 
ATOM      6  C   UNL     1       1.982   2.599  19.990  0.00  0.00    +0.000 A 
ATOM      7  C   UNL     1       2.525   1.353  19.720  0.00  0.00    +0.000 A 
ATOM      8  C   UNL     1       3.467   1.247  18.713  0.00  0.00    +0.000 A 
ATOM      9  C   UNL     1       3.847   2.383  17.978  0.00  0.00    +0.000 A 
ATOM     10  C   UNL     1       3.446   3.684  18.319  0.00  0.00    +0.000 A 
ATOM     11  N   UNL     1       3.939   4.893  17.673  0.00  0.00    +0.000 N 
ENDROOT
BRANCH  11  12
ATOM     12  C   UNL     1       5.009   4.884  16.661  0.00  0.00    +0.000 A 
ATOM     13  C   UNL     1       4.689   4.650  15.307  0.00  0.00    +0.000 A 
ATOM     14  C   UNL     1       5.613   4.458  14.273  0.00  0.00    +0.000 A 
ATOM     15  C   UNL     1       6.956   4.444  14.554  0.00  0.00    +0.000 A 
ATOM     16  C   UNL     1       7.355   4.718  15.851  0.00  0.00    +0.000 A 
ATOM     17  C   UNL     1       6.414   4.966  16.890  0.00  0.00    +0.000 A 
BRANCH  17  18
ATOM     18  C   UNL     1       7.052   5.356  18.167  0.00  0.00    +0.000 C 
ATOM     19  N   UNL     1       7.802   6.523  18.126  0.00  0.00    +0.000 N 
ATOM     20  O   UNL     1       6.969   4.685  19.186  0.00  0.00    +0.000 OA
ATOM     21  H   UNL     1       8.019   7.009  17.265  0.00  0.00    +0.000 HD
ATOM     22  H   UNL     1       8.350   6.744  18.944  0.00  0.00    +0.000 HD
ENDBRANCH  17  18
ENDBRANCH  11  12
BRANCH   1  24
ATOM     23  C   UNL     1       2.340   8.471  17.999  0.00  0.00    +0.000 C 
ATOM     24  C   UNL     1       3.356   7.485  17.383  0.00  0.00    +0.000 C 
ATOM     25  C   UNL     1       4.749   8.108  17.580  0.00  0.00    +0.000 C 
ENDBRANCH   1  24
TORSDOF 3
ENDMDL
MODEL 6
REMARK VINA RESULT:      -6.1      6.681     10.005
REMARK  Name = 
REMARK  5 active torsions:
REMARK  status: ('A' for Active; 'I' for Inactive)
REMARK    1  A    between atoms: C_1  and  C_2
REMARK    2  A    between atoms: C_2  and  C_3
REMARK    3  A    between atoms: C_2  and  C_4
REMARK    4  A    between atoms: N_14  and  C_15
REMARK    5  A    between atoms: C_20  and  C_21
REMARK                            x       y       z     vdW  Elec       q    Type
REMARK                         _______ _______ _______ _____ _____    ______ ____
ROOT
ATOM      1  C   UNL     1      -0.818  10.740  18.648  0.00  0.00    +0.000 A 
ATOM      2  N   UNL     1      -1.133  10.064  17.583  0.00  0.00    +0.000 NA
ATOM      3  C   UNL     1      -2.349  10.189  16.982  0.00  0.00    +0.000 A 
ATOM      4  O   UNL     1      -2.629   9.587  15.952  0.00  0.00    +0.000 OA
ATOM      5  C   UNL     1      -3.354  11.039  17.620  0.00  0.00    +0.000 A 
ATOM      6  C   UNL     1      -4.642  11.088  17.043  0.00  0.00    +0.000 A 
ATOM      7  C   UNL     1      -5.638  11.862  17.619  0.00  0.00    +0.000 A 
ATOM      8  C   UNL     1      -5.367  12.501  18.816  0.00  0.00    +0.000 A 
ATOM      9  C   UNL     1      -4.113  12.350  19.430  0.00  0.00    +0.000 A 
ATOM     10  C   UNL     1      -3.029  11.712  18.809  0.00  0.00    +0.000 A 
ATOM     11  N   UNL     1      -1.677  11.670  19.352  0.00  0.00    +0.000 N 
ENDROOT
BRANCH  11  12
ATOM     12  C   UNL     1      -1.277  12.398  20.567  0.00  0.00    +0.000 A 
ATOM     13  C   UNL     1      -1.579  11.862  21.837  0.00  0.00    +0.000 A 
ATOM     14  C   UNL     1      -1.401  12.517  23.061  0.00  0.00    +0.000 A 
ATOM     15  C   UNL     1      -0.937  13.808  23.082  0.00  0.00    +0.000 A 
ATOM     16  C   UNL     1      -0.567  14.389  21.881  0.00  0.00    +0.000 A 
ATOM     17  C   UNL     1      -0.699  13.700  20.641  0.00  0.00    +0.000 A 
BRANCH  17  18
ATOM     18  C   UNL     1      -0.135  14.453  19.499  0.00  0.00    +0.000 C 
ATOM     19  N   UNL     1      -0.903  15.515  19.046  0.00  0.00    +0.000 N 
ATOM     20  O   UNL     1       0.916  14.145  18.953  0.00  0.00    +0.000 OA
ATOM     21  H   UNL     1      -1.846  15.693  19.372  0.00  0.00    +0.000 HD
ATOM     22  H   UNL     1      -0.606  15.965  18.193  0.00  0.00    +0.000 HD
ENDBRANCH  17  18
ENDBRANCH  11  12
BRANCH   1  24
ATOM     23  C   UNL     1       0.554   9.354  20.276  0.00  0.00    +0.000 C 
ATOM     24  C   UNL     1       0.630  10.345  19.095  0.00  0.00    +0.000 C 
ATOM     25  C   UNL     1       1.468   9.664  18.000  0.00  0.00    +0.000 C 
ENDBRANCH   1  24
TORSDOF 3
ENDMDL
MODEL 7
REMARK VINA RESULT:      -6.1      6.343      9.100
REMARK  Name = 
REMARK  5 active torsions:
REMARK  status: ('A' for Active; 'I' for Inactive)
REMARK    1  A    between atoms: C_1  and  C_2
REMARK    2  A    between atoms: C_2  and  C_3
REMARK    3  A    between atoms: C_2  and  C_4
REMARK    4  A    between atoms: N_14  and  C_15
REMARK    5  A    between atoms: C_20  and  C_21
REMARK                            x       y       z     vdW  Elec       q    Type
REMARK                         _______ _______ _______ _____ _____    ______ ____
ROOT
ATOM      1  C   UNL     1      -0.277  12.681  21.191  0.00  0.00    +0.000 A 
ATOM      2  N   UNL     1       0.303  13.419  22.091  0.00  0.00    +0.000 NA
ATOM      3  C   UNL     1       1.294  14.297  21.776  0.00  0.00    +0.000 A 
ATOM      4  O   UNL     1       1.809  15.025  22.618  0.00  0.00    +0.000 OA
ATOM      5  C   UNL     1       1.777  14.332  20.396  0.00  0.00    +0.000 A 
ATOM      6  C   UNL     1       2.869  15.177  20.097  0.00  0.00    +0.000 A 
ATOM      7  C   UNL     1       3.379  15.232  18.809  0.00  0.00    +0.000 A 
ATOM      8  C   UNL     1       2.859  14.376  17.856  0.00  0.00    +0.000 A 
ATOM      9  C   UNL     1       1.847  13.465  18.201  0.00  0.00    +0.000 A 
ATOM     10  C   UNL     1       1.192  13.483  19.442  0.00  0.00    +0.000 A 
ATOM     11  N   UNL     1       0.041  12.655  19.778  0.00  0.00    +0.000 N 
ENDROOT
BRANCH  11  12
ATOM     12  C   UNL     1      -0.636  11.786  18.800  0.00  0.00    +0.000 A 
ATOM     13  C   UNL     1      -1.854  12.200  18.221  0.00  0.00    +0.000 A 
ATOM     14  C   UNL     1      -2.678  11.415  17.407  0.00  0.00    +0.000 A 
ATOM     15  C   UNL     1      -2.340  10.109  17.155  0.00  0.00    +0.000 A 
ATOM     16  C   UNL     1      -1.132   9.640  17.644  0.00  0.00    +0.000 A 
ATOM     17  C   UNL     1      -0.271  10.459  18.427  0.00  0.00    +0.000 A 
BRANCH  17  18
ATOM     18  C   UNL     1       1.019   9.805  18.743  0.00  0.00    +0.000 C 
ATOM     19  N   UNL     1       1.974   9.854  17.739  0.00  0.00    +0.000 N 
ATOM     20  O   UNL     1       1.228   9.220  19.797  0.00  0.00    +0.000 OA
ATOM     21  H   UNL     1       1.775  10.189  16.804  0.00  0.00    +0.000 HD
ATOM     22  H   UNL     1       2.813   9.309  17.876  0.00  0.00    +0.000 HD
ENDBRANCH  17  18
ENDBRANCH  11  12
BRANCH   1  24
ATOM     23  C   UNL     1      -0.648  10.545  22.515  0.00  0.00    +0.000 C 
ATOM     24  C   UNL     1      -1.344  11.770  21.885  0.00  0.00    +0.000 C 
ATOM     25  C   UNL     1      -2.130  12.459  23.013  0.00  0.00    +0.000 C 
ENDBRANCH   1  24
TORSDOF 3
ENDMDL
MODEL 8
REMARK VINA RESULT:      -6.0      9.032     10.839
REMARK  Name = 
REMARK  5 active torsions:
REMARK  status: ('A' for Active; 'I' for Inactive)
REMARK    1  A    between atoms: C_1  and  C_2
REMARK    2  A    between atoms: C_2  and  C_3
REMARK    3  A    between atoms: C_2  and  C_4
REMARK    4  A    between atoms: N_14  and  C_15
REMARK    5  A    between atoms: C_20  and  C_21
REMARK                            x       y       z     vdW  Elec       q    Type
REMARK                         _______ _______ _______ _____ _____    ______ ____
ROOT
ATOM      1  C   UNL     1       9.410  12.328  20.187  0.00  0.00    +0.000 A 
ATOM      2  N   UNL     1       8.959  11.526  21.105  0.00  0.00    +0.000 NA
ATOM      3  C   UNL     1       8.599  11.971  22.340  0.00  0.00    +0.000 A 
ATOM      4  O   UNL     1       8.131  11.222  23.190  0.00  0.00    +0.000 OA
ATOM      5  C   UNL     1       8.824  13.380  22.662  0.00  0.00    +0.000 A 
ATOM      6  C   UNL     1       8.538  13.814  23.976  0.00  0.00    +0.000 A 
ATOM      7  C   UNL     1       8.752  15.135  24.338  0.00  0.00    +0.000 A 
ATOM      8  C   UNL     1       9.338  15.985  23.419  0.00  0.00    +0.000 A 
ATOM      9  C   UNL     1       9.716  15.506  22.154  0.00  0.00    +0.000 A 
ATOM     10  C   UNL     1       9.377  14.227  21.687  0.00  0.00    +0.000 A 
ATOM     11  N   UNL     1       9.621  13.754  20.331  0.00  0.00    +0.000 N 
ENDROOT
BRANCH  11  12
ATOM     12  C   UNL     1      10.152  14.617  19.262  0.00  0.00    +0.000 A 
ATOM     13  C   UNL     1      11.536  14.885  19.201  0.00  0.00    +0.000 A 
ATOM     14  C   UNL     1      12.151  15.805  18.344  0.00  0.00    +0.000 A 
ATOM     15  C   UNL     1      11.383  16.569  17.502  0.00  0.00    +0.000 A 
ATOM     16  C   UNL     1      10.020  16.331  17.464  0.00  0.00    +0.000 A 
ATOM     17  C   UNL     1       9.404  15.356  18.299  0.00  0.00    +0.000 A 
BRANCH  17  18
ATOM     18  C   UNL     1       7.963  15.176  18.012  0.00  0.00    +0.000 C 
ATOM     19  N   UNL     1       7.629  14.007  17.344  0.00  0.00    +0.000 N 
ATOM     20  O   UNL     1       7.118  16.013  18.299  0.00  0.00    +0.000 OA
ATOM     21  H   UNL     1       8.320  13.378  16.954  0.00  0.00    +0.000 HD
ATOM     22  H   UNL     1       6.676  13.918  17.024  0.00  0.00    +0.000 HD
ENDBRANCH  17  18
ENDBRANCH  11  12
BRANCH   1  24
ATOM     23  C   UNL     1      11.279  11.281  18.821  0.00  0.00    +0.000 C 
ATOM     24  C   UNL     1       9.753  11.498  18.905  0.00  0.00    +0.000 C 
ATOM     25  C   UNL     1       9.107  10.103  18.860  0.00  0.00    +0.000 C 
ENDBRANCH   1  24
TORSDOF 3
ENDMDL
MODEL 9
REMARK VINA RESULT:      -6.0      2.443      6.103
REMARK  Name = 
REMARK  5 active torsions:
REMARK  status: ('A' for Active; 'I' for Inactive)
REMARK    1  A    between atoms: C_1  and  C_2
REMARK    2  A    between atoms: C_2  and  C_3
REMARK    3  A    between atoms: C_2  and  C_4
REMARK    4  A    between atoms: N_14  and  C_15
REMARK    5  A    between atoms: C_20  and  C_21
REMARK                            x       y       z     vdW  Elec       q    Type
REMARK                         _______ _______ _______ _____ _____    ______ ____
ROOT
ATOM      1  C   UNL     1       6.745   5.576  16.376  0.00  0.00    +0.000 A 
ATOM      2  N   UNL     1       7.760   5.904  15.633  0.00  0.00    +0.000 NA
ATOM      3  C   UNL     1       7.823   5.577  14.313  0.00  0.00    +0.000 A 
ATOM      4  O   UNL     1       8.760   5.925  13.602  0.00  0.00    +0.000 OA
ATOM      5  C   UNL     1       6.757   4.749  13.751  0.00  0.00    +0.000 A 
ATOM      6  C   UNL     1       6.879   4.335  12.405  0.00  0.00    +0.000 A 
ATOM      7  C   UNL     1       5.906   3.532  11.830  0.00  0.00    +0.000 A 
ATOM      8  C   UNL     1       4.873   3.073  12.627  0.00  0.00    +0.000 A 
ATOM      9  C   UNL     1       4.830   3.407  13.990  0.00  0.00    +0.000 A 
ATOM     10  C   UNL     1       5.697   4.341  14.577  0.00  0.00    +0.000 A 
ATOM     11  N   UNL     1       5.585   4.821  15.948  0.00  0.00    +0.000 N 
ENDROOT
BRANCH  11  12
ATOM     12  C   UNL     1       4.467   4.460  16.836  0.00  0.00    +0.000 A 
ATOM     13  C   UNL     1       4.210   3.103  17.123  0.00  0.00    +0.000 A 
ATOM     14  C   UNL     1       3.097   2.613  17.815  0.00  0.00    +0.000 A 
ATOM     15  C   UNL     1       2.120   3.480  18.235  0.00  0.00    +0.000 A 
ATOM     16  C   UNL     1       2.321   4.836  18.039  0.00  0.00    +0.000 A 
ATOM     17  C   UNL     1       3.482   5.336  17.381  0.00  0.00    +0.000 A 
BRANCH  17  18
ATOM     18  C   UNL     1       3.557   6.814  17.386  0.00  0.00    +0.000 C 
ATOM     19  N   UNL     1       2.897   7.441  18.432  0.00  0.00    +0.000 N 
ATOM     20  O   UNL     1       4.122   7.454  16.510  0.00  0.00    +0.000 OA
ATOM     21  H   UNL     1       2.291   6.949  19.077  0.00  0.00    +0.000 HD
ATOM     22  H   UNL     1       2.824   8.447  18.391  0.00  0.00    +0.000 HD
ENDBRANCH  17  18
ENDBRANCH  11  12
BRANCH   1  24
ATOM     23  C   UNL     1       7.859   5.042  18.597  0.00  0.00    +0.000 C 
ATOM     24  C   UNL     1       6.998   6.075  17.838  0.00  0.00    +0.000 C 
ATOM     25  C   UNL     1       7.740   7.419  17.930  0.00  0.00    +0.000 C 
ENDBRANCH   1  24
TORSDOF 3
ENDMDL
