MODEL 1
REMARK VINA RESULT:      -5.3      0.000      0.000
REMARK  Name = 
REMARK  11 active torsions:
REMARK  status: ('A' for Active; 'I' for Inactive)
REMARK    1  A    between atoms: C_1  and  N_2
REMARK    2  A    between atoms: N_2  and  C_3
REMARK    3  A    between atoms: N_2  and  C_4
REMARK    4  A    between atoms: C_4  and  C_5
REMARK    5  A    between atoms: C_5  and  C_6
REMARK    6  A    between atoms: C_6  and  S_7
REMARK    7  A    between atoms: S_7  and  C_10
REMARK    8  A    between atoms: C_10  and  C_11
REMARK    9  A    between atoms: C_11  and  C_12
REMARK   10  A    between atoms: C_12  and  C_13
REMARK   11  A    between atoms: C_13  and  N_14
REMARK                            x       y       z     vdW  Elec       q    Type
REMARK                         _______ _______ _______ _____ _____    ______ ____
ROOT
ATOM      1  S   UNL     1       5.004   4.266  19.257  0.00  0.00    +0.000 S 
ATOM      2  O   UNL     1       6.200   4.978  19.670  0.00  0.00    +0.000 OA
ATOM      3  O   UNL     1       4.671   2.978  19.835  0.00  0.00    +0.000 OA
ENDROOT
BRANCH   1   4
ATOM      4  C   UNL     1       3.608   5.358  19.514  0.00  0.00    +0.000 C 
BRANCH   4   5
ATOM      5  C   UNL     1       2.776   4.844  20.689  0.00  0.00    +0.000 C 
BRANCH   5   6
ATOM      6  C   UNL     1       1.296   4.632  20.349  0.00  0.00    +0.000 C 
BRANCH   6   8
ATOM      7  C   UNL     1       1.189   2.509  19.191  0.00  0.00    +0.000 C 
ATOM      8  N   UNL     1       0.887   3.221  20.437  0.00  0.00    +0.000 NA
ATOM      9  C   UNL     1       1.561   2.544  21.550  0.00  0.00    +0.000 C 
ENDBRANCH   6   8
ENDBRANCH   5   6
ENDBRANCH   4   5
ENDBRANCH   1   4
BRANCH   1  10
ATOM     10  C   UNL     1       5.101   4.054  17.481  0.00  0.00    +0.000 C 
BRANCH  10  11
ATOM     11  C   UNL     1       4.493   5.271  16.782  0.00  0.00    +0.000 C 
BRANCH  11  12
ATOM     12  C   UNL     1       5.545   6.162  16.124  0.00  0.00    +0.000 C 
BRANCH  12  13
ATOM     13  C   UNL     1       6.931   5.512  16.190  0.00  0.00    +0.000 C 
BRANCH  13  14
ATOM     14  N   UNL     1       7.474   5.426  14.825  0.00  0.00    +0.000 NA
ATOM     15  C   UNL     1       6.896   4.702  14.113  0.00  0.00    +0.000 C 
ATOM     16  S   UNL     1       6.118   3.716  13.129  0.00  0.00    +0.000 S 
ENDBRANCH  13  14
ENDBRANCH  12  13
ENDBRANCH  11  12
ENDBRANCH  10  11
ENDBRANCH   1  10
TORSDOF 9
ENDMDL
MODEL 2
REMARK VINA RESULT:      -4.9      1.177      1.720
REMARK  Name = 
REMARK  11 active torsions:
REMARK  status: ('A' for Active; 'I' for Inactive)
REMARK    1  A    between atoms: C_1  and  N_2
REMARK    2  A    between atoms: N_2  and  C_3
REMARK    3  A    between atoms: N_2  and  C_4
REMARK    4  A    between atoms: C_4  and  C_5
REMARK    5  A    between atoms: C_5  and  C_6
REMARK    6  A    between atoms: C_6  and  S_7
REMARK    7  A    between atoms: S_7  and  C_10
REMARK    8  A    between atoms: C_10  and  C_11
REMARK    9  A    between atoms: C_11  and  C_12
REMARK   10  A    between atoms: C_12  and  C_13
REMARK   11  A    between atoms: C_13  and  N_14
REMARK                            x       y       z     vdW  Elec       q    Type
REMARK                         _______ _______ _______ _____ _____    ______ ____
ROOT
ATOM      1  S   UNL     1       4.981   4.367  19.111  0.00  0.00    +0.000 S 
ATOM      2  O   UNL     1       4.157   5.363  19.772  0.00  0.00    +0.000 OA
ATOM      3  O   UNL     1       6.426   4.403  19.228  0.00  0.00    +0.000 OA
ENDROOT
BRANCH   1   4
ATOM      4  C   UNL     1       4.428   2.755  19.659  0.00  0.00    +0.000 C 
BRANCH   4   5
ATOM      5  C   UNL     1       3.200   2.921  20.555  0.00  0.00    +0.000 C 
BRANCH   5   6
ATOM      6  C   UNL     1       1.932   2.272  19.988  0.00  0.00    +0.000 C 
BRANCH   6   8
ATOM      7  C   UNL     1       0.918   4.426  20.427  0.00  0.00    +0.000 C 
ATOM      8  N   UNL     1       0.938   3.261  19.537  0.00  0.00    +0.000 NA
ATOM      9  C   UNL     1       1.221   3.708  18.170  0.00  0.00    +0.000 C 
ENDBRANCH   6   8
ENDBRANCH   5   6
ENDBRANCH   4   5
ENDBRANCH   1   4
BRANCH   1  10
ATOM     10  C   UNL     1       4.579   4.421  17.366  0.00  0.00    +0.000 C 
BRANCH  10  11
ATOM     11  C   UNL     1       4.487   5.876  16.903  0.00  0.00    +0.000 C 
BRANCH  11  12
ATOM     12  C   UNL     1       5.430   6.189  15.742  0.00  0.00    +0.000 C 
BRANCH  12  13
ATOM     13  C   UNL     1       6.865   5.772  16.077  0.00  0.00    +0.000 C 
BRANCH  13  14
ATOM     14  N   UNL     1       7.551   5.404  14.827  0.00  0.00    +0.000 NA
ATOM     15  C   UNL     1       6.943   4.693  14.127  0.00  0.00    +0.000 C 
ATOM     16  S   UNL     1       6.125   3.721  13.161  0.00  0.00    +0.000 S 
ENDBRANCH  13  14
ENDBRANCH  12  13
ENDBRANCH  11  12
ENDBRANCH  10  11
ENDBRANCH   1  10
TORSDOF 9
ENDMDL
MODEL 3
REMARK VINA RESULT:      -4.8      2.979      6.892
REMARK  Name = 
REMARK  11 active torsions:
REMARK  status: ('A' for Active; 'I' for Inactive)
REMARK    1  A    between atoms: C_1  and  N_2
REMARK    2  A    between atoms: N_2  and  C_3
REMARK    3  A    between atoms: N_2  and  C_4
REMARK    4  A    between atoms: C_4  and  C_5
REMARK    5  A    between atoms: C_5  and  C_6
REMARK    6  A    between atoms: C_6  and  S_7
REMARK    7  A    between atoms: S_7  and  C_10
REMARK    8  A    between atoms: C_10  and  C_11
REMARK    9  A    between atoms: C_11  and  C_12
REMARK   10  A    between atoms: C_12  and  C_13
REMARK   11  A    between atoms: C_13  and  N_14
REMARK                            x       y       z     vdW  Elec       q    Type
REMARK                         _______ _______ _______ _____ _____    ______ ____
ROOT
ATOM      1  S   UNL     1       6.179   5.126  16.090  0.00  0.00    +0.000 S 
ATOM      2  O   UNL     1       7.541   5.276  16.569  0.00  0.00    +0.000 OA
ATOM      3  O   UNL     1       5.454   6.259  15.548  0.00  0.00    +0.000 OA
ENDROOT
BRANCH   1   4
ATOM      4  C   UNL     1       6.180   3.833  14.851  0.00  0.00    +0.000 C 
BRANCH   4   5
ATOM      5  C   UNL     1       6.124   4.468  13.461  0.00  0.00    +0.000 C 
BRANCH   5   6
ATOM      6  C   UNL     1       6.503   3.507  12.329  0.00  0.00    +0.000 C 
BRANCH   6   8
ATOM      7  C   UNL     1       4.326   3.177  11.323  0.00  0.00    +0.000 C 
ATOM      8  N   UNL     1       5.440   2.534  12.027  0.00  0.00    +0.000 NA
ATOM      9  C   UNL     1       5.952   1.431  11.208  0.00  0.00    +0.000 C 
ENDBRANCH   6   8
ENDBRANCH   5   6
ENDBRANCH   4   5
ENDBRANCH   1   4
BRANCH   1  10
ATOM     10  C   UNL     1       5.212   4.463  17.445  0.00  0.00    +0.000 C 
BRANCH  10  11
ATOM     11  C   UNL     1       4.299   5.552  18.009  0.00  0.00    +0.000 C 
BRANCH  11  12
ATOM     12  C   UNL     1       2.816   5.225  17.845  0.00  0.00    +0.000 C 
BRANCH  12  13
ATOM     13  C   UNL     1       2.623   3.770  17.405  0.00  0.00    +0.000 C 
BRANCH  13  14
ATOM     14  N   UNL     1       1.348   3.279  17.953  0.00  0.00    +0.000 NA
ATOM     15  C   UNL     1       1.320   3.185  19.118  0.00  0.00    +0.000 C 
ATOM     16  S   UNL     1       1.267   3.050  20.707  0.00  0.00    +0.000 S 
ENDBRANCH  13  14
ENDBRANCH  12  13
ENDBRANCH  11  12
ENDBRANCH  10  11
ENDBRANCH   1  10
TORSDOF 9
ENDMDL
MODEL 4
REMARK VINA RESULT:      -4.8      4.134      4.921
REMARK  Name = 
REMARK  11 active torsions:
REMARK  status: ('A' for Active; 'I' for Inactive)
REMARK    1  A    between atoms: C_1  and  N_2
REMARK    2  A    between atoms: N_2  and  C_3
REMARK    3  A    between atoms: N_2  and  C_4
REMARK    4  A    between atoms: C_4  and  C_5
REMARK    5  A    between atoms: C_5  and  C_6
REMARK    6  A    between atoms: C_6  and  S_7
REMARK    7  A    between atoms: S_7  and  C_10
REMARK    8  A    between atoms: C_10  and  C_11
REMARK    9  A    between atoms: C_11  and  C_12
REMARK   10  A    between atoms: C_12  and  C_13
REMARK   11  A    between atoms: C_13  and  N_14
REMARK                            x       y       z     vdW  Elec       q    Type
REMARK                         _______ _______ _______ _____ _____    ______ ____
ROOT
ATOM      1  S   UNL     1       6.621   4.750  17.578  0.00  0.00    +0.000 S 
ATOM      2  O   UNL     1       7.828   4.429  18.317  0.00  0.00    +0.000 OA
ATOM      3  O   UNL     1       6.519   4.460  16.160  0.00  0.00    +0.000 OA
ENDROOT
BRANCH   1   4
ATOM      4  C   UNL     1       5.251   3.941  18.401  0.00  0.00    +0.000 C 
BRANCH   4   5
ATOM      5  C   UNL     1       4.214   3.522  17.359  0.00  0.00    +0.000 C 
BRANCH   5   6
ATOM      6  C   UNL     1       3.196   2.501  17.879  0.00  0.00    +0.000 C 
BRANCH   6   8
ATOM      7  C   UNL     1       0.950   2.428  18.779  0.00  0.00    +0.000 C 
ATOM      8  N   UNL     1       1.803   2.943  17.703  0.00  0.00    +0.000 NA
ATOM      9  C   UNL     1       1.713   4.406  17.681  0.00  0.00    +0.000 C 
ENDBRANCH   6   8
ENDBRANCH   5   6
ENDBRANCH   4   5
ENDBRANCH   1   4
BRANCH   1  10
ATOM     10  C   UNL     1       6.317   6.501  17.795  0.00  0.00    +0.000 C 
BRANCH  10  11
ATOM     11  C   UNL     1       7.506   7.301  17.261  0.00  0.00    +0.000 C 
BRANCH  11  12
ATOM     12  C   UNL     1       8.314   7.973  18.371  0.00  0.00    +0.000 C 
BRANCH  12  13
ATOM     13  C   UNL     1       8.428   9.481  18.127  0.00  0.00    +0.000 C 
BRANCH  13  14
ATOM     14  N   UNL     1       9.099  10.094  19.285  0.00  0.00    +0.000 NA
ATOM     15  C   UNL     1       9.975  10.820  19.016  0.00  0.00    +0.000 C 
ATOM     16  S   UNL     1      11.172  11.813  18.664  0.00  0.00    +0.000 S 
ENDBRANCH  13  14
ENDBRANCH  12  13
ENDBRANCH  11  12
ENDBRANCH  10  11
ENDBRANCH   1  10
TORSDOF 9
ENDMDL
MODEL 5
REMARK VINA RESULT:      -4.7      2.470      6.138
REMARK  Name = 
REMARK  11 active torsions:
REMARK  status: ('A' for Active; 'I' for Inactive)
REMARK    1  A    between atoms: C_1  and  N_2
REMARK    2  A    between atoms: N_2  and  C_3
REMARK    3  A    between atoms: N_2  and  C_4
REMARK    4  A    between atoms: C_4  and  C_5
REMARK    5  A    between atoms: C_5  and  C_6
REMARK    6  A    between atoms: C_6  and  S_7
REMARK    7  A    between atoms: S_7  and  C_10
REMARK    8  A    between atoms: C_10  and  C_11
REMARK    9  A    between atoms: C_11  and  C_12
REMARK   10  A    between atoms: C_12  and  C_13
REMARK   11  A    between atoms: C_13  and  N_14
REMARK                            x       y       z     vdW  Elec       q    Type
REMARK                         _______ _______ _______ _____ _____    ______ ____
ROOT
ATOM      1  S   UNL     1       2.688   6.273  18.500  0.00  0.00    +0.000 S 
ATOM      2  O   UNL     1       2.771   7.641  18.021  0.00  0.00    +0.000 OA
ATOM      3  O   UNL     1       1.857   5.299  17.819  0.00  0.00    +0.000 OA
ENDROOT
BRANCH   1   4
ATOM      4  C   UNL     1       4.354   5.620  18.566  0.00  0.00    +0.000 C 
BRANCH   4   5
ATOM      5  C   UNL     1       4.693   4.966  17.226  0.00  0.00    +0.000 C 
BRANCH   5   6
ATOM      6  C   UNL     1       5.284   5.938  16.199  0.00  0.00    +0.000 C 
BRANCH   6   8
ATOM      7  C   UNL     1       7.273   4.661  16.719  0.00  0.00    +0.000 C 
ATOM      8  N   UNL     1       6.623   5.537  15.739  0.00  0.00    +0.000 NA
ATOM      9  C   UNL     1       6.552   4.841  14.450  0.00  0.00    +0.000 C 
ENDBRANCH   6   8
ENDBRANCH   5   6
ENDBRANCH   4   5
ENDBRANCH   1   4
BRANCH   1  10
ATOM     10  C   UNL     1       2.153   6.342  20.208  0.00  0.00    +0.000 C 
BRANCH  10  11
ATOM     11  C   UNL     1       1.341   5.090  20.545  0.00  0.00    +0.000 C 
BRANCH  11  12
ATOM     12  C   UNL     1       2.125   4.085  21.388  0.00  0.00    +0.000 C 
BRANCH  12  13
ATOM     13  C   UNL     1       1.586   2.665  21.186  0.00  0.00    +0.000 C 
BRANCH  13  14
ATOM     14  N   UNL     1       1.349   2.454  19.748  0.00  0.00    +0.000 NA
ATOM     15  C   UNL     1       2.279   2.079  19.149  0.00  0.00    +0.000 C 
ATOM     16  S   UNL     1       3.541   1.568  18.317  0.00  0.00    +0.000 S 
ENDBRANCH  13  14
ENDBRANCH  12  13
ENDBRANCH  11  12
ENDBRANCH  10  11
ENDBRANCH   1  10
TORSDOF 9
ENDMDL
MODEL 6
REMARK VINA RESULT:      -4.7      1.143      1.456
REMARK  Name = 
REMARK  11 active torsions:
REMARK  status: ('A' for Active; 'I' for Inactive)
REMARK    1  A    between atoms: C_1  and  N_2
REMARK    2  A    between atoms: N_2  and  C_3
REMARK    3  A    between atoms: N_2  and  C_4
REMARK    4  A    between atoms: C_4  and  C_5
REMARK    5  A    between atoms: C_5  and  C_6
REMARK    6  A    between atoms: C_6  and  S_7
REMARK    7  A    between atoms: S_7  and  C_10
REMARK    8  A    between atoms: C_10  and  C_11
REMARK    9  A    between atoms: C_11  and  C_12
REMARK   10  A    between atoms: C_12  and  C_13
REMARK   11  A    between atoms: C_13  and  N_14
REMARK                            x       y       z     vdW  Elec       q    Type
REMARK                         _______ _______ _______ _____ _____    ______ ____
ROOT
ATOM      1  S   UNL     1       4.716   4.460  18.632  0.00  0.00    +0.000 S 
ATOM      2  O   UNL     1       5.640   3.698  19.452  0.00  0.00    +0.000 OA
ATOM      3  O   UNL     1       3.911   3.806  17.618  0.00  0.00    +0.000 OA
ENDROOT
BRANCH   1   4
ATOM      4  C   UNL     1       3.605   5.331  19.734  0.00  0.00    +0.000 C 
BRANCH   4   5
ATOM      5  C   UNL     1       2.178   5.231  19.193  0.00  0.00    +0.000 C 
BRANCH   5   6
ATOM      6  C   UNL     1       1.269   4.318  20.023  0.00  0.00    +0.000 C 
BRANCH   6   8
ATOM      7  C   UNL     1       1.501   2.577  21.690  0.00  0.00    +0.000 C 
ATOM      8  N   UNL     1       1.902   3.030  20.354  0.00  0.00    +0.000 NA
ATOM      9  C   UNL     1       1.547   2.000  19.373  0.00  0.00    +0.000 C 
ENDBRANCH   6   8
ENDBRANCH   5   6
ENDBRANCH   4   5
ENDBRANCH   1   4
BRANCH   1  10
ATOM     10  C   UNL     1       5.663   5.748  17.824  0.00  0.00    +0.000 C 
BRANCH  10  11
ATOM     11  C   UNL     1       4.839   6.360  16.691  0.00  0.00    +0.000 C 
BRANCH  11  12
ATOM     12  C   UNL     1       5.399   6.034  15.307  0.00  0.00    +0.000 C 
BRANCH  12  13
ATOM     13  C   UNL     1       6.463   4.935  15.394  0.00  0.00    +0.000 C 
BRANCH  13  14
ATOM     14  N   UNL     1       7.118   4.811  14.081  0.00  0.00    +0.000 NA
ATOM     15  C   UNL     1       6.553   4.134  13.315  0.00  0.00    +0.000 C 
ATOM     16  S   UNL     1       5.793   3.211  12.258  0.00  0.00    +0.000 S 
ENDBRANCH  13  14
ENDBRANCH  12  13
ENDBRANCH  11  12
ENDBRANCH  10  11
ENDBRANCH   1  10
TORSDOF 9
ENDMDL
MODEL 7
REMARK VINA RESULT:      -4.7      4.403      5.280
REMARK  Name = 
REMARK  11 active torsions:
REMARK  status: ('A' for Active; 'I' for Inactive)
REMARK    1  A    between atoms: C_1  and  N_2
REMARK    2  A    between atoms: N_2  and  C_3
REMARK    3  A    between atoms: N_2  and  C_4
REMARK    4  A    between atoms: C_4  and  C_5
REMARK    5  A    between atoms: C_5  and  C_6
REMARK    6  A    between atoms: C_6  and  S_7
REMARK    7  A    between atoms: S_7  and  C_10
REMARK    8  A    between atoms: C_10  and  C_11
REMARK    9  A    between atoms: C_11  and  C_12
REMARK   10  A    between atoms: C_12  and  C_13
REMARK   11  A    between atoms: C_13  and  N_14
REMARK                            x       y       z     vdW  Elec       q    Type
REMARK                         _______ _______ _______ _____ _____    ______ ____
ROOT
ATOM      1  S   UNL     1       6.505   5.423  16.373  0.00  0.00    +0.000 S 
ATOM      2  O   UNL     1       7.694   4.681  15.995  0.00  0.00    +0.000 OA
ATOM      3  O   UNL     1       5.852   6.308  15.428  0.00  0.00    +0.000 OA
ENDROOT
BRANCH   1   4
ATOM      4  C   UNL     1       5.288   4.240  16.947  0.00  0.00    +0.000 C 
BRANCH   4   5
ATOM      5  C   UNL     1       4.218   4.972  17.756  0.00  0.00    +0.000 C 
BRANCH   5   6
ATOM      6  C   UNL     1       3.978   4.370  19.145  0.00  0.00    +0.000 C 
BRANCH   6   8
ATOM      7  C   UNL     1       2.132   5.528  20.199  0.00  0.00    +0.000 C 
ATOM      8  N   UNL     1       2.551   4.308  19.501  0.00  0.00    +0.000 NA
ATOM      9  C   UNL     1       1.717   4.130  18.309  0.00  0.00    +0.000 C 
ENDBRANCH   6   8
ENDBRANCH   5   6
ENDBRANCH   4   5
ENDBRANCH   1   4
BRANCH   1  10
ATOM     10  C   UNL     1       6.923   6.391  17.821  0.00  0.00    +0.000 C 
BRANCH  10  11
ATOM     11  C   UNL     1       7.524   7.729  17.391  0.00  0.00    +0.000 C 
BRANCH  11  12
ATOM     12  C   UNL     1       8.465   8.320  18.441  0.00  0.00    +0.000 C 
BRANCH  12  13
ATOM     13  C   UNL     1       8.635   9.829  18.234  0.00  0.00    +0.000 C 
BRANCH  13  14
ATOM     14  N   UNL     1       9.155  10.417  19.479  0.00  0.00    +0.000 NA
ATOM     15  C   UNL     1      10.170  10.985  19.366  0.00  0.00    +0.000 C 
ATOM     16  S   UNL     1      11.555  11.763  19.226  0.00  0.00    +0.000 S 
ENDBRANCH  13  14
ENDBRANCH  12  13
ENDBRANCH  11  12
ENDBRANCH  10  11
ENDBRANCH   1  10
TORSDOF 9
ENDMDL
MODEL 8
REMARK VINA RESULT:      -4.7      2.123      2.426
REMARK  Name = 
REMARK  11 active torsions:
REMARK  status: ('A' for Active; 'I' for Inactive)
REMARK    1  A    between atoms: C_1  and  N_2
REMARK    2  A    between atoms: N_2  and  C_3
REMARK    3  A    between atoms: N_2  and  C_4
REMARK    4  A    between atoms: C_4  and  C_5
REMARK    5  A    between atoms: C_5  and  C_6
REMARK    6  A    between atoms: C_6  and  S_7
REMARK    7  A    between atoms: S_7  and  C_10
REMARK    8  A    between atoms: C_10  and  C_11
REMARK    9  A    between atoms: C_11  and  C_12
REMARK   10  A    between atoms: C_12  and  C_13
REMARK   11  A    between atoms: C_13  and  N_14
REMARK                            x       y       z     vdW  Elec       q    Type
REMARK                         _______ _______ _______ _____ _____    ______ ____
ROOT
ATOM      1  S   UNL     1       2.694   6.308  18.409  0.00  0.00    +0.000 S 
ATOM      2  O   UNL     1       1.864   5.342  17.711  0.00  0.00    +0.000 OA
ATOM      3  O   UNL     1       2.252   7.679  18.581  0.00  0.00    +0.000 OA
ENDROOT
BRANCH   1   4
ATOM      4  C   UNL     1       3.055   5.641  20.031  0.00  0.00    +0.000 C 
BRANCH   4   5
ATOM      5  C   UNL     1       1.834   4.876  20.544  0.00  0.00    +0.000 C 
BRANCH   5   6
ATOM      6  C   UNL     1       2.174   3.506  21.143  0.00  0.00    +0.000 C 
BRANCH   6   8
ATOM      7  C   UNL     1       0.724   2.640  19.409  0.00  0.00    +0.000 C 
ATOM      8  N   UNL     1       1.931   2.397  20.205  0.00  0.00    +0.000 NA
ATOM      9  C   UNL     1       3.071   2.211  19.302  0.00  0.00    +0.000 C 
ENDBRANCH   6   8
ENDBRANCH   5   6
ENDBRANCH   4   5
ENDBRANCH   1   4
BRANCH   1  10
ATOM     10  C   UNL     1       4.275   6.351  17.568  0.00  0.00    +0.000 C 
BRANCH  10  11
ATOM     11  C   UNL     1       5.118   5.148  17.993  0.00  0.00    +0.000 C 
BRANCH  11  12
ATOM     12  C   UNL     1       6.601   5.487  18.141  0.00  0.00    +0.000 C 
BRANCH  12  13
ATOM     13  C   UNL     1       7.450   4.658  17.172  0.00  0.00    +0.000 C 
BRANCH  13  14
ATOM     14  N   UNL     1       7.482   5.346  15.871  0.00  0.00    +0.000 NA
ATOM     15  C   UNL     1       6.955   4.771  15.000  0.00  0.00    +0.000 C 
ATOM     16  S   UNL     1       6.241   3.998  13.802  0.00  0.00    +0.000 S 
ENDBRANCH  13  14
ENDBRANCH  12  13
ENDBRANCH  11  12
ENDBRANCH  10  11
ENDBRANCH   1  10
TORSDOF 9
ENDMDL
MODEL 9
REMARK VINA RESULT:      -4.7      2.481      6.263
REMARK  Name = 
REMARK  11 active torsions:
REMARK  status: ('A' for Active; 'I' for Inactive)
REMARK    1  A    between atoms: C_1  and  N_2
REMARK    2  A    between atoms: N_2  and  C_3
REMARK    3  A    between atoms: N_2  and  C_4
REMARK    4  A    between atoms: C_4  and  C_5
REMARK    5  A    between atoms: C_5  and  C_6
REMARK    6  A    between atoms: C_6  and  S_7
REMARK    7  A    between atoms: S_7  and  C_10
REMARK    8  A    between atoms: C_10  and  C_11
REMARK    9  A    between atoms: C_11  and  C_12
REMARK   10  A    between atoms: C_12  and  C_13
REMARK   11  A    between atoms: C_13  and  N_14
REMARK                            x       y       z     vdW  Elec       q    Type
REMARK                         _______ _______ _______ _____ _____    ______ ____
ROOT
ATOM      1  S   UNL     1       7.130   5.197  17.313  0.00  0.00    +0.000 S 
ATOM      2  O   UNL     1       8.077   4.422  18.094  0.00  0.00    +0.000 OA
ATOM      3  O   UNL     1       7.554   6.392  16.607  0.00  0.00    +0.000 OA
ENDROOT
BRANCH   1   4
ATOM      4  C   UNL     1       6.380   4.093  16.120  0.00  0.00    +0.000 C 
BRANCH   4   5
ATOM      5  C   UNL     1       6.529   4.689  14.720  0.00  0.00    +0.000 C 
BRANCH   5   6
ATOM      6  C   UNL     1       5.474   4.192  13.724  0.00  0.00    +0.000 C 
BRANCH   6   8
ATOM      7  C   UNL     1       5.013   2.942  11.703  0.00  0.00    +0.000 C 
ATOM      8  N   UNL     1       6.044   3.343  12.665  0.00  0.00    +0.000 NA
ATOM      9  C   UNL     1       7.119   4.040  11.952  0.00  0.00    +0.000 C 
ENDBRANCH   6   8
ENDBRANCH   5   6
ENDBRANCH   4   5
ENDBRANCH   1   4
BRANCH   1  10
ATOM     10  C   UNL     1       5.794   5.664  18.411  0.00  0.00    +0.000 C 
BRANCH  10  11
ATOM     11  C   UNL     1       4.670   6.318  17.606  0.00  0.00    +0.000 C 
BRANCH  11  12
ATOM     12  C   UNL     1       3.328   5.606  17.777  0.00  0.00    +0.000 C 
BRANCH  12  13
ATOM     13  C   UNL     1       2.891   5.610  19.245  0.00  0.00    +0.000 C 
BRANCH  13  14
ATOM     14  N   UNL     1       2.335   4.287  19.572  0.00  0.00    +0.000 NA
ATOM     15  C   UNL     1       2.791   3.400  18.962  0.00  0.00    +0.000 C 
ATOM     16  S   UNL     1       3.403   2.180  18.137  0.00  0.00    +0.000 S 
ENDBRANCH  13  14
ENDBRANCH  12  13
ENDBRANCH  11  12
ENDBRANCH  10  11
ENDBRANCH   1  10
TORSDOF 9
ENDMDL
