MODEL 1
REMARK VINA RESULT:      -6.7      0.000      0.000
REMARK  Name = 
REMARK  9 active torsions:
REMARK  status: ('A' for Active; 'I' for Inactive)
REMARK    1  A    between atoms: C_1  and  C_2
REMARK    2  A    between atoms: C_5  and  C_6
REMARK    3  A    between atoms: C_6  and  C_7
REMARK    4  A    between atoms: C_6  and  N_8
REMARK    5  A    between atoms: N_8  and  C_9
REMARK    6  A    between atoms: C_9  and  C_10
REMARK    7  A    between atoms: C_10  and  O_11
REMARK    8  A    between atoms: O_11  and  C_12
REMARK    9  A    between atoms: C_16  and  C_17
REMARK                            x       y       z     vdW  Elec       q    Type
REMARK                         _______ _______ _______ _____ _____    ______ ____
ROOT
ATOM      1  C   UNL     1       4.610   4.030  15.912  0.00  0.00    +0.000 C 
ENDROOT
BRANCH   1   2
ATOM      2  N   UNL     1       5.936   3.470  16.215  0.00  0.00    +0.000 NA
ATOM      3  H   UNL     1       6.009   3.277  17.217  0.00  0.00    +0.000 HD
BRANCH   2   4
ATOM      4  C   UNL     1       7.068   4.340  15.834  0.00  0.00    +0.000 C 
ATOM      5  C   UNL     1       6.863   5.007  14.469  0.00  0.00    +0.000 C 
BRANCH   4  10
ATOM      6  C   UNL     1       8.021   8.850  17.663  0.00  0.00    +0.000 C 
ATOM      7  C   UNL     1       7.790   7.388  17.763  0.00  0.00    +0.000 A 
ATOM      8  C   UNL     1       7.941   6.603  18.888  0.00  0.00    +0.000 A 
ATOM      9  S   UNL     1       7.595   4.969  18.518  0.00  0.00    +0.000 S 
ATOM     10  C   UNL     1       7.312   5.414  16.877  0.00  0.00    +0.000 A 
ATOM     11  N   UNL     1       7.410   6.705  16.621  0.00  0.00    +0.000 NA
ENDBRANCH   4  10
ENDBRANCH   2   4
ENDBRANCH   1   2
BRANCH   1  12
ATOM     12  C   UNL     1       3.996   4.791  17.094  0.00  0.00    +0.000 C 
BRANCH  12  13
ATOM     13  O   UNL     1       2.680   4.318  17.379  0.00  0.00    +0.000 OA
BRANCH  13  14
ATOM     14  C   UNL     1       2.504   3.840  18.653  0.00  0.00    +0.000 A 
ATOM     15  C   UNL     1       1.357   4.009  19.438  0.00  0.00    +0.000 A 
ATOM     16  C   UNL     1       1.280   3.451  20.715  0.00  0.00    +0.000 A 
ATOM     17  C   UNL     1       2.354   2.722  21.221  0.00  0.00    +0.000 A 
ATOM     18  C   UNL     1       3.511   2.561  20.447  0.00  0.00    +0.000 A 
ATOM     19  C   UNL     1       3.582   3.121  19.171  0.00  0.00    +0.000 A 
BRANCH  18  20
ATOM     20  C   UNL     1       4.620   1.816  20.970  0.00  0.00    +0.000 C 
ATOM     21  N   UNL     1       5.519   1.220  21.393  0.00  0.00    +0.000 NA
ENDBRANCH  18  20
ENDBRANCH  13  14
ENDBRANCH  12  13
ENDBRANCH   1  12
TORSDOF 7
ENDMDL
MODEL 2
REMARK VINA RESULT:      -6.4      2.097      3.580
REMARK  Name = 
REMARK  9 active torsions:
REMARK  status: ('A' for Active; 'I' for Inactive)
REMARK    1  A    between atoms: C_1  and  C_2
REMARK    2  A    between atoms: C_5  and  C_6
REMARK    3  A    between atoms: C_6  and  C_7
REMARK    4  A    between atoms: C_6  and  N_8
REMARK    5  A    between atoms: N_8  and  C_9
REMARK    6  A    between atoms: C_9  and  C_10
REMARK    7  A    between atoms: C_10  and  O_11
REMARK    8  A    between atoms: O_11  and  C_12
REMARK    9  A    between atoms: C_16  and  C_17
REMARK                            x       y       z     vdW  Elec       q    Type
REMARK                         _______ _______ _______ _____ _____    ______ ____
ROOT
ATOM      1  C   UNL     1       1.979   6.675  20.278  0.00  0.00    +0.000 C 
ENDROOT
BRANCH   1   2
ATOM      2  N   UNL     1       3.315   6.574  19.672  0.00  0.00    +0.000 NA
ATOM      3  H   UNL     1       3.880   7.383  19.942  0.00  0.00    +0.000 HD
BRANCH   2   4
ATOM      4  C   UNL     1       3.312   6.490  18.197  0.00  0.00    +0.000 C 
ATOM      5  C   UNL     1       3.261   7.871  17.531  0.00  0.00    +0.000 C 
BRANCH   4  10
ATOM      6  C   UNL     1       6.142   3.914  15.044  0.00  0.00    +0.000 C 
ATOM      7  C   UNL     1       5.825   4.538  16.351  0.00  0.00    +0.000 A 
ATOM      8  C   UNL     1       6.537   4.402  17.526  0.00  0.00    +0.000 A 
ATOM      9  S   UNL     1       5.775   5.278  18.782  0.00  0.00    +0.000 S 
ATOM     10  C   UNL     1       4.527   5.740  17.686  0.00  0.00    +0.000 A 
ATOM     11  N   UNL     1       4.687   5.321  16.445  0.00  0.00    +0.000 NA
ENDBRANCH   4  10
ENDBRANCH   2   4
ENDBRANCH   1   2
BRANCH   1  12
ATOM     12  C   UNL     1       1.522   5.369  20.941  0.00  0.00    +0.000 C 
BRANCH  12  13
ATOM     13  O   UNL     1       0.909   4.499  19.990  0.00  0.00    +0.000 OA
BRANCH  13  14
ATOM     14  C   UNL     1       1.760   3.593  19.408  0.00  0.00    +0.000 A 
ATOM     15  C   UNL     1       1.716   3.170  18.073  0.00  0.00    +0.000 A 
ATOM     16  C   UNL     1       2.655   2.261  17.584  0.00  0.00    +0.000 A 
ATOM     17  C   UNL     1       3.645   1.763  18.427  0.00  0.00    +0.000 A 
ATOM     18  C   UNL     1       3.687   2.170  19.767  0.00  0.00    +0.000 A 
ATOM     19  C   UNL     1       2.746   3.079  20.252  0.00  0.00    +0.000 A 
BRANCH  18  20
ATOM     20  C   UNL     1       4.703   1.652  20.637  0.00  0.00    +0.000 C 
ATOM     21  N   UNL     1       5.519   1.227  21.342  0.00  0.00    +0.000 NA
ENDBRANCH  18  20
ENDBRANCH  13  14
ENDBRANCH  12  13
ENDBRANCH   1  12
TORSDOF 7
ENDMDL
MODEL 3
REMARK VINA RESULT:      -6.3      2.756      5.811
REMARK  Name = 
REMARK  9 active torsions:
REMARK  status: ('A' for Active; 'I' for Inactive)
REMARK    1  A    between atoms: C_1  and  C_2
REMARK    2  A    between atoms: C_5  and  C_6
REMARK    3  A    between atoms: C_6  and  C_7
REMARK    4  A    between atoms: C_6  and  N_8
REMARK    5  A    between atoms: N_8  and  C_9
REMARK    6  A    between atoms: C_9  and  C_10
REMARK    7  A    between atoms: C_10  and  O_11
REMARK    8  A    between atoms: O_11  and  C_12
REMARK    9  A    between atoms: C_16  and  C_17
REMARK                            x       y       z     vdW  Elec       q    Type
REMARK                         _______ _______ _______ _____ _____    ______ ____
ROOT
ATOM      1  C   UNL     1       2.472   1.743  18.583  0.00  0.00    +0.000 C 
ENDROOT
BRANCH   1   2
ATOM      2  N   UNL     1       1.390   2.664  18.204  0.00  0.00    +0.000 NA
ATOM      3  H   UNL     1       1.703   3.273  17.445  0.00  0.00    +0.000 HD
BRANCH   2   4
ATOM      4  C   UNL     1       0.904   3.521  19.306  0.00  0.00    +0.000 C 
ATOM      5  C   UNL     1       1.183   2.916  20.687  0.00  0.00    +0.000 C 
BRANCH   4  10
ATOM      6  C   UNL     1       3.340   7.388  17.383  0.00  0.00    +0.000 C 
ATOM      7  C   UNL     1       2.646   6.650  18.466  0.00  0.00    +0.000 A 
ATOM      8  C   UNL     1       2.566   7.014  19.795  0.00  0.00    +0.000 A 
ATOM      9  S   UNL     1       1.692   5.838  20.678  0.00  0.00    +0.000 S 
ATOM     10  C   UNL     1       1.519   4.905  19.239  0.00  0.00    +0.000 A 
ATOM     11  N   UNL     1       2.027   5.452  18.151  0.00  0.00    +0.000 NA
ENDBRANCH   4  10
ENDBRANCH   2   4
ENDBRANCH   1   2
BRANCH   1  12
ATOM     12  C   UNL     1       3.829   2.134  17.983  0.00  0.00    +0.000 C 
BRANCH  12  13
ATOM     13  O   UNL     1       4.414   3.217  18.707  0.00  0.00    +0.000 OA
BRANCH  13  14
ATOM     14  C   UNL     1       5.264   4.006  17.973  0.00  0.00    +0.000 A 
ATOM     15  C   UNL     1       6.044   5.055  18.475  0.00  0.00    +0.000 A 
ATOM     16  C   UNL     1       6.897   5.773  17.635  0.00  0.00    +0.000 A 
ATOM     17  C   UNL     1       6.973   5.450  16.282  0.00  0.00    +0.000 A 
ATOM     18  C   UNL     1       6.185   4.412  15.769  0.00  0.00    +0.000 A 
ATOM     19  C   UNL     1       5.334   3.697  16.613  0.00  0.00    +0.000 A 
BRANCH  18  20
ATOM     20  C   UNL     1       6.259   4.084  14.375  0.00  0.00    +0.000 C 
ATOM     21  N   UNL     1       6.313   3.824  13.246  0.00  0.00    +0.000 NA
ENDBRANCH  18  20
ENDBRANCH  13  14
ENDBRANCH  12  13
ENDBRANCH   1  12
TORSDOF 7
ENDMDL
MODEL 4
REMARK VINA RESULT:      -6.2      4.248      9.209
REMARK  Name = 
REMARK  9 active torsions:
REMARK  status: ('A' for Active; 'I' for Inactive)
REMARK    1  A    between atoms: C_1  and  C_2
REMARK    2  A    between atoms: C_5  and  C_6
REMARK    3  A    between atoms: C_6  and  C_7
REMARK    4  A    between atoms: C_6  and  N_8
REMARK    5  A    between atoms: N_8  and  C_9
REMARK    6  A    between atoms: C_9  and  C_10
REMARK    7  A    between atoms: C_10  and  O_11
REMARK    8  A    between atoms: O_11  and  C_12
REMARK    9  A    between atoms: C_16  and  C_17
REMARK                            x       y       z     vdW  Elec       q    Type
REMARK                         _______ _______ _______ _____ _____    ______ ____
ROOT
ATOM      1  C   UNL     1       8.117   8.138  18.089  0.00  0.00    +0.000 C 
ENDROOT
BRANCH   1   2
ATOM      2  N   UNL     1       7.480   7.428  16.970  0.00  0.00    +0.000 NA
ATOM      3  H   UNL     1       6.594   7.880  16.731  0.00  0.00    +0.000 HD
BRANCH   2   4
ATOM      4  C   UNL     1       7.208   5.999  17.228  0.00  0.00    +0.000 C 
ATOM      5  C   UNL     1       6.023   5.789  18.179  0.00  0.00    +0.000 C 
BRANCH   4  10
ATOM      6  C   UNL     1       7.539   4.862  12.413  0.00  0.00    +0.000 C 
ATOM      7  C   UNL     1       7.001   4.715  13.787  0.00  0.00    +0.000 A 
ATOM      8  C   UNL     1       5.935   3.930  14.178  0.00  0.00    +0.000 A 
ATOM      9  S   UNL     1       5.657   4.105  15.856  0.00  0.00    +0.000 S 
ATOM     10  C   UNL     1       6.946   5.246  15.937  0.00  0.00    +0.000 A 
ATOM     11  N   UNL     1       7.588   5.450  14.803  0.00  0.00    +0.000 NA
ENDBRANCH   4  10
ENDBRANCH   2   4
ENDBRANCH   1   2
BRANCH   1  12
ATOM     12  C   UNL     1       8.189   9.655  17.873  0.00  0.00    +0.000 C 
BRANCH  12  13
ATOM     13  O   UNL     1       9.093  10.261  18.797  0.00  0.00    +0.000 OA
BRANCH  13  14
ATOM     14  C   UNL     1       9.699  11.406  18.342  0.00  0.00    +0.000 A 
ATOM     15  C   UNL     1      10.995  11.493  17.821  0.00  0.00    +0.000 A 
ATOM     16  C   UNL     1      11.496  12.712  17.361  0.00  0.00    +0.000 A 
ATOM     17  C   UNL     1      10.706  13.857  17.424  0.00  0.00    +0.000 A 
ATOM     18  C   UNL     1       9.413  13.781  17.958  0.00  0.00    +0.000 A 
ATOM     19  C   UNL     1       8.916  12.560  18.416  0.00  0.00    +0.000 A 
BRANCH  18  20
ATOM     20  C   UNL     1       8.601  14.961  18.029  0.00  0.00    +0.000 C 
ATOM     21  N   UNL     1       7.949  15.918  18.082  0.00  0.00    +0.000 NA
ENDBRANCH  18  20
ENDBRANCH  13  14
ENDBRANCH  12  13
ENDBRANCH   1  12
TORSDOF 7
ENDMDL
MODEL 5
REMARK VINA RESULT:      -6.1      2.340      3.777
REMARK  Name = 
REMARK  9 active torsions:
REMARK  status: ('A' for Active; 'I' for Inactive)
REMARK    1  A    between atoms: C_1  and  C_2
REMARK    2  A    between atoms: C_5  and  C_6
REMARK    3  A    between atoms: C_6  and  C_7
REMARK    4  A    between atoms: C_6  and  N_8
REMARK    5  A    between atoms: N_8  and  C_9
REMARK    6  A    between atoms: C_9  and  C_10
REMARK    7  A    between atoms: C_10  and  O_11
REMARK    8  A    between atoms: O_11  and  C_12
REMARK    9  A    between atoms: C_16  and  C_17
REMARK                            x       y       z     vdW  Elec       q    Type
REMARK                         _______ _______ _______ _____ _____    ______ ____
ROOT
ATOM      1  C   UNL     1       4.755   5.933  16.451  0.00  0.00    +0.000 C 
ENDROOT
BRANCH   1   2
ATOM      2  N   UNL     1       6.022   6.407  15.876  0.00  0.00    +0.000 NA
ATOM      3  H   UNL     1       5.840   6.907  15.002  0.00  0.00    +0.000 HD
BRANCH   2   4
ATOM      4  C   UNL     1       7.003   5.339  15.595  0.00  0.00    +0.000 C 
ATOM      5  C   UNL     1       6.876   4.156  16.562  0.00  0.00    +0.000 C 
BRANCH   4  10
ATOM      6  C   UNL     1       5.411   2.515  11.843  0.00  0.00    +0.000 C 
ATOM      7  C   UNL     1       6.248   3.574  12.457  0.00  0.00    +0.000 A 
ATOM      8  C   UNL     1       7.295   4.248  11.862  0.00  0.00    +0.000 A 
ATOM      9  S   UNL     1       7.986   5.357  12.966  0.00  0.00    +0.000 S 
ATOM     10  C   UNL     1       6.872   4.831  14.172  0.00  0.00    +0.000 A 
ATOM     11  N   UNL     1       5.998   3.927  13.772  0.00  0.00    +0.000 NA
ENDBRANCH   4  10
ENDBRANCH   2   4
ENDBRANCH   1   2
BRANCH   1  12
ATOM     12  C   UNL     1       4.453   6.546  17.825  0.00  0.00    +0.000 C 
BRANCH  12  13
ATOM     13  O   UNL     1       3.102   6.295  18.211  0.00  0.00    +0.000 OA
BRANCH  13  14
ATOM     14  C   UNL     1       2.800   4.973  18.420  0.00  0.00    +0.000 A 
ATOM     15  C   UNL     1       1.701   4.291  17.883  0.00  0.00    +0.000 A 
ATOM     16  C   UNL     1       1.510   2.933  18.142  0.00  0.00    +0.000 A 
ATOM     17  C   UNL     1       2.416   2.245  18.946  0.00  0.00    +0.000 A 
ATOM     18  C   UNL     1       3.510   2.924  19.499  0.00  0.00    +0.000 A 
ATOM     19  C   UNL     1       3.696   4.282  19.236  0.00  0.00    +0.000 A 
BRANCH  18  20
ATOM     20  C   UNL     1       4.440   2.217  20.332  0.00  0.00    +0.000 C 
ATOM     21  N   UNL     1       5.191   1.652  21.010  0.00  0.00    +0.000 NA
ENDBRANCH  18  20
ENDBRANCH  13  14
ENDBRANCH  12  13
ENDBRANCH   1  12
TORSDOF 7
ENDMDL
MODEL 6
REMARK VINA RESULT:      -6.1      2.717      5.855
REMARK  Name = 
REMARK  9 active torsions:
REMARK  status: ('A' for Active; 'I' for Inactive)
REMARK    1  A    between atoms: C_1  and  C_2
REMARK    2  A    between atoms: C_5  and  C_6
REMARK    3  A    between atoms: C_6  and  C_7
REMARK    4  A    between atoms: C_6  and  N_8
REMARK    5  A    between atoms: N_8  and  C_9
REMARK    6  A    between atoms: C_9  and  C_10
REMARK    7  A    between atoms: C_10  and  O_11
REMARK    8  A    between atoms: O_11  and  C_12
REMARK    9  A    between atoms: C_16  and  C_17
REMARK                            x       y       z     vdW  Elec       q    Type
REMARK                         _______ _______ _______ _____ _____    ______ ____
ROOT
ATOM      1  C   UNL     1       3.941   2.457  19.557  0.00  0.00    +0.000 C 
ENDROOT
BRANCH   1   2
ATOM      2  N   UNL     1       2.973   2.634  18.465  0.00  0.00    +0.000 NA
ATOM      3  H   UNL     1       3.391   3.192  17.717  0.00  0.00    +0.000 HD
BRANCH   2   4
ATOM      4  C   UNL     1       1.709   3.286  18.868  0.00  0.00    +0.000 C 
ATOM      5  C   UNL     1       1.133   2.699  20.162  0.00  0.00    +0.000 C 
BRANCH   4  10
ATOM      6  C   UNL     1       2.965   7.937  17.696  0.00  0.00    +0.000 C 
ATOM      7  C   UNL     1       2.483   6.873  18.608  0.00  0.00    +0.000 A 
ATOM      8  C   UNL     1       2.256   6.988  19.965  0.00  0.00    +0.000 A 
ATOM      9  S   UNL     1       1.738   5.489  20.606  0.00  0.00    +0.000 S 
ATOM     10  C   UNL     1       1.893   4.781  19.042  0.00  0.00    +0.000 A 
ATOM     11  N   UNL     1       2.253   5.613  18.083  0.00  0.00    +0.000 NA
ENDBRANCH   4  10
ENDBRANCH   2   4
ENDBRANCH   1   2
BRANCH   1  12
ATOM     12  C   UNL     1       4.872   3.664  19.734  0.00  0.00    +0.000 C 
BRANCH  12  13
ATOM     13  O   UNL     1       5.957   3.612  18.809  0.00  0.00    +0.000 OA
BRANCH  13  14
ATOM     14  C   UNL     1       5.953   4.605  17.861  0.00  0.00    +0.000 A 
ATOM     15  C   UNL     1       5.252   4.575  16.649  0.00  0.00    +0.000 A 
ATOM     16  C   UNL     1       5.300   5.660  15.772  0.00  0.00    +0.000 A 
ATOM     17  C   UNL     1       6.055   6.784  16.099  0.00  0.00    +0.000 A 
ATOM     18  C   UNL     1       6.771   6.816  17.302  0.00  0.00    +0.000 A 
ATOM     19  C   UNL     1       6.719   5.728  18.176  0.00  0.00    +0.000 A 
BRANCH  18  20
ATOM     20  C   UNL     1       7.553   7.971  17.636  0.00  0.00    +0.000 C 
ATOM     21  N   UNL     1       8.187   8.906  17.898  0.00  0.00    +0.000 NA
ENDBRANCH  18  20
ENDBRANCH  13  14
ENDBRANCH  12  13
ENDBRANCH   1  12
TORSDOF 7
ENDMDL
MODEL 7
REMARK VINA RESULT:      -6.1      1.808      2.421
REMARK  Name = 
REMARK  9 active torsions:
REMARK  status: ('A' for Active; 'I' for Inactive)
REMARK    1  A    between atoms: C_1  and  C_2
REMARK    2  A    between atoms: C_5  and  C_6
REMARK    3  A    between atoms: C_6  and  C_7
REMARK    4  A    between atoms: C_6  and  N_8
REMARK    5  A    between atoms: N_8  and  C_9
REMARK    6  A    between atoms: C_9  and  C_10
REMARK    7  A    between atoms: C_10  and  O_11
REMARK    8  A    between atoms: O_11  and  C_12
REMARK    9  A    between atoms: C_16  and  C_17
REMARK                            x       y       z     vdW  Elec       q    Type
REMARK                         _______ _______ _______ _____ _____    ______ ____
ROOT
ATOM      1  C   UNL     1       4.799   3.998  16.987  0.00  0.00    +0.000 C 
ENDROOT
BRANCH   1   2
ATOM      2  N   UNL     1       5.791   3.341  16.123  0.00  0.00    +0.000 NA
ATOM      3  H   UNL     1       6.168   2.515  16.594  0.00  0.00    +0.000 HD
BRANCH   2   4
ATOM      4  C   UNL     1       6.926   4.202  15.732  0.00  0.00    +0.000 C 
ATOM      5  C   UNL     1       6.697   4.901  14.387  0.00  0.00    +0.000 C 
BRANCH   4  10
ATOM      6  C   UNL     1       7.876   8.679  17.641  0.00  0.00    +0.000 C 
ATOM      7  C   UNL     1       7.695   7.209  17.708  0.00  0.00    +0.000 A 
ATOM      8  C   UNL     1       7.948   6.393  18.792  0.00  0.00    +0.000 A 
ATOM      9  S   UNL     1       7.625   4.762  18.392  0.00  0.00    +0.000 S 
ATOM     10  C   UNL     1       7.213   5.250  16.791  0.00  0.00    +0.000 A 
ATOM     11  N   UNL     1       7.255   6.550  16.572  0.00  0.00    +0.000 NA
ENDBRANCH   4  10
ENDBRANCH   2   4
ENDBRANCH   1   2
BRANCH   1  12
ATOM     12  C   UNL     1       3.384   3.430  16.815  0.00  0.00    +0.000 C 
BRANCH  12  13
ATOM     13  O   UNL     1       3.070   2.513  17.863  0.00  0.00    +0.000 OA
BRANCH  13  14
ATOM     14  C   UNL     1       2.696   3.100  19.047  0.00  0.00    +0.000 A 
ATOM     15  C   UNL     1       2.471   2.430  20.255  0.00  0.00    +0.000 A 
ATOM     16  C   UNL     1       2.121   3.138  21.406  0.00  0.00    +0.000 A 
ATOM     17  C   UNL     1       1.989   4.524  21.357  0.00  0.00    +0.000 A 
ATOM     18  C   UNL     1       2.199   5.199  20.148  0.00  0.00    +0.000 A 
ATOM     19  C   UNL     1       2.549   4.487  19.000  0.00  0.00    +0.000 A 
BRANCH  18  20
ATOM     20  C   UNL     1       2.057   6.626  20.095  0.00  0.00    +0.000 C 
ATOM     21  N   UNL     1       1.942   7.778  20.044  0.00  0.00    +0.000 NA
ENDBRANCH  18  20
ENDBRANCH  13  14
ENDBRANCH  12  13
ENDBRANCH   1  12
TORSDOF 7
ENDMDL
MODEL 8
REMARK VINA RESULT:      -6.1      2.969      6.028
REMARK  Name = 
REMARK  9 active torsions:
REMARK  status: ('A' for Active; 'I' for Inactive)
REMARK    1  A    between atoms: C_1  and  C_2
REMARK    2  A    between atoms: C_5  and  C_6
REMARK    3  A    between atoms: C_6  and  C_7
REMARK    4  A    between atoms: C_6  and  N_8
REMARK    5  A    between atoms: N_8  and  C_9
REMARK    6  A    between atoms: C_9  and  C_10
REMARK    7  A    between atoms: C_10  and  O_11
REMARK    8  A    between atoms: O_11  and  C_12
REMARK    9  A    between atoms: C_16  and  C_17
REMARK                            x       y       z     vdW  Elec       q    Type
REMARK                         _______ _______ _______ _____ _____    ______ ____
ROOT
ATOM      1  C   UNL     1       3.122   2.163  19.379  0.00  0.00    +0.000 C 
ENDROOT
BRANCH   1   2
ATOM      2  N   UNL     1       2.232   3.133  18.724  0.00  0.00    +0.000 NA
ATOM      3  H   UNL     1       2.788   3.821  18.210  0.00  0.00    +0.000 HD
BRANCH   2   4
ATOM      4  C   UNL     1       1.341   3.865  19.648  0.00  0.00    +0.000 C 
ATOM      5  C   UNL     1       1.351   3.275  21.063  0.00  0.00    +0.000 C 
BRANCH   4  10
ATOM      6  C   UNL     1       1.424   8.511  21.379  0.00  0.00    +0.000 C 
ATOM      7  C   UNL     1       1.750   7.441  20.405  0.00  0.00    +0.000 A 
ATOM      8  C   UNL     1       2.347   7.602  19.170  0.00  0.00    +0.000 A 
ATOM      9  S   UNL     1       2.492   6.090  18.383  0.00  0.00    +0.000 S 
ATOM     10  C   UNL     1       1.711   5.334  19.721  0.00  0.00    +0.000 A 
ATOM     11  N   UNL     1       1.407   6.138  20.722  0.00  0.00    +0.000 NA
ENDBRANCH   4  10
ENDBRANCH   2   4
ENDBRANCH   1   2
BRANCH   1  12
ATOM     12  C   UNL     1       4.609   2.446  19.123  0.00  0.00    +0.000 C 
BRANCH  12  13
ATOM     13  O   UNL     1       4.973   3.740  19.604  0.00  0.00    +0.000 OA
BRANCH  13  14
ATOM     14  C   UNL     1       5.741   4.479  18.740  0.00  0.00    +0.000 A 
ATOM     15  C   UNL     1       6.569   5.551  19.095  0.00  0.00    +0.000 A 
ATOM     16  C   UNL     1       7.328   6.213  18.129  0.00  0.00    +0.000 A 
ATOM     17  C   UNL     1       7.262   5.812  16.797  0.00  0.00    +0.000 A 
ATOM     18  C   UNL     1       6.424   4.750  16.432  0.00  0.00    +0.000 A 
ATOM     19  C   UNL     1       5.667   4.091  17.401  0.00  0.00    +0.000 A 
BRANCH  18  20
ATOM     20  C   UNL     1       6.350   4.340  15.059  0.00  0.00    +0.000 C 
ATOM     21  N   UNL     1       6.299   4.010  13.949  0.00  0.00    +0.000 NA
ENDBRANCH  18  20
ENDBRANCH  13  14
ENDBRANCH  12  13
ENDBRANCH   1  12
TORSDOF 7
ENDMDL
MODEL 9
REMARK VINA RESULT:      -6.1      4.171      6.466
REMARK  Name = 
REMARK  9 active torsions:
REMARK  status: ('A' for Active; 'I' for Inactive)
REMARK    1  A    between atoms: C_1  and  C_2
REMARK    2  A    between atoms: C_5  and  C_6
REMARK    3  A    between atoms: C_6  and  C_7
REMARK    4  A    between atoms: C_6  and  N_8
REMARK    5  A    between atoms: N_8  and  C_9
REMARK    6  A    between atoms: C_9  and  C_10
REMARK    7  A    between atoms: C_10  and  O_11
REMARK    8  A    between atoms: O_11  and  C_12
REMARK    9  A    between atoms: C_16  and  C_17
REMARK                            x       y       z     vdW  Elec       q    Type
REMARK                         _______ _______ _______ _____ _____    ______ ____
ROOT
ATOM      1  C   UNL     1       8.304   8.981  17.970  0.00  0.00    +0.000 C 
ENDROOT
BRANCH   1   2
ATOM      2  N   UNL     1       8.997   9.353  19.212  0.00  0.00    +0.000 NA
ATOM      3  H   UNL     1       8.336   9.348  19.993  0.00  0.00    +0.000 HD
BRANCH   2   4
ATOM      4  C   UNL     1       9.649  10.679  19.174  0.00  0.00    +0.000 C 
ATOM      5  C   UNL     1       9.279  11.479  17.920  0.00  0.00    +0.000 C 
BRANCH   4  10
ATOM      6  C   UNL     1       8.012  11.639  23.755  0.00  0.00    +0.000 C 
ATOM      7  C   UNL     1       8.536  12.009  22.418  0.00  0.00    +0.000 A 
ATOM      8  C   UNL     1       8.654  13.283  21.901  0.00  0.00    +0.000 A 
ATOM      9  S   UNL     1       9.276  13.218  20.309  0.00  0.00    +0.000 S 
ATOM     10  C   UNL     1       9.303  11.497  20.403  0.00  0.00    +0.000 A 
ATOM     11  N   UNL     1       8.927  10.993  21.563  0.00  0.00    +0.000 NA
ENDBRANCH   4  10
ENDBRANCH   2   4
ENDBRANCH   1   2
BRANCH   1  12
ATOM     12  C   UNL     1       7.782   7.538  17.984  0.00  0.00    +0.000 C 
BRANCH  12  13
ATOM     13  O   UNL     1       7.697   7.011  16.660  0.00  0.00    +0.000 OA
BRANCH  13  14
ATOM     14  C   UNL     1       6.777   6.005  16.499  0.00  0.00    +0.000 A 
ATOM     15  C   UNL     1       6.966   4.838  15.748  0.00  0.00    +0.000 A 
ATOM     16  C   UNL     1       5.965   3.868  15.680  0.00  0.00    +0.000 A 
ATOM     17  C   UNL     1       4.764   4.059  16.358  0.00  0.00    +0.000 A 
ATOM     18  C   UNL     1       4.562   5.230  17.099  0.00  0.00    +0.000 A 
ATOM     19  C   UNL     1       5.566   6.198  17.165  0.00  0.00    +0.000 A 
BRANCH  18  20
ATOM     20  C   UNL     1       3.323   5.431  17.793  0.00  0.00    +0.000 C 
ATOM     21  N   UNL     1       2.323   5.600  18.355  0.00  0.00    +0.000 NA
ENDBRANCH  18  20
ENDBRANCH  13  14
ENDBRANCH  12  13
ENDBRANCH   1  12
TORSDOF 7
ENDMDL
