MODEL 1
REMARK VINA RESULT:      -7.2      0.000      0.000
REMARK  Name = 
REMARK  6 active torsions:
REMARK  status: ('A' for Active; 'I' for Inactive)
REMARK    1  A    between atoms: C_1  and  C_2
REMARK    2  A    between atoms: C_6  and  C_8
REMARK    3  A    between atoms: C_8  and  C_10
REMARK    4  A    between atoms: C_16  and  C_17
REMARK    5  A    between atoms: C_18  and  C_19
REMARK    6  A    between atoms: C_20  and  O_21
REMARK                            x       y       z     vdW  Elec       q    Type
REMARK                         _______ _______ _______ _____ _____    ______ ____
ROOT
ATOM      1  C   UNL     1       1.236   3.503  20.784  0.00  0.00    +0.000 C 
ATOM      2  C   UNL     1       1.980   4.421  19.857  0.00  0.00    +0.000 A 
ATOM      3  N   UNL     1       1.815   5.753  20.047  0.00  0.00    +0.000 NA
ATOM      4  C   UNL     1       2.438   6.591  19.194  0.00  0.00    +0.000 A 
ATOM      5  N   UNL     1       2.129   7.937  19.433  0.00  0.00    +0.000 N 
ATOM      6  C   UNL     1       1.730   8.819  18.443  0.00  0.00    +0.000 C 
ATOM      7  O   UNL     1       1.601   8.496  17.261  0.00  0.00    +0.000 OA
ATOM      8  C   UNL     1       3.343   6.162  18.207  0.00  0.00    +0.000 A 
ATOM      9  C   UNL     1       4.185   7.141  17.431  0.00  0.00    +0.000 C 
ATOM     10  C   UNL     1       3.490   4.768  18.001  0.00  0.00    +0.000 A 
ATOM     11  C   UNL     1       4.391   4.214  16.928  0.00  0.00    +0.000 C 
ATOM     12  C   UNL     1       2.794   3.899  18.852  0.00  0.00    +0.000 A 
ATOM     13  H   UNL     1       1.723   8.085  20.349  0.00  0.00    +0.000 HD
ENDROOT
BRANCH   6  14
ATOM     14  C   UNL     1       1.361  10.241  18.913  0.00  0.00    +0.000 C 
ATOM     15 CL   UNL     1       2.360  11.501  18.120  0.00  0.00    +0.000 Cl
BRANCH  14  16
ATOM     16  C   UNL     1      -0.110  10.567  18.715  0.00  0.00    +0.000 A 
ATOM     17  C   UNL     1      -0.854   9.897  17.731  0.00  0.00    +0.000 A 
ATOM     18  C   UNL     1      -2.205  10.202  17.525  0.00  0.00    +0.000 A 
ATOM     19  C   UNL     1      -2.826  11.176  18.303  0.00  0.00    +0.000 A 
ATOM     20  C   UNL     1      -2.101  11.845  19.288  0.00  0.00    +0.000 A 
ATOM     21  C   UNL     1      -0.756  11.541  19.496  0.00  0.00    +0.000 A 
ENDBRANCH  14  16
ENDBRANCH   6  14
BRANCH  12  22
ATOM     22  O   UNL     1       2.896   2.537  18.756  0.00  0.00    +0.000 OA
ATOM     23  H   UNL     1       2.015   2.134  18.751  0.00  0.00    +0.000 HD
ENDBRANCH  12  22
TORSDOF 3
ENDMDL
MODEL 2
REMARK VINA RESULT:      -7.2      0.126      1.060
REMARK  Name = 
REMARK  6 active torsions:
REMARK  status: ('A' for Active; 'I' for Inactive)
REMARK    1  A    between atoms: C_1  and  C_2
REMARK    2  A    between atoms: C_6  and  C_8
REMARK    3  A    between atoms: C_8  and  C_10
REMARK    4  A    between atoms: C_16  and  C_17
REMARK    5  A    between atoms: C_18  and  C_19
REMARK    6  A    between atoms: C_20  and  O_21
REMARK                            x       y       z     vdW  Elec       q    Type
REMARK                         _______ _______ _______ _____ _____    ______ ____
ROOT
ATOM      1  C   UNL     1       1.115   3.454  20.530  0.00  0.00    +0.000 C 
ATOM      2  C   UNL     1       1.919   4.388  19.672  0.00  0.00    +0.000 A 
ATOM      3  N   UNL     1       1.759   5.716  19.893  0.00  0.00    +0.000 NA
ATOM      4  C   UNL     1       2.438   6.570  19.100  0.00  0.00    +0.000 A 
ATOM      5  N   UNL     1       2.132   7.913  19.362  0.00  0.00    +0.000 N 
ATOM      6  C   UNL     1       1.798   8.828  18.379  0.00  0.00    +0.000 C 
ATOM      7  O   UNL     1       1.730   8.541  17.182  0.00  0.00    +0.000 OA
ATOM      8  C   UNL     1       3.391   6.158  18.152  0.00  0.00    +0.000 A 
ATOM      9  C   UNL     1       4.286   7.148  17.453  0.00  0.00    +0.000 C 
ATOM     10  C   UNL     1       3.533   4.768  17.913  0.00  0.00    +0.000 A 
ATOM     11  C   UNL     1       4.485   4.234  16.875  0.00  0.00    +0.000 C 
ATOM     12  C   UNL     1       2.782   3.884  18.699  0.00  0.00    +0.000 A 
ATOM     13  H   UNL     1       1.679   8.039  20.259  0.00  0.00    +0.000 HD
ENDROOT
BRANCH   6  14
ATOM     14  C   UNL     1       1.420  10.241  18.870  0.00  0.00    +0.000 C 
ATOM     15 CL   UNL     1       2.407  11.519  18.092  0.00  0.00    +0.000 Cl
BRANCH  14  16
ATOM     16  C   UNL     1      -0.053  10.559  18.681  0.00  0.00    +0.000 A 
ATOM     17  C   UNL     1      -0.675  11.525  19.488  0.00  0.00    +0.000 A 
ATOM     18  C   UNL     1      -2.037  11.812  19.338  0.00  0.00    +0.000 A 
ATOM     19  C   UNL     1      -2.790  11.141  18.377  0.00  0.00    +0.000 A 
ATOM     20  C   UNL     1      -2.184  10.184  17.565  0.00  0.00    +0.000 A 
ATOM     21  C   UNL     1      -0.827   9.897  17.712  0.00  0.00    +0.000 A 
ENDBRANCH  14  16
ENDBRANCH   6  14
BRANCH  12  22
ATOM     22  O   UNL     1       2.872   2.525  18.568  0.00  0.00    +0.000 OA
ATOM     23  H   UNL     1       2.553   2.249  17.697  0.00  0.00    +0.000 HD
ENDBRANCH  12  22
TORSDOF 3
ENDMDL
MODEL 3
REMARK VINA RESULT:      -7.2      2.452      3.598
REMARK  Name = 
REMARK  6 active torsions:
REMARK  status: ('A' for Active; 'I' for Inactive)
REMARK    1  A    between atoms: C_1  and  C_2
REMARK    2  A    between atoms: C_6  and  C_8
REMARK    3  A    between atoms: C_8  and  C_10
REMARK    4  A    between atoms: C_16  and  C_17
REMARK    5  A    between atoms: C_18  and  C_19
REMARK    6  A    between atoms: C_20  and  O_21
REMARK                            x       y       z     vdW  Elec       q    Type
REMARK                         _______ _______ _______ _____ _____    ______ ____
ROOT
ATOM      1  C   UNL     1       7.337   6.560  17.155  0.00  0.00    +0.000 C 
ATOM      2  C   UNL     1       5.909   6.167  17.408  0.00  0.00    +0.000 A 
ATOM      3  N   UNL     1       5.005   7.171  17.513  0.00  0.00    +0.000 NA
ATOM      4  C   UNL     1       3.727   6.838  17.786  0.00  0.00    +0.000 A 
ATOM      5  N   UNL     1       2.900   7.957  17.957  0.00  0.00    +0.000 N 
ATOM      6  C   UNL     1       2.043   8.120  19.032  0.00  0.00    +0.000 C 
ATOM      7  O   UNL     1       1.938   7.297  19.943  0.00  0.00    +0.000 OA
ATOM      8  C   UNL     1       3.264   5.511  17.838  0.00  0.00    +0.000 A 
ATOM      9  C   UNL     1       1.795   5.192  17.919  0.00  0.00    +0.000 C 
ATOM     10  C   UNL     1       4.221   4.470  17.750  0.00  0.00    +0.000 A 
ATOM     11  C   UNL     1       3.829   3.020  17.855  0.00  0.00    +0.000 C 
ATOM     12  C   UNL     1       5.559   4.822  17.525  0.00  0.00    +0.000 A 
ATOM     13  H   UNL     1       3.313   8.805  17.586  0.00  0.00    +0.000 HD
ENDROOT
BRANCH   6  14
ATOM     14  C   UNL     1       1.269   9.453  19.084  0.00  0.00    +0.000 C 
ATOM     15 CL   UNL     1       0.002   9.555  17.820  0.00  0.00    +0.000 Cl
BRANCH  14  16
ATOM     16  C   UNL     1       0.646   9.723  20.443  0.00  0.00    +0.000 A 
ATOM     17  C   UNL     1      -0.349  10.705  20.580  0.00  0.00    +0.000 A 
ATOM     18  C   UNL     1      -0.916  10.976  21.831  0.00  0.00    +0.000 A 
ATOM     19  C   UNL     1      -0.499  10.268  22.955  0.00  0.00    +0.000 A 
ATOM     20  C   UNL     1       0.482   9.286  22.832  0.00  0.00    +0.000 A 
ATOM     21  C   UNL     1       1.048   9.012  21.587  0.00  0.00    +0.000 A 
ENDBRANCH  14  16
ENDBRANCH   6  14
BRANCH  12  22
ATOM     22  O   UNL     1       6.552   3.889  17.392  0.00  0.00    +0.000 OA
ATOM     23  H   UNL     1       6.566   3.540  16.489  0.00  0.00    +0.000 HD
ENDBRANCH  12  22
TORSDOF 3
ENDMDL
MODEL 4
REMARK VINA RESULT:      -7.2      2.827      7.112
REMARK  Name = 
REMARK  6 active torsions:
REMARK  status: ('A' for Active; 'I' for Inactive)
REMARK    1  A    between atoms: C_1  and  C_2
REMARK    2  A    between atoms: C_6  and  C_8
REMARK    3  A    between atoms: C_8  and  C_10
REMARK    4  A    between atoms: C_16  and  C_17
REMARK    5  A    between atoms: C_18  and  C_19
REMARK    6  A    between atoms: C_20  and  O_21
REMARK                            x       y       z     vdW  Elec       q    Type
REMARK                         _______ _______ _______ _____ _____    ______ ____
ROOT
ATOM      1  C   UNL     1       0.493   9.369  23.249  0.00  0.00    +0.000 C 
ATOM      2  C   UNL     1       0.813   9.322  21.782  0.00  0.00    +0.000 A 
ATOM      3  N   UNL     1       1.157   8.117  21.266  0.00  0.00    +0.000 NA
ATOM      4  C   UNL     1       1.493   8.065  19.961  0.00  0.00    +0.000 A 
ATOM      5  N   UNL     1       1.911   6.789  19.559  0.00  0.00    +0.000 N 
ATOM      6  C   UNL     1       3.073   6.554  18.845  0.00  0.00    +0.000 C 
ATOM      7  O   UNL     1       3.851   7.447  18.506  0.00  0.00    +0.000 OA
ATOM      8  C   UNL     1       1.381   9.161  19.087  0.00  0.00    +0.000 A 
ATOM      9  C   UNL     1       1.548   9.002  17.599  0.00  0.00    +0.000 C 
ATOM     10  C   UNL     1       1.044  10.421  19.641  0.00  0.00    +0.000 A 
ATOM     11  C   UNL     1       0.958  11.664  18.794  0.00  0.00    +0.000 C 
ATOM     12  C   UNL     1       0.752  10.482  21.010  0.00  0.00    +0.000 A 
ATOM     13  H   UNL     1       1.640   6.067  20.215  0.00  0.00    +0.000 HD
ENDROOT
BRANCH   6  14
ATOM     14  C   UNL     1       3.404   5.074  18.558  0.00  0.00    +0.000 C 
ATOM     15 CL   UNL     1       2.117   4.260  17.613  0.00  0.00    +0.000 Cl
BRANCH  14  16
ATOM     16  C   UNL     1       4.738   4.891  17.855  0.00  0.00    +0.000 A 
ATOM     17  C   UNL     1       4.780   4.675  16.468  0.00  0.00    +0.000 A 
ATOM     18  C   UNL     1       6.001   4.485  15.812  0.00  0.00    +0.000 A 
ATOM     19  C   UNL     1       7.193   4.514  16.533  0.00  0.00    +0.000 A 
ATOM     20  C   UNL     1       7.167   4.734  17.909  0.00  0.00    +0.000 A 
ATOM     21  C   UNL     1       5.950   4.925  18.565  0.00  0.00    +0.000 A 
ENDBRANCH  14  16
ENDBRANCH   6  14
BRANCH  12  22
ATOM     22  O   UNL     1       0.384  11.645  21.633  0.00  0.00    +0.000 OA
ATOM     23  H   UNL     1       0.734  11.668  22.535  0.00  0.00    +0.000 HD
ENDBRANCH  12  22
TORSDOF 3
ENDMDL
MODEL 5
REMARK VINA RESULT:      -7.2      2.821      7.158
REMARK  Name = 
REMARK  6 active torsions:
REMARK  status: ('A' for Active; 'I' for Inactive)
REMARK    1  A    between atoms: C_1  and  C_2
REMARK    2  A    between atoms: C_6  and  C_8
REMARK    3  A    between atoms: C_8  and  C_10
REMARK    4  A    between atoms: C_16  and  C_17
REMARK    5  A    between atoms: C_18  and  C_19
REMARK    6  A    between atoms: C_20  and  O_21
REMARK                            x       y       z     vdW  Elec       q    Type
REMARK                         _______ _______ _______ _____ _____    ______ ____
ROOT
ATOM      1  C   UNL     1       0.676   9.362  23.283  0.00  0.00    +0.000 C 
ATOM      2  C   UNL     1       0.934   9.302  21.805  0.00  0.00    +0.000 A 
ATOM      3  N   UNL     1       1.262   8.094  21.286  0.00  0.00    +0.000 NA
ATOM      4  C   UNL     1       1.542   8.031  19.969  0.00  0.00    +0.000 A 
ATOM      5  N   UNL     1       1.949   6.754  19.561  0.00  0.00    +0.000 N 
ATOM      6  C   UNL     1       3.081   6.517  18.800  0.00  0.00    +0.000 C 
ATOM      7  O   UNL     1       3.840   7.411  18.420  0.00  0.00    +0.000 OA
ATOM      8  C   UNL     1       1.388   9.118  19.090  0.00  0.00    +0.000 A 
ATOM      9  C   UNL     1       1.492   8.946  17.598  0.00  0.00    +0.000 C 
ATOM     10  C   UNL     1       1.068  10.382  19.646  0.00  0.00    +0.000 A 
ATOM     11  C   UNL     1       0.941  11.616  18.792  0.00  0.00    +0.000 C 
ATOM     12  C   UNL     1       0.835  10.455  21.026  0.00  0.00    +0.000 A 
ATOM     13  H   UNL     1       1.710   6.037  20.235  0.00  0.00    +0.000 HD
ENDROOT
BRANCH   6  14
ATOM     14  C   UNL     1       3.407   5.036  18.514  0.00  0.00    +0.000 C 
ATOM     15 CL   UNL     1       2.091   4.211  17.619  0.00  0.00    +0.000 Cl
BRANCH  14  16
ATOM     16  C   UNL     1       4.716   4.852  17.767  0.00  0.00    +0.000 A 
ATOM     17  C   UNL     1       5.932   4.832  18.469  0.00  0.00    +0.000 A 
ATOM     18  C   UNL     1       7.147   4.684  17.790  0.00  0.00    +0.000 A 
ATOM     19  C   UNL     1       7.160   4.548  16.404  0.00  0.00    +0.000 A 
ATOM     20  C   UNL     1       5.960   4.559  15.694  0.00  0.00    +0.000 A 
ATOM     21  C   UNL     1       4.748   4.706  16.369  0.00  0.00    +0.000 A 
ENDBRANCH  14  16
ENDBRANCH   6  14
BRANCH  12  22
ATOM     22  O   UNL     1       0.487  11.621  21.653  0.00  0.00    +0.000 OA
ATOM     23  H   UNL     1       0.540  12.364  21.034  0.00  0.00    +0.000 HD
ENDBRANCH  12  22
TORSDOF 3
ENDMDL
MODEL 6
REMARK VINA RESULT:      -7.1      4.404      6.873
REMARK  Name = 
REMARK  6 active torsions:
REMARK  status: ('A' for Active; 'I' for Inactive)
REMARK    1  A    between atoms: C_1  and  C_2
REMARK    2  A    between atoms: C_6  and  C_8
REMARK    3  A    between atoms: C_8  and  C_10
REMARK    4  A    between atoms: C_16  and  C_17
REMARK    5  A    between atoms: C_18  and  C_19
REMARK    6  A    between atoms: C_20  and  O_21
REMARK                            x       y       z     vdW  Elec       q    Type
REMARK                         _______ _______ _______ _____ _____    ______ ____
ROOT
ATOM      1  C   UNL     1       1.593   6.367  20.836  0.00  0.00    +0.000 C 
ATOM      2  C   UNL     1       2.064   5.176  20.052  0.00  0.00    +0.000 A 
ATOM      3  N   UNL     1       3.324   5.227  19.556  0.00  0.00    +0.000 NA
ATOM      4  C   UNL     1       3.747   4.186  18.809  0.00  0.00    +0.000 A 
ATOM      5  N   UNL     1       5.030   4.384  18.280  0.00  0.00    +0.000 N 
ATOM      6  C   UNL     1       5.347   4.187  16.947  0.00  0.00    +0.000 C 
ATOM      7  O   UNL     1       4.526   3.828  16.102  0.00  0.00    +0.000 OA
ATOM      8  C   UNL     1       3.002   3.007  18.629  0.00  0.00    +0.000 A 
ATOM      9  C   UNL     1       3.603   1.787  17.981  0.00  0.00    +0.000 C 
ATOM     10  C   UNL     1       1.678   2.974  19.131  0.00  0.00    +0.000 A 
ATOM     11  C   UNL     1       0.783   1.779  18.935  0.00  0.00    +0.000 C 
ATOM     12  C   UNL     1       1.220   4.083  19.857  0.00  0.00    +0.000 A 
ATOM     13  H   UNL     1       5.533   5.126  18.751  0.00  0.00    +0.000 HD
ENDROOT
BRANCH   6  14
ATOM     14  C   UNL     1       6.795   4.529  16.539  0.00  0.00    +0.000 C 
ATOM     15 CL   UNL     1       6.962   4.786  14.773  0.00  0.00    +0.000 Cl
BRANCH  14  16
ATOM     16  C   UNL     1       7.349   5.736  17.277  0.00  0.00    +0.000 A 
ATOM     17  C   UNL     1       7.914   5.583  18.554  0.00  0.00    +0.000 A 
ATOM     18  C   UNL     1       8.409   6.690  19.253  0.00  0.00    +0.000 A 
ATOM     19  C   UNL     1       8.349   7.959  18.683  0.00  0.00    +0.000 A 
ATOM     20  C   UNL     1       7.797   8.125  17.413  0.00  0.00    +0.000 A 
ATOM     21  C   UNL     1       7.304   7.023  16.714  0.00  0.00    +0.000 A 
ENDBRANCH  14  16
ENDBRANCH   6  14
BRANCH  12  22
ATOM     22  O   UNL     1      -0.030   4.134  20.411  0.00  0.00    +0.000 OA
ATOM     23  H   UNL     1      -0.033   3.696  21.275  0.00  0.00    +0.000 HD
ENDBRANCH  12  22
TORSDOF 3
ENDMDL
MODEL 7
REMARK VINA RESULT:      -7.1      4.406      6.839
REMARK  Name = 
REMARK  6 active torsions:
REMARK  status: ('A' for Active; 'I' for Inactive)
REMARK    1  A    between atoms: C_1  and  C_2
REMARK    2  A    between atoms: C_6  and  C_8
REMARK    3  A    between atoms: C_8  and  C_10
REMARK    4  A    between atoms: C_16  and  C_17
REMARK    5  A    between atoms: C_18  and  C_19
REMARK    6  A    between atoms: C_20  and  O_21
REMARK                            x       y       z     vdW  Elec       q    Type
REMARK                         _______ _______ _______ _____ _____    ______ ____
ROOT
ATOM      1  C   UNL     1       1.580   6.371  20.876  0.00  0.00    +0.000 C 
ATOM      2  C   UNL     1       2.057   5.189  20.082  0.00  0.00    +0.000 A 
ATOM      3  N   UNL     1       3.323   5.241  19.603  0.00  0.00    +0.000 NA
ATOM      4  C   UNL     1       3.752   4.208  18.849  0.00  0.00    +0.000 A 
ATOM      5  N   UNL     1       5.042   4.408  18.339  0.00  0.00    +0.000 N 
ATOM      6  C   UNL     1       5.376   4.226  17.007  0.00  0.00    +0.000 C 
ATOM      7  O   UNL     1       4.564   3.880  16.148  0.00  0.00    +0.000 OA
ATOM      8  C   UNL     1       3.006   3.034  18.645  0.00  0.00    +0.000 A 
ATOM      9  C   UNL     1       3.611   1.820  17.990  0.00  0.00    +0.000 C 
ATOM     10  C   UNL     1       1.675   2.999  19.130  0.00  0.00    +0.000 A 
ATOM     11  C   UNL     1       0.779   1.809  18.907  0.00  0.00    +0.000 C 
ATOM     12  C   UNL     1       1.212   4.100  19.863  0.00  0.00    +0.000 A 
ATOM     13  H   UNL     1       5.542   5.142  18.825  0.00  0.00    +0.000 HD
ENDROOT
BRANCH   6  14
ATOM     14  C   UNL     1       6.830   4.568  16.622  0.00  0.00    +0.000 C 
ATOM     15 CL   UNL     1       7.034   4.779  14.854  0.00  0.00    +0.000 Cl
BRANCH  14  16
ATOM     16  C   UNL     1       7.359   5.798  17.340  0.00  0.00    +0.000 A 
ATOM     17  C   UNL     1       7.282   7.059  16.728  0.00  0.00    +0.000 A 
ATOM     18  C   UNL     1       7.784   8.197  17.370  0.00  0.00    +0.000 A 
ATOM     19  C   UNL     1       8.363   8.087  18.632  0.00  0.00    +0.000 A 
ATOM     20  C   UNL     1       8.441   6.842  19.255  0.00  0.00    +0.000 A 
ATOM     21  C   UNL     1       7.940   5.707  18.616  0.00  0.00    +0.000 A 
ENDBRANCH  14  16
ENDBRANCH   6  14
BRANCH  12  22
ATOM     22  O   UNL     1      -0.045   4.149  20.402  0.00  0.00    +0.000 OA
ATOM     23  H   UNL     1      -0.514   4.937  20.090  0.00  0.00    +0.000 HD
ENDBRANCH  12  22
TORSDOF 3
ENDMDL
MODEL 8
REMARK VINA RESULT:      -7.1      1.873      2.397
REMARK  Name = 
REMARK  6 active torsions:
REMARK  status: ('A' for Active; 'I' for Inactive)
REMARK    1  A    between atoms: C_1  and  C_2
REMARK    2  A    between atoms: C_6  and  C_8
REMARK    3  A    between atoms: C_8  and  C_10
REMARK    4  A    between atoms: C_16  and  C_17
REMARK    5  A    between atoms: C_18  and  C_19
REMARK    6  A    between atoms: C_20  and  O_21
REMARK                            x       y       z     vdW  Elec       q    Type
REMARK                         _______ _______ _______ _____ _____    ______ ____
ROOT
ATOM      1  C   UNL     1       1.479   3.129  21.399  0.00  0.00    +0.000 C 
ATOM      2  C   UNL     1       2.094   4.018  20.357  0.00  0.00    +0.000 A 
ATOM      3  N   UNL     1       2.026   5.355  20.572  0.00  0.00    +0.000 NA
ATOM      4  C   UNL     1       2.532   6.170  19.624  0.00  0.00    +0.000 A 
ATOM      5  N   UNL     1       2.330   7.527  19.912  0.00  0.00    +0.000 N 
ATOM      6  C   UNL     1       1.808   8.433  19.004  0.00  0.00    +0.000 C 
ATOM      7  O   UNL     1       1.464   8.124  17.862  0.00  0.00    +0.000 OA
ATOM      8  C   UNL     1       3.234   5.707  18.497  0.00  0.00    +0.000 A 
ATOM      9  C   UNL     1       3.975   6.652  17.588  0.00  0.00    +0.000 C 
ATOM     10  C   UNL     1       3.279   4.309  18.270  0.00  0.00    +0.000 A 
ATOM     11  C   UNL     1       3.957   3.723  17.059  0.00  0.00    +0.000 C 
ATOM     12  C   UNL     1       2.700   3.467  19.229  0.00  0.00    +0.000 A 
ATOM     13  H   UNL     1       2.094   7.687  20.884  0.00  0.00    +0.000 HD
ENDROOT
BRANCH   6  14
ATOM     14  C   UNL     1       1.591   9.867  19.530  0.00  0.00    +0.000 C 
ATOM     15 CL   UNL     1       0.912  10.955  18.278  0.00  0.00    +0.000 Cl
BRANCH  14  16
ATOM     16  C   UNL     1       0.713   9.917  20.769  0.00  0.00    +0.000 A 
ATOM     17  C   UNL     1       0.303  11.153  21.293  0.00  0.00    +0.000 A 
ATOM     18  C   UNL     1      -0.489  11.212  22.446  0.00  0.00    +0.000 A 
ATOM     19  C   UNL     1      -0.883  10.038  23.084  0.00  0.00    +0.000 A 
ATOM     20  C   UNL     1      -0.488   8.804  22.570  0.00  0.00    +0.000 A 
ATOM     21  C   UNL     1       0.300   8.742  21.421  0.00  0.00    +0.000 A 
ENDBRANCH  14  16
ENDBRANCH   6  14
BRANCH  12  22
ATOM     22  O   UNL     1       2.721   2.102  19.118  0.00  0.00    +0.000 OA
ATOM     23  H   UNL     1       2.953   1.700  19.967  0.00  0.00    +0.000 HD
ENDBRANCH  12  22
TORSDOF 3
ENDMDL
MODEL 9
REMARK VINA RESULT:      -7.1      2.460      3.682
REMARK  Name = 
REMARK  6 active torsions:
REMARK  status: ('A' for Active; 'I' for Inactive)
REMARK    1  A    between atoms: C_1  and  C_2
REMARK    2  A    between atoms: C_6  and  C_8
REMARK    3  A    between atoms: C_8  and  C_10
REMARK    4  A    between atoms: C_16  and  C_17
REMARK    5  A    between atoms: C_18  and  C_19
REMARK    6  A    between atoms: C_20  and  O_21
REMARK                            x       y       z     vdW  Elec       q    Type
REMARK                         _______ _______ _______ _____ _____    ______ ____
ROOT
ATOM      1  C   UNL     1       7.495   6.650  17.349  0.00  0.00    +0.000 C 
ATOM      2  C   UNL     1       6.067   6.302  17.658  0.00  0.00    +0.000 A 
ATOM      3  N   UNL     1       5.128   7.232  17.358  0.00  0.00    +0.000 NA
ATOM      4  C   UNL     1       3.846   6.955  17.672  0.00  0.00    +0.000 A 
ATOM      5  N   UNL     1       2.978   8.020  17.394  0.00  0.00    +0.000 N 
ATOM      6  C   UNL     1       2.053   8.510  18.300  0.00  0.00    +0.000 C 
ATOM      7  O   UNL     1       1.916   8.059  19.438  0.00  0.00    +0.000 OA
ATOM      8  C   UNL     1       3.421   5.712  18.172  0.00  0.00    +0.000 A 
ATOM      9  C   UNL     1       1.959   5.370  18.293  0.00  0.00    +0.000 C 
ATOM     10  C   UNL     1       4.412   4.755  18.505  0.00  0.00    +0.000 A 
ATOM     11  C   UNL     1       4.058   3.419  19.101  0.00  0.00    +0.000 C 
ATOM     12  C   UNL     1       5.750   5.070  18.231  0.00  0.00    +0.000 A 
ATOM     13  H   UNL     1       3.387   8.701  16.765  0.00  0.00    +0.000 HD
ENDROOT
BRANCH   6  14
ATOM     14  C   UNL     1       1.237   9.735  17.838  0.00  0.00    +0.000 C 
ATOM     15 CL   UNL     1      -0.528   9.420  17.842  0.00  0.00    +0.000 Cl
BRANCH  14  16
ATOM     16  C   UNL     1       1.527  10.982  18.656  0.00  0.00    +0.000 A 
ATOM     17  C   UNL     1       0.961  11.136  19.931  0.00  0.00    +0.000 A 
ATOM     18  C   UNL     1       1.205  12.289  20.686  0.00  0.00    +0.000 A 
ATOM     19  C   UNL     1       2.019  13.298  20.177  0.00  0.00    +0.000 A 
ATOM     20  C   UNL     1       2.593  13.156  18.915  0.00  0.00    +0.000 A 
ATOM     21  C   UNL     1       2.353  12.006  18.161  0.00  0.00    +0.000 A 
ENDBRANCH  14  16
ENDBRANCH   6  14
BRANCH  12  22
ATOM     22  O   UNL     1       6.777   4.201  18.485  0.00  0.00    +0.000 OA
ATOM     23  H   UNL     1       6.736   3.447  17.879  0.00  0.00    +0.000 HD
ENDBRANCH  12  22
TORSDOF 3
ENDMDL
