MODEL 1
REMARK VINA RESULT:      -7.2      0.000      0.000
REMARK  Name = 
REMARK  7 active torsions:
REMARK  status: ('A' for Active; 'I' for Inactive)
REMARK    1  A    between atoms: C_1  and  C_2
REMARK    2  A    between atoms: C_2  and  S_3
REMARK    3  A    between atoms: S_3  and  N_6
REMARK    4  A    between atoms: N_6  and  C_7
REMARK    5  A    between atoms: C_7  and  C_8
REMARK    6  A    between atoms: C_8  and  N_9
REMARK    7  A    between atoms: C_19  and  C_20
REMARK                            x       y       z     vdW  Elec       q    Type
REMARK                         _______ _______ _______ _____ _____    ______ ____
ROOT
ATOM      1  N   UNL     1       4.492   5.436  18.245  0.00  0.00    +0.000 NA
ATOM      2  C   UNL     1       3.721   4.974  17.082  0.00  0.00    +0.000 C 
ATOM      3  C   UNL     1       3.218   3.541  17.270  0.00  0.00    +0.000 C 
ATOM      4  C   UNL     1       2.548   3.336  18.603  0.00  0.00    +0.000 A 
ATOM      5  C   UNL     1       1.693   2.239  18.795  0.00  0.00    +0.000 A 
ATOM      6  C   UNL     1       1.106   2.014  20.040  0.00  0.00    +0.000 A 
ATOM      7  C   UNL     1       1.400   2.865  21.094  0.00  0.00    +0.000 A 
ATOM      8  F   UNL     1       0.838   2.652  22.293  0.00  0.00    +0.000 F 
ATOM      9  C   UNL     1       2.257   3.944  20.928  0.00  0.00    +0.000 A 
ATOM     10  C   UNL     1       2.830   4.207  19.671  0.00  0.00    +0.000 A 
ATOM     11  C   UNL     1       3.684   5.458  19.482  0.00  0.00    +0.000 C 
ATOM     12  C   UNL     1       2.779   6.700  19.629  0.00  0.00    +0.000 C 
ENDROOT
BRANCH   1  13
ATOM     13  C   UNL     1       5.185   6.698  17.930  0.00  0.00    +0.000 C 
BRANCH  13  14
ATOM     14  C   UNL     1       6.449   6.567  17.057  0.00  0.00    +0.000 C 
BRANCH  14  15
ATOM     15  N   UNL     1       6.179   6.281  15.616  0.00  0.00    +0.000 NA
ATOM     16  H   UNL     1       5.189   6.066  15.493  0.00  0.00    +0.000 HD
BRANCH  15  17
ATOM     17  S   UNL     1       7.138   5.055  14.957  0.00  0.00    +0.000 S 
ATOM     18  O   UNL     1       7.685   4.333  16.084  0.00  0.00    +0.000 OA
ATOM     19  O   UNL     1       7.985   5.608  13.927  0.00  0.00    +0.000 OA
BRANCH  17  21
ATOM     20  C   UNL     1       6.359   3.666  12.764  0.00  0.00    +0.000 C 
ATOM     21  C   UNL     1       5.907   4.021  14.169  0.00  0.00    +0.000 C 
ENDBRANCH  17  21
ENDBRANCH  15  17
ENDBRANCH  14  15
ENDBRANCH  13  14
ENDBRANCH   1  13
TORSDOF 5
ENDMDL
MODEL 2
REMARK VINA RESULT:      -6.8      5.172      6.379
REMARK  Name = 
REMARK  7 active torsions:
REMARK  status: ('A' for Active; 'I' for Inactive)
REMARK    1  A    between atoms: C_1  and  C_2
REMARK    2  A    between atoms: C_2  and  S_3
REMARK    3  A    between atoms: S_3  and  N_6
REMARK    4  A    between atoms: N_6  and  C_7
REMARK    5  A    between atoms: C_7  and  C_8
REMARK    6  A    between atoms: C_8  and  N_9
REMARK    7  A    between atoms: C_19  and  C_20
REMARK                            x       y       z     vdW  Elec       q    Type
REMARK                         _______ _______ _______ _____ _____    ______ ____
ROOT
ATOM      1  N   UNL     1       2.133   7.259  18.437  0.00  0.00    +0.000 NA
ATOM      2  C   UNL     1       2.203   7.442  19.893  0.00  0.00    +0.000 C 
ATOM      3  C   UNL     1       1.512   6.299  20.640  0.00  0.00    +0.000 C 
ATOM      4  C   UNL     1       1.944   4.943  20.146  0.00  0.00    +0.000 A 
ATOM      5  C   UNL     1       1.736   3.808  20.945  0.00  0.00    +0.000 A 
ATOM      6  C   UNL     1       2.088   2.543  20.475  0.00  0.00    +0.000 A 
ATOM      7  C   UNL     1       2.614   2.414  19.199  0.00  0.00    +0.000 A 
ATOM      8  F   UNL     1       2.954   1.199  18.744  0.00  0.00    +0.000 F 
ATOM      9  C   UNL     1       2.809   3.522  18.388  0.00  0.00    +0.000 A 
ATOM     10  C   UNL     1       2.494   4.809  18.858  0.00  0.00    +0.000 A 
ATOM     11  C   UNL     1       2.814   6.025  17.992  0.00  0.00    +0.000 C 
ATOM     12  C   UNL     1       4.348   6.154  17.870  0.00  0.00    +0.000 C 
ENDROOT
BRANCH   1  13
ATOM     13  C   UNL     1       2.558   8.490  17.746  0.00  0.00    +0.000 C 
BRANCH  13  14
ATOM     14  C   UNL     1       1.808   9.775  18.148  0.00  0.00    +0.000 C 
BRANCH  14  15
ATOM     15  N   UNL     1       0.373   9.809  17.733  0.00  0.00    +0.000 NA
ATOM     16  H   UNL     1       0.299  10.218  16.802  0.00  0.00    +0.000 HD
BRANCH  15  17
ATOM     17  S   UNL     1      -0.647  10.611  18.816  0.00  0.00    +0.000 S 
ATOM     18  O   UNL     1      -0.382  12.021  18.636  0.00  0.00    +0.000 OA
ATOM     19  O   UNL     1      -0.563   9.983  20.113  0.00  0.00    +0.000 OA
BRANCH  17  21
ATOM     20  C   UNL     1      -2.151  10.114  16.617  0.00  0.00    +0.000 C 
ATOM     21  C   UNL     1      -2.259  10.249  18.125  0.00  0.00    +0.000 C 
ENDBRANCH  17  21
ENDBRANCH  15  17
ENDBRANCH  14  15
ENDBRANCH  13  14
ENDBRANCH   1  13
TORSDOF 5
ENDMDL
MODEL 3
REMARK VINA RESULT:      -6.7      4.234      6.423
REMARK  Name = 
REMARK  7 active torsions:
REMARK  status: ('A' for Active; 'I' for Inactive)
REMARK    1  A    between atoms: C_1  and  C_2
REMARK    2  A    between atoms: C_2  and  S_3
REMARK    3  A    between atoms: S_3  and  N_6
REMARK    4  A    between atoms: N_6  and  C_7
REMARK    5  A    between atoms: C_7  and  C_8
REMARK    6  A    between atoms: C_8  and  N_9
REMARK    7  A    between atoms: C_19  and  C_20
REMARK                            x       y       z     vdW  Elec       q    Type
REMARK                         _______ _______ _______ _____ _____    ______ ____
ROOT
ATOM      1  N   UNL     1       3.559   5.585  18.828  0.00  0.00    +0.000 NA
ATOM      2  C   UNL     1       4.799   5.621  19.616  0.00  0.00    +0.000 C 
ATOM      3  C   UNL     1       5.860   4.679  19.043  0.00  0.00    +0.000 C 
ATOM      4  C   UNL     1       6.042   4.851  17.558  0.00  0.00    +0.000 A 
ATOM      5  C   UNL     1       7.210   4.380  16.938  0.00  0.00    +0.000 A 
ATOM      6  C   UNL     1       7.366   4.492  15.556  0.00  0.00    +0.000 A 
ATOM      7  C   UNL     1       6.344   5.042  14.798  0.00  0.00    +0.000 A 
ATOM      8  F   UNL     1       6.490   5.150  13.470  0.00  0.00    +0.000 F 
ATOM      9  C   UNL     1       5.175   5.495  15.392  0.00  0.00    +0.000 A 
ATOM     10  C   UNL     1       5.014   5.424  16.787  0.00  0.00    +0.000 A 
ATOM     11  C   UNL     1       3.767   6.024  17.432  0.00  0.00    +0.000 C 
ATOM     12  C   UNL     1       3.805   7.556  17.246  0.00  0.00    +0.000 C 
ENDROOT
BRANCH   1  13
ATOM     13  C   UNL     1       2.477   6.283  19.546  0.00  0.00    +0.000 C 
BRANCH  13  14
ATOM     14  C   UNL     1       1.546   5.387  20.386  0.00  0.00    +0.000 C 
BRANCH  14  15
ATOM     15  N   UNL     1       2.243   4.579  21.432  0.00  0.00    +0.000 NA
ATOM     16  H   UNL     1       3.200   4.917  21.539  0.00  0.00    +0.000 HD
BRANCH  15  17
ATOM     17  S   UNL     1       2.230   2.912  21.149  0.00  0.00    +0.000 S 
ATOM     18  O   UNL     1       1.553   2.326  22.284  0.00  0.00    +0.000 OA
ATOM     19  O   UNL     1       3.547   2.482  20.746  0.00  0.00    +0.000 OA
BRANCH  17  21
ATOM     20  C   UNL     1       1.922   2.264  18.536  0.00  0.00    +0.000 C 
ATOM     21  C   UNL     1       1.148   2.798  19.727  0.00  0.00    +0.000 C 
ENDBRANCH  17  21
ENDBRANCH  15  17
ENDBRANCH  14  15
ENDBRANCH  13  14
ENDBRANCH   1  13
TORSDOF 5
ENDMDL
MODEL 4
REMARK VINA RESULT:      -6.6      1.205      1.427
REMARK  Name = 
REMARK  7 active torsions:
REMARK  status: ('A' for Active; 'I' for Inactive)
REMARK    1  A    between atoms: C_1  and  C_2
REMARK    2  A    between atoms: C_2  and  S_3
REMARK    3  A    between atoms: S_3  and  N_6
REMARK    4  A    between atoms: N_6  and  C_7
REMARK    5  A    between atoms: C_7  and  C_8
REMARK    6  A    between atoms: C_8  and  N_9
REMARK    7  A    between atoms: C_19  and  C_20
REMARK                            x       y       z     vdW  Elec       q    Type
REMARK                         _______ _______ _______ _____ _____    ______ ____
ROOT
ATOM      1  N   UNL     1       4.285   5.671  18.357  0.00  0.00    +0.000 NA
ATOM      2  C   UNL     1       5.023   4.459  17.977  0.00  0.00    +0.000 C 
ATOM      3  C   UNL     1       5.254   3.538  19.178  0.00  0.00    +0.000 C 
ATOM      4  C   UNL     1       3.996   3.297  19.970  0.00  0.00    +0.000 A 
ATOM      5  C   UNL     1       3.917   2.200  20.841  0.00  0.00    +0.000 A 
ATOM      6  C   UNL     1       2.774   1.996  21.614  0.00  0.00    +0.000 A 
ATOM      7  C   UNL     1       1.731   2.906  21.538  0.00  0.00    +0.000 A 
ATOM      8  F   UNL     1       0.630   2.714  22.280  0.00  0.00    +0.000 F 
ATOM      9  C   UNL     1       1.799   4.007  20.697  0.00  0.00    +0.000 A 
ATOM     10  C   UNL     1       2.928   4.209  19.884  0.00  0.00    +0.000 A 
ATOM     11  C   UNL     1       2.939   5.366  18.888  0.00  0.00    +0.000 C 
ATOM     12  C   UNL     1       1.874   5.094  17.804  0.00  0.00    +0.000 C 
ENDROOT
BRANCH   1  13
ATOM     13  C   UNL     1       4.314   6.652  17.257  0.00  0.00    +0.000 C 
BRANCH  13  14
ATOM     14  C   UNL     1       5.659   6.788  16.518  0.00  0.00    +0.000 C 
BRANCH  14  15
ATOM     15  N   UNL     1       5.681   6.176  15.156  0.00  0.00    +0.000 NA
ATOM     16  H   UNL     1       4.796   5.700  14.983  0.00  0.00    +0.000 HD
BRANCH  15  17
ATOM     17  S   UNL     1       6.981   5.129  14.882  0.00  0.00    +0.000 S 
ATOM     18  O   UNL     1       7.562   4.876  16.181  0.00  0.00    +0.000 OA
ATOM     19  O   UNL     1       7.772   5.621  13.780  0.00  0.00    +0.000 OA
BRANCH  17  21
ATOM     20  C   UNL     1       6.081   3.609  12.827  0.00  0.00    +0.000 C 
ATOM     21  C   UNL     1       6.137   3.645  14.343  0.00  0.00    +0.000 C 
ENDBRANCH  17  21
ENDBRANCH  15  17
ENDBRANCH  14  15
ENDBRANCH  13  14
ENDBRANCH   1  13
TORSDOF 5
ENDMDL
MODEL 5
REMARK VINA RESULT:      -6.6      5.212      7.552
REMARK  Name = 
REMARK  7 active torsions:
REMARK  status: ('A' for Active; 'I' for Inactive)
REMARK    1  A    between atoms: C_1  and  C_2
REMARK    2  A    between atoms: C_2  and  S_3
REMARK    3  A    between atoms: S_3  and  N_6
REMARK    4  A    between atoms: N_6  and  C_7
REMARK    5  A    between atoms: C_7  and  C_8
REMARK    6  A    between atoms: C_8  and  N_9
REMARK    7  A    between atoms: C_19  and  C_20
REMARK                            x       y       z     vdW  Elec       q    Type
REMARK                         _______ _______ _______ _____ _____    ______ ____
ROOT
ATOM      1  N   UNL     1       2.957   6.136  19.525  0.00  0.00    +0.000 NA
ATOM      2  C   UNL     1       2.559   7.208  18.601  0.00  0.00    +0.000 C 
ATOM      3  C   UNL     1       3.690   7.574  17.638  0.00  0.00    +0.000 C 
ATOM      4  C   UNL     1       4.305   6.365  16.985  0.00  0.00    +0.000 A 
ATOM      5  C   UNL     1       5.058   6.511  15.810  0.00  0.00    +0.000 A 
ATOM      6  C   UNL     1       5.672   5.404  15.224  0.00  0.00    +0.000 A 
ATOM      7  C   UNL     1       5.558   4.163  15.832  0.00  0.00    +0.000 A 
ATOM      8  F   UNL     1       6.146   3.096  15.272  0.00  0.00    +0.000 F 
ATOM      9  C   UNL     1       4.832   4.002  17.004  0.00  0.00    +0.000 A 
ATOM     10  C   UNL     1       4.178   5.100  17.589  0.00  0.00    +0.000 A 
ATOM     11  C   UNL     1       3.298   4.883  18.818  0.00  0.00    +0.000 C 
ATOM     12  C   UNL     1       2.077   4.032  18.407  0.00  0.00    +0.000 C 
ENDROOT
BRANCH   1  13
ATOM     13  C   UNL     1       1.962   5.993  20.602  0.00  0.00    +0.000 C 
BRANCH  13  14
ATOM     14  C   UNL     1       0.988   7.176  20.773  0.00  0.00    +0.000 C 
BRANCH  14  15
ATOM     15  N   UNL     1       1.503   8.280  21.637  0.00  0.00    +0.000 NA
ATOM     16  H   UNL     1       1.570   7.954  22.601  0.00  0.00    +0.000 HD
BRANCH  15  17
ATOM     17  S   UNL     1       0.601   9.708  21.556  0.00  0.00    +0.000 S 
ATOM     18  O   UNL     1      -0.331   9.522  20.467  0.00  0.00    +0.000 OA
ATOM     19  O   UNL     1       1.490  10.843  21.609  0.00  0.00    +0.000 OA
BRANCH  17  21
ATOM     20  C   UNL     1      -1.266  10.820  23.175  0.00  0.00    +0.000 C 
ATOM     21  C   UNL     1      -0.311   9.643  23.095  0.00  0.00    +0.000 C 
ENDBRANCH  17  21
ENDBRANCH  15  17
ENDBRANCH  14  15
ENDBRANCH  13  14
ENDBRANCH   1  13
TORSDOF 5
ENDMDL
MODEL 6
REMARK VINA RESULT:      -6.6      2.867      4.439
REMARK  Name = 
REMARK  7 active torsions:
REMARK  status: ('A' for Active; 'I' for Inactive)
REMARK    1  A    between atoms: C_1  and  C_2
REMARK    2  A    between atoms: C_2  and  S_3
REMARK    3  A    between atoms: S_3  and  N_6
REMARK    4  A    between atoms: N_6  and  C_7
REMARK    5  A    between atoms: C_7  and  C_8
REMARK    6  A    between atoms: C_8  and  N_9
REMARK    7  A    between atoms: C_19  and  C_20
REMARK                            x       y       z     vdW  Elec       q    Type
REMARK                         _______ _______ _______ _____ _____    ______ ____
ROOT
ATOM      1  N   UNL     1       3.333   4.515  19.648  0.00  0.00    +0.000 NA
ATOM      2  C   UNL     1       2.320   4.515  20.712  0.00  0.00    +0.000 C 
ATOM      3  C   UNL     1       2.127   5.911  21.309  0.00  0.00    +0.000 C 
ATOM      4  C   UNL     1       1.943   6.969  20.253  0.00  0.00    +0.000 A 
ATOM      5  C   UNL     1       1.370   8.204  20.592  0.00  0.00    +0.000 A 
ATOM      6  C   UNL     1       1.240   9.208  19.632  0.00  0.00    +0.000 A 
ATOM      7  C   UNL     1       1.711   8.984  18.348  0.00  0.00    +0.000 A 
ATOM      8  F   UNL     1       1.588   9.946  17.421  0.00  0.00    +0.000 F 
ATOM      9  C   UNL     1       2.297   7.776  17.998  0.00  0.00    +0.000 A 
ATOM     10  C   UNL     1       2.405   6.741  18.944  0.00  0.00    +0.000 A 
ATOM     11  C   UNL     1       2.955   5.383  18.512  0.00  0.00    +0.000 C 
ATOM     12  C   UNL     1       1.960   4.739  17.523  0.00  0.00    +0.000 C 
ENDROOT
BRANCH   1  13
ATOM     13  C   UNL     1       3.691   3.133  19.283  0.00  0.00    +0.000 C 
BRANCH  13  14
ATOM     14  C   UNL     1       4.909   2.982  18.350  0.00  0.00    +0.000 C 
BRANCH  14  15
ATOM     15  N   UNL     1       6.066   3.862  18.697  0.00  0.00    +0.000 NA
ATOM     16  H   UNL     1       5.804   4.478  19.466  0.00  0.00    +0.000 HD
BRANCH  15  17
ATOM     17  S   UNL     1       6.675   4.758  17.399  0.00  0.00    +0.000 S 
ATOM     18  O   UNL     1       7.999   4.236  17.147  0.00  0.00    +0.000 OA
ATOM     19  O   UNL     1       6.444   6.163  17.634  0.00  0.00    +0.000 OA
BRANCH  17  21
ATOM     20  C   UNL     1       6.396   4.124  14.779  0.00  0.00    +0.000 C 
ATOM     21  C   UNL     1       5.600   4.233  16.066  0.00  0.00    +0.000 C 
ENDBRANCH  17  21
ENDBRANCH  15  17
ENDBRANCH  14  15
ENDBRANCH  13  14
ENDBRANCH   1  13
TORSDOF 5
ENDMDL
MODEL 7
REMARK VINA RESULT:      -6.6      5.140      6.574
REMARK  Name = 
REMARK  7 active torsions:
REMARK  status: ('A' for Active; 'I' for Inactive)
REMARK    1  A    between atoms: C_1  and  C_2
REMARK    2  A    between atoms: C_2  and  S_3
REMARK    3  A    between atoms: S_3  and  N_6
REMARK    4  A    between atoms: N_6  and  C_7
REMARK    5  A    between atoms: C_7  and  C_8
REMARK    6  A    between atoms: C_8  and  N_9
REMARK    7  A    between atoms: C_19  and  C_20
REMARK                            x       y       z     vdW  Elec       q    Type
REMARK                         _______ _______ _______ _____ _____    ______ ____
ROOT
ATOM      1  N   UNL     1       2.070   7.331  18.480  0.00  0.00    +0.000 NA
ATOM      2  C   UNL     1       2.174   7.497  19.936  0.00  0.00    +0.000 C 
ATOM      3  C   UNL     1       1.487   6.353  20.686  0.00  0.00    +0.000 C 
ATOM      4  C   UNL     1       1.893   4.999  20.168  0.00  0.00    +0.000 A 
ATOM      5  C   UNL     1       1.691   3.858  20.959  0.00  0.00    +0.000 A 
ATOM      6  C   UNL     1       2.019   2.594  20.468  0.00  0.00    +0.000 A 
ATOM      7  C   UNL     1       2.516   2.473  19.180  0.00  0.00    +0.000 A 
ATOM      8  F   UNL     1       2.833   1.260  18.704  0.00  0.00    +0.000 F 
ATOM      9  C   UNL     1       2.706   3.588  18.376  0.00  0.00    +0.000 A 
ATOM     10  C   UNL     1       2.414   4.873  18.867  0.00  0.00    +0.000 A 
ATOM     11  C   UNL     1       2.729   6.095  18.007  0.00  0.00    +0.000 C 
ATOM     12  C   UNL     1       4.261   6.209  17.854  0.00  0.00    +0.000 C 
ENDROOT
BRANCH   1  13
ATOM     13  C   UNL     1       2.494   8.565  17.793  0.00  0.00    +0.000 C 
BRANCH  13  14
ATOM     14  C   UNL     1       1.704   9.837  18.157  0.00  0.00    +0.000 C 
BRANCH  14  15
ATOM     15  N   UNL     1       0.281   9.832  17.703  0.00  0.00    +0.000 NA
ATOM     16  H   UNL     1       0.230  10.175  16.743  0.00  0.00    +0.000 HD
BRANCH  15  17
ATOM     17  S   UNL     1      -0.772  10.702  18.700  0.00  0.00    +0.000 S 
ATOM     18  O   UNL     1      -2.104  10.275  18.334  0.00  0.00    +0.000 OA
ATOM     19  O   UNL     1      -0.396  12.096  18.699  0.00  0.00    +0.000 OA
BRANCH  17  21
ATOM     20  C   UNL     1      -0.077  11.148  21.281  0.00  0.00    +0.000 C 
ATOM     21  C   UNL     1      -0.384  10.022  20.310  0.00  0.00    +0.000 C 
ENDBRANCH  17  21
ENDBRANCH  15  17
ENDBRANCH  14  15
ENDBRANCH  13  14
ENDBRANCH   1  13
TORSDOF 5
ENDMDL
MODEL 8
REMARK VINA RESULT:      -6.5      4.040      6.208
REMARK  Name = 
REMARK  7 active torsions:
REMARK  status: ('A' for Active; 'I' for Inactive)
REMARK    1  A    between atoms: C_1  and  C_2
REMARK    2  A    between atoms: C_2  and  S_3
REMARK    3  A    between atoms: S_3  and  N_6
REMARK    4  A    between atoms: N_6  and  C_7
REMARK    5  A    between atoms: C_7  and  C_8
REMARK    6  A    between atoms: C_8  and  N_9
REMARK    7  A    between atoms: C_19  and  C_20
REMARK                            x       y       z     vdW  Elec       q    Type
REMARK                         _______ _______ _______ _____ _____    ______ ____
ROOT
ATOM      1  N   UNL     1       4.413   5.015  19.048  0.00  0.00    +0.000 NA
ATOM      2  C   UNL     1       5.732   5.603  19.316  0.00  0.00    +0.000 C 
ATOM      3  C   UNL     1       6.831   4.923  18.495  0.00  0.00    +0.000 C 
ATOM      4  C   UNL     1       6.471   4.802  17.038  0.00  0.00    +0.000 A 
ATOM      5  C   UNL     1       7.477   4.580  16.085  0.00  0.00    +0.000 A 
ATOM      6  C   UNL     1       7.148   4.418  14.739  0.00  0.00    +0.000 A 
ATOM      7  C   UNL     1       5.816   4.445  14.357  0.00  0.00    +0.000 A 
ATOM      8  F   UNL     1       5.495   4.289  13.064  0.00  0.00    +0.000 F 
ATOM      9  C   UNL     1       4.806   4.644  15.288  0.00  0.00    +0.000 A 
ATOM     10  C   UNL     1       5.121   4.845  16.644  0.00  0.00    +0.000 A 
ATOM     11  C   UNL     1       4.006   5.168  17.635  0.00  0.00    +0.000 C 
ATOM     12  C   UNL     1       3.424   6.555  17.287  0.00  0.00    +0.000 C 
ENDROOT
BRANCH   1  13
ATOM     13  C   UNL     1       3.429   5.494  20.035  0.00  0.00    +0.000 C 
BRANCH  13  14
ATOM     14  C   UNL     1       2.482   4.422  20.610  0.00  0.00    +0.000 C 
BRANCH  14  15
ATOM     15  N   UNL     1       1.206   4.255  19.853  0.00  0.00    +0.000 NA
ATOM     16  H   UNL     1       0.429   4.182  20.510  0.00  0.00    +0.000 HD
BRANCH  15  17
ATOM     17  S   UNL     1       1.198   2.951  18.777  0.00  0.00    +0.000 S 
ATOM     18  O   UNL     1       1.461   3.514  17.473  0.00  0.00    +0.000 OA
ATOM     19  O   UNL     1       0.040   2.126  19.029  0.00  0.00    +0.000 OA
BRANCH  17  21
ATOM     20  C   UNL     1       3.472   1.646  18.090  0.00  0.00    +0.000 C 
ATOM     21  C   UNL     1       2.650   2.045  19.303  0.00  0.00    +0.000 C 
ENDBRANCH  17  21
ENDBRANCH  15  17
ENDBRANCH  14  15
ENDBRANCH  13  14
ENDBRANCH   1  13
TORSDOF 5
ENDMDL
MODEL 9
REMARK VINA RESULT:      -6.5      4.446      6.987
REMARK  Name = 
REMARK  7 active torsions:
REMARK  status: ('A' for Active; 'I' for Inactive)
REMARK    1  A    between atoms: C_1  and  C_2
REMARK    2  A    between atoms: C_2  and  S_3
REMARK    3  A    between atoms: S_3  and  N_6
REMARK    4  A    between atoms: N_6  and  C_7
REMARK    5  A    between atoms: C_7  and  C_8
REMARK    6  A    between atoms: C_8  and  N_9
REMARK    7  A    between atoms: C_19  and  C_20
REMARK                            x       y       z     vdW  Elec       q    Type
REMARK                         _______ _______ _______ _____ _____    ______ ____
ROOT
ATOM      1  N   UNL     1       5.635   4.216  18.381  0.00  0.00    +0.000 NA
ATOM      2  C   UNL     1       6.249   5.548  18.297  0.00  0.00    +0.000 C 
ATOM      3  C   UNL     1       7.332   5.604  17.217  0.00  0.00    +0.000 C 
ATOM      4  C   UNL     1       6.867   5.032  15.904  0.00  0.00    +0.000 A 
ATOM      5  C   UNL     1       7.552   5.348  14.721  0.00  0.00    +0.000 A 
ATOM      6  C   UNL     1       7.158   4.785  13.507  0.00  0.00    +0.000 A 
ATOM      7  C   UNL     1       6.104   3.884  13.486  0.00  0.00    +0.000 A 
ATOM      8  F   UNL     1       5.723   3.340  12.321  0.00  0.00    +0.000 F 
ATOM      9  C   UNL     1       5.427   3.545  14.648  0.00  0.00    +0.000 A 
ATOM     10  C   UNL     1       5.787   4.131  15.875  0.00  0.00    +0.000 A 
ATOM     11  C   UNL     1       4.962   3.826  17.124  0.00  0.00    +0.000 C 
ATOM     12  C   UNL     1       3.553   4.430  16.943  0.00  0.00    +0.000 C 
ENDROOT
BRANCH   1  13
ATOM     13  C   UNL     1       4.801   4.113  19.592  0.00  0.00    +0.000 C 
BRANCH  13  14
ATOM     14  C   UNL     1       4.316   2.694  19.950  0.00  0.00    +0.000 C 
BRANCH  14  15
ATOM     15  N   UNL     1       3.634   2.590  21.275  0.00  0.00    +0.000 NA
ATOM     16  H   UNL     1       3.812   1.669  21.676  0.00  0.00    +0.000 HD
BRANCH  15  17
ATOM     17  S   UNL     1       1.974   2.909  21.233  0.00  0.00    +0.000 S 
ATOM     18  O   UNL     1       1.853   4.339  21.062  0.00  0.00    +0.000 OA
ATOM     19  O   UNL     1       1.323   2.216  22.319  0.00  0.00    +0.000 OA
BRANCH  17  21
ATOM     20  C   UNL     1       0.755   3.107  18.821  0.00  0.00    +0.000 C 
ATOM     21  C   UNL     1       1.496   2.116  19.700  0.00  0.00    +0.000 C 
ENDBRANCH  17  21
ENDBRANCH  15  17
ENDBRANCH  14  15
ENDBRANCH  13  14
ENDBRANCH   1  13
TORSDOF 5
ENDMDL
