MODEL 1
REMARK VINA RESULT:      -7.5      0.000      0.000
REMARK  Name = 
REMARK  5 active torsions:
REMARK  status: ('A' for Active; 'I' for Inactive)
REMARK    1  A    between atoms: N_3  and  C_4
REMARK    2  A    between atoms: C_4  and  C_5
REMARK    3  A    between atoms: C_5  and  O_6
REMARK    4  A    between atoms: N_13  and  C_14
REMARK    5  A    between atoms: C_14  and  C_15
REMARK                            x       y       z     vdW  Elec       q    Type
REMARK                         _______ _______ _______ _____ _____    ______ ____
ROOT
ATOM      1  N   UNL     1       5.233   2.789  19.571  0.00  0.00    +0.000 NA
ATOM      2  C   UNL     1       4.682   3.920  19.294  0.00  0.00    +0.000 A 
ATOM      3  N   UNL     1       3.505   4.452  19.826  0.00  0.00    +0.000 N 
ATOM      4  C   UNL     1       3.254   5.685  19.218  0.00  0.00    +0.000 A 
ATOM      5  C   UNL     1       2.219   6.586  19.384  0.00  0.00    +0.000 A 
ATOM      6  C   UNL     1       2.232   7.747  18.608  0.00  0.00    +0.000 A 
ATOM      7  C   UNL     1       3.264   7.984  17.684  0.00  0.00    +0.000 A 
ATOM      8  C   UNL     1       4.315   7.070  17.524  0.00  0.00    +0.000 A 
ATOM      9  C   UNL     1       4.303   5.927  18.299  0.00  0.00    +0.000 A 
ATOM     10  N   UNL     1       5.170   4.837  18.362  0.00  0.00    +0.000 N 
ATOM     11  H   UNL     1       4.674   2.302  20.274  0.00  0.00    +0.000 HD
ENDROOT
BRANCH   3  12
ATOM     12  C   UNL     1       2.603   3.848  20.783  0.00  0.00    +0.000 C 
BRANCH  12  13
ATOM     13  C   UNL     1       1.692   2.816  20.114  0.00  0.00    +0.000 C 
BRANCH  13  14
ATOM     14  O   UNL     1       0.335   2.974  20.516  0.00  0.00    +0.000 OA
ATOM     15  H   UNL     1       0.347   3.152  21.477  0.00  0.00    +0.000 HD
ENDBRANCH  13  14
ENDBRANCH  12  13
ENDBRANCH   3  12
BRANCH  10  16
ATOM     16  C   UNL     1       6.480   4.773  17.748  0.00  0.00    +0.000 C 
BRANCH  16  17
ATOM     17  C   UNL     1       6.377   4.549  16.251  0.00  0.00    +0.000 A 
ATOM     18  C   UNL     1       5.436   3.647  15.731  0.00  0.00    +0.000 A 
ATOM     19  C   UNL     1       5.410   3.350  14.365  0.00  0.00    +0.000 A 
ATOM     20  C   UNL     1       6.323   3.953  13.499  0.00  0.00    +0.000 A 
ATOM     21 CL   UNL     1       6.284   3.490  11.835  0.00  0.00    +0.000 Cl
ATOM     22  C   UNL     1       7.241   4.884  13.998  0.00  0.00    +0.000 A 
ATOM     23 CL   UNL     1       8.388   5.688  12.986  0.00  0.00    +0.000 Cl
ATOM     24  C   UNL     1       7.264   5.181  15.366  0.00  0.00    +0.000 A 
ENDBRANCH  16  17
ENDBRANCH  10  16
TORSDOF 5
ENDMDL
MODEL 2
REMARK VINA RESULT:      -6.8      4.386      6.539
REMARK  Name = 
REMARK  5 active torsions:
REMARK  status: ('A' for Active; 'I' for Inactive)
REMARK    1  A    between atoms: N_3  and  C_4
REMARK    2  A    between atoms: C_4  and  C_5
REMARK    3  A    between atoms: C_5  and  O_6
REMARK    4  A    between atoms: N_13  and  C_14
REMARK    5  A    between atoms: C_14  and  C_15
REMARK                            x       y       z     vdW  Elec       q    Type
REMARK                         _______ _______ _______ _____ _____    ______ ____
ROOT
ATOM      1  N   UNL     1       1.699   4.744  17.927  0.00  0.00    +0.000 NA
ATOM      2  C   UNL     1       2.957   5.008  17.857  0.00  0.00    +0.000 A 
ATOM      3  N   UNL     1       4.027   4.116  17.959  0.00  0.00    +0.000 N 
ATOM      4  C   UNL     1       5.222   4.833  17.867  0.00  0.00    +0.000 A 
ATOM      5  C   UNL     1       6.539   4.417  17.925  0.00  0.00    +0.000 A 
ATOM      6  C   UNL     1       7.537   5.388  17.816  0.00  0.00    +0.000 A 
ATOM      7  C   UNL     1       7.208   6.746  17.658  0.00  0.00    +0.000 A 
ATOM      8  C   UNL     1       5.871   7.161  17.592  0.00  0.00    +0.000 A 
ATOM      9  C   UNL     1       4.887   6.197  17.692  0.00  0.00    +0.000 A 
ATOM     10  N   UNL     1       3.495   6.285  17.686  0.00  0.00    +0.000 N 
ATOM     11  H   UNL     1       1.570   3.740  18.067  0.00  0.00    +0.000 HD
ENDROOT
BRANCH   3  12
ATOM     12  C   UNL     1       3.981   2.690  18.204  0.00  0.00    +0.000 C 
BRANCH  12  13
ATOM     13  C   UNL     1       3.981   2.384  19.704  0.00  0.00    +0.000 C 
BRANCH  13  14
ATOM     14  O   UNL     1       5.161   1.691  20.099  0.00  0.00    +0.000 OA
ATOM     15  H   UNL     1       5.219   1.767  21.071  0.00  0.00    +0.000 HD
ENDBRANCH  13  14
ENDBRANCH  12  13
ENDBRANCH   3  12
BRANCH  10  16
ATOM     16  C   UNL     1       2.731   7.460  17.320  0.00  0.00    +0.000 C 
BRANCH  16  17
ATOM     17  C   UNL     1       2.130   8.128  18.542  0.00  0.00    +0.000 A 
ATOM     18  C   UNL     1       2.186   7.500  19.795  0.00  0.00    +0.000 A 
ATOM     19  C   UNL     1       1.536   8.054  20.902  0.00  0.00    +0.000 A 
ATOM     20  C   UNL     1       0.824   9.247  20.773  0.00  0.00    +0.000 A 
ATOM     21 CL   UNL     1      -0.014   9.841  22.161  0.00  0.00    +0.000 Cl
ATOM     22  C   UNL     1       0.792   9.904  19.538  0.00  0.00    +0.000 A 
ATOM     23 CL   UNL     1      -0.050  11.394  19.303  0.00  0.00    +0.000 Cl
ATOM     24  C   UNL     1       1.445   9.348  18.431  0.00  0.00    +0.000 A 
ENDBRANCH  16  17
ENDBRANCH  10  16
TORSDOF 5
ENDMDL
MODEL 3
REMARK VINA RESULT:      -6.6      4.598      7.014
REMARK  Name = 
REMARK  5 active torsions:
REMARK  status: ('A' for Active; 'I' for Inactive)
REMARK    1  A    between atoms: N_3  and  C_4
REMARK    2  A    between atoms: C_4  and  C_5
REMARK    3  A    between atoms: C_5  and  O_6
REMARK    4  A    between atoms: N_13  and  C_14
REMARK    5  A    between atoms: C_14  and  C_15
REMARK                            x       y       z     vdW  Elec       q    Type
REMARK                         _______ _______ _______ _____ _____    ______ ____
ROOT
ATOM      1  N   UNL     1       4.966   7.062  17.371  0.00  0.00    +0.000 NA
ATOM      2  C   UNL     1       4.216   6.057  17.665  0.00  0.00    +0.000 A 
ATOM      3  N   UNL     1       4.181   4.805  17.046  0.00  0.00    +0.000 N 
ATOM      4  C   UNL     1       3.193   4.029  17.658  0.00  0.00    +0.000 A 
ATOM      5  C   UNL     1       2.763   2.740  17.403  0.00  0.00    +0.000 A 
ATOM      6  C   UNL     1       1.725   2.230  18.187  0.00  0.00    +0.000 A 
ATOM      7  C   UNL     1       1.136   3.009  19.198  0.00  0.00    +0.000 A 
ATOM      8  C   UNL     1       1.582   4.313  19.456  0.00  0.00    +0.000 A 
ATOM      9  C   UNL     1       2.613   4.811  18.685  0.00  0.00    +0.000 A 
ATOM     10  N   UNL     1       3.254   6.049  18.676  0.00  0.00    +0.000 N 
ATOM     11  H   UNL     1       5.573   6.815  16.587  0.00  0.00    +0.000 HD
ENDROOT
BRANCH   3  12
ATOM     12  C   UNL     1       4.947   4.349  15.905  0.00  0.00    +0.000 C 
BRANCH  12  13
ATOM     13  C   UNL     1       6.449   4.376  16.199  0.00  0.00    +0.000 C 
BRANCH  13  14
ATOM     14  O   UNL     1       7.109   5.406  15.470  0.00  0.00    +0.000 OA
ATOM     15  H   UNL     1       7.002   5.192  14.523  0.00  0.00    +0.000 HD
ENDBRANCH  13  14
ENDBRANCH  12  13
ENDBRANCH   3  12
BRANCH  10  16
ATOM     16  C   UNL     1       3.121   7.069  19.696  0.00  0.00    +0.000 C 
BRANCH  16  17
ATOM     17  C   UNL     1       2.014   8.048  19.353  0.00  0.00    +0.000 A 
ATOM     18  C   UNL     1       1.776   8.414  18.019  0.00  0.00    +0.000 A 
ATOM     19  C   UNL     1       0.836   9.400  17.704  0.00  0.00    +0.000 A 
ATOM     20  C   UNL     1       0.117  10.032  18.720  0.00  0.00    +0.000 A 
ATOM     21 CL   UNL     1      -0.978  11.290  18.269  0.00  0.00    +0.000 Cl
ATOM     22  C   UNL     1       0.316   9.649  20.051  0.00  0.00    +0.000 A 
ATOM     23 CL   UNL     1      -0.551  10.370  21.360  0.00  0.00    +0.000 Cl
ATOM     24  C   UNL     1       1.257   8.661  20.363  0.00  0.00    +0.000 A 
ENDBRANCH  16  17
ENDBRANCH  10  16
TORSDOF 5
ENDMDL
MODEL 4
REMARK VINA RESULT:      -6.5      1.166      1.832
REMARK  Name = 
REMARK  5 active torsions:
REMARK  status: ('A' for Active; 'I' for Inactive)
REMARK    1  A    between atoms: N_3  and  C_4
REMARK    2  A    between atoms: C_4  and  C_5
REMARK    3  A    between atoms: C_5  and  O_6
REMARK    4  A    between atoms: N_13  and  C_14
REMARK    5  A    between atoms: C_14  and  C_15
REMARK                            x       y       z     vdW  Elec       q    Type
REMARK                         _______ _______ _______ _____ _____    ______ ____
ROOT
ATOM      1  N   UNL     1       3.999   1.983  18.010  0.00  0.00    +0.000 NA
ATOM      2  C   UNL     1       3.742   3.244  18.003  0.00  0.00    +0.000 A 
ATOM      3  N   UNL     1       2.536   3.874  18.319  0.00  0.00    +0.000 N 
ATOM      4  C   UNL     1       2.688   5.252  18.141  0.00  0.00    +0.000 A 
ATOM      5  C   UNL     1       1.794   6.293  18.305  0.00  0.00    +0.000 A 
ATOM      6  C   UNL     1       2.241   7.588  18.030  0.00  0.00    +0.000 A 
ATOM      7  C   UNL     1       3.557   7.819  17.596  0.00  0.00    +0.000 A 
ATOM      8  C   UNL     1       4.462   6.759  17.439  0.00  0.00    +0.000 A 
ATOM      9  C   UNL     1       4.019   5.482  17.718  0.00  0.00    +0.000 A 
ATOM     10  N   UNL     1       4.650   4.241  17.642  0.00  0.00    +0.000 N 
ATOM     11  H   UNL     1       3.165   1.468  18.298  0.00  0.00    +0.000 HD
ENDROOT
BRANCH   3  12
ATOM     12  C   UNL     1       1.278   3.262  18.691  0.00  0.00    +0.000 C 
BRANCH  12  13
ATOM     13  C   UNL     1       1.282   2.836  20.162  0.00  0.00    +0.000 C 
BRANCH  13  14
ATOM     14  O   UNL     1       1.352   3.961  21.033  0.00  0.00    +0.000 OA
ATOM     15  H   UNL     1       2.300   4.113  21.217  0.00  0.00    +0.000 HD
ENDBRANCH  13  14
ENDBRANCH  12  13
ENDBRANCH   3  12
BRANCH  10  16
ATOM     16  C   UNL     1       6.072   4.034  17.459  0.00  0.00    +0.000 C 
BRANCH  16  17
ATOM     17  C   UNL     1       6.473   4.224  16.008  0.00  0.00    +0.000 A 
ATOM     18  C   UNL     1       7.520   5.094  15.668  0.00  0.00    +0.000 A 
ATOM     19  C   UNL     1       7.821   5.362  14.328  0.00  0.00    +0.000 A 
ATOM     20  C   UNL     1       7.081   4.760  13.310  0.00  0.00    +0.000 A 
ATOM     21 CL   UNL     1       7.457   5.187  11.679  0.00  0.00    +0.000 Cl
ATOM     22  C   UNL     1       6.059   3.861  13.635  0.00  0.00    +0.000 A 
ATOM     23 CL   UNL     1       5.113   3.061  12.430  0.00  0.00    +0.000 Cl
ATOM     24  C   UNL     1       5.761   3.594  14.976  0.00  0.00    +0.000 A 
ENDBRANCH  16  17
ENDBRANCH  10  16
TORSDOF 5
ENDMDL
MODEL 5
REMARK VINA RESULT:      -6.5      4.635      7.028
REMARK  Name = 
REMARK  5 active torsions:
REMARK  status: ('A' for Active; 'I' for Inactive)
REMARK    1  A    between atoms: N_3  and  C_4
REMARK    2  A    between atoms: C_4  and  C_5
REMARK    3  A    between atoms: C_5  and  O_6
REMARK    4  A    between atoms: N_13  and  C_14
REMARK    5  A    between atoms: C_14  and  C_15
REMARK                            x       y       z     vdW  Elec       q    Type
REMARK                         _______ _______ _______ _____ _____    ______ ____
ROOT
ATOM      1  N   UNL     1       5.510   7.518  17.330  0.00  0.00    +0.000 NA
ATOM      2  C   UNL     1       4.776   6.488  17.573  0.00  0.00    +0.000 A 
ATOM      3  N   UNL     1       5.193   5.205  17.933  0.00  0.00    +0.000 N 
ATOM      4  C   UNL     1       4.068   4.386  18.061  0.00  0.00    +0.000 A 
ATOM      5  C   UNL     1       3.951   3.046  18.381  0.00  0.00    +0.000 A 
ATOM      6  C   UNL     1       2.669   2.492  18.416  0.00  0.00    +0.000 A 
ATOM      7  C   UNL     1       1.537   3.275  18.129  0.00  0.00    +0.000 A 
ATOM      8  C   UNL     1       1.662   4.635  17.813  0.00  0.00    +0.000 A 
ATOM      9  C   UNL     1       2.929   5.181  17.786  0.00  0.00    +0.000 A 
ATOM     10  N   UNL     1       3.382   6.466  17.492  0.00  0.00    +0.000 N 
ATOM     11  H   UNL     1       6.494   7.268  17.447  0.00  0.00    +0.000 HD
ENDROOT
BRANCH   3  12
ATOM     12  C   UNL     1       6.546   4.713  18.083  0.00  0.00    +0.000 C 
BRANCH  12  13
ATOM     13  C   UNL     1       7.197   4.456  16.721  0.00  0.00    +0.000 C 
BRANCH  13  14
ATOM     14  O   UNL     1       7.561   5.673  16.076  0.00  0.00    +0.000 OA
ATOM     15  H   UNL     1       7.143   5.657  15.193  0.00  0.00    +0.000 HD
ENDBRANCH  13  14
ENDBRANCH  12  13
ENDBRANCH   3  12
BRANCH  10  16
ATOM     16  C   UNL     1       2.545   7.641  17.365  0.00  0.00    +0.000 C 
BRANCH  16  17
ATOM     17  C   UNL     1       2.051   8.114  18.719  0.00  0.00    +0.000 A 
ATOM     18  C   UNL     1       2.200   7.302  19.854  0.00  0.00    +0.000 A 
ATOM     19  C   UNL     1       1.647   7.679  21.081  0.00  0.00    +0.000 A 
ATOM     20  C   UNL     1       0.940   8.877  21.193  0.00  0.00    +0.000 A 
ATOM     21 CL   UNL     1       0.223   9.251  22.719  0.00  0.00    +0.000 Cl
ATOM     22  C   UNL     1       0.817   9.716  20.079  0.00  0.00    +0.000 A 
ATOM     23 CL   UNL     1      -0.025  11.223  20.144  0.00  0.00    +0.000 Cl
ATOM     24  C   UNL     1       1.372   9.336  18.852  0.00  0.00    +0.000 A 
ENDBRANCH  16  17
ENDBRANCH  10  16
TORSDOF 5
ENDMDL
MODEL 6
REMARK VINA RESULT:      -6.5      4.698      6.865
REMARK  Name = 
REMARK  5 active torsions:
REMARK  status: ('A' for Active; 'I' for Inactive)
REMARK    1  A    between atoms: N_3  and  C_4
REMARK    2  A    between atoms: C_4  and  C_5
REMARK    3  A    between atoms: C_5  and  O_6
REMARK    4  A    between atoms: N_13  and  C_14
REMARK    5  A    between atoms: C_14  and  C_15
REMARK                            x       y       z     vdW  Elec       q    Type
REMARK                         _______ _______ _______ _____ _____    ______ ____
ROOT
ATOM      1  N   UNL     1       5.785   7.483  17.351  0.00  0.00    +0.000 NA
ATOM      2  C   UNL     1       5.042   6.468  17.629  0.00  0.00    +0.000 A 
ATOM      3  N   UNL     1       5.443   5.215  18.096  0.00  0.00    +0.000 N 
ATOM      4  C   UNL     1       4.315   4.401  18.226  0.00  0.00    +0.000 A 
ATOM      5  C   UNL     1       4.185   3.086  18.631  0.00  0.00    +0.000 A 
ATOM      6  C   UNL     1       2.904   2.529  18.643  0.00  0.00    +0.000 A 
ATOM      7  C   UNL     1       1.786   3.284  18.249  0.00  0.00    +0.000 A 
ATOM      8  C   UNL     1       1.923   4.620  17.846  0.00  0.00    +0.000 A 
ATOM      9  C   UNL     1       3.190   5.169  17.843  0.00  0.00    +0.000 A 
ATOM     10  N   UNL     1       3.654   6.434  17.483  0.00  0.00    +0.000 N 
ATOM     11  H   UNL     1       6.763   7.247  17.532  0.00  0.00    +0.000 HD
ENDROOT
BRANCH   3  12
ATOM     12  C   UNL     1       6.789   4.742  18.344  0.00  0.00    +0.000 C 
BRANCH  12  13
ATOM     13  C   UNL     1       7.608   5.778  19.117  0.00  0.00    +0.000 C 
BRANCH  13  14
ATOM     14  O   UNL     1       7.860   5.356  20.454  0.00  0.00    +0.000 OA
ATOM     15  H   UNL     1       8.766   5.649  20.674  0.00  0.00    +0.000 HD
ENDBRANCH  13  14
ENDBRANCH  12  13
ENDBRANCH   3  12
BRANCH  10  16
ATOM     16  C   UNL     1       2.821   7.593  17.235  0.00  0.00    +0.000 C 
BRANCH  16  17
ATOM     17  C   UNL     1       2.191   8.102  18.517  0.00  0.00    +0.000 A 
ATOM     18  C   UNL     1       2.284   7.354  19.701  0.00  0.00    +0.000 A 
ATOM     19  C   UNL     1       1.611   7.759  20.858  0.00  0.00    +0.000 A 
ATOM     20  C   UNL     1       0.837   8.920  20.848  0.00  0.00    +0.000 A 
ATOM     21 CL   UNL     1      -0.026   9.326  22.289  0.00  0.00    +0.000 Cl
ATOM     22  C   UNL     1       0.766   9.696  19.686  0.00  0.00    +0.000 A 
ATOM     23 CL   UNL     1      -0.154  11.156  19.602  0.00  0.00    +0.000 Cl
ATOM     24  C   UNL     1       1.442   9.289  18.530  0.00  0.00    +0.000 A 
ENDBRANCH  16  17
ENDBRANCH  10  16
TORSDOF 5
ENDMDL
MODEL 7
REMARK VINA RESULT:      -6.4      6.032      8.257
REMARK  Name = 
REMARK  5 active torsions:
REMARK  status: ('A' for Active; 'I' for Inactive)
REMARK    1  A    between atoms: N_3  and  C_4
REMARK    2  A    between atoms: C_4  and  C_5
REMARK    3  A    between atoms: C_5  and  O_6
REMARK    4  A    between atoms: N_13  and  C_14
REMARK    5  A    between atoms: C_14  and  C_15
REMARK                            x       y       z     vdW  Elec       q    Type
REMARK                         _______ _______ _______ _____ _____    ______ ____
ROOT
ATOM      1  N   UNL     1       0.932  12.100  20.992  0.00  0.00    +0.000 NA
ATOM      2  C   UNL     1      -0.006  11.779  20.171  0.00  0.00    +0.000 A 
ATOM      3  N   UNL     1      -1.333  12.216  20.174  0.00  0.00    +0.000 N 
ATOM      4  C   UNL     1      -2.016  11.587  19.130  0.00  0.00    +0.000 A 
ATOM      5  C   UNL     1      -3.336  11.670  18.727  0.00  0.00    +0.000 A 
ATOM      6  C   UNL     1      -3.737  10.893  17.637  0.00  0.00    +0.000 A 
ATOM      7  C   UNL     1      -2.824  10.052  16.977  0.00  0.00    +0.000 A 
ATOM      8  C   UNL     1      -1.485   9.977  17.386  0.00  0.00    +0.000 A 
ATOM      9  C   UNL     1      -1.091  10.752  18.459  0.00  0.00    +0.000 A 
ATOM     10  N   UNL     1       0.135  10.885  19.109  0.00  0.00    +0.000 N 
ATOM     11  H   UNL     1       0.568  12.759  21.683  0.00  0.00    +0.000 HD
ENDROOT
BRANCH   3  12
ATOM     12  C   UNL     1      -1.981  13.102  21.118  0.00  0.00    +0.000 C 
BRANCH  12  13
ATOM     13  C   UNL     1      -2.417  12.349  22.378  0.00  0.00    +0.000 C 
BRANCH  13  14
ATOM     14  O   UNL     1      -3.835  12.262  22.473  0.00  0.00    +0.000 OA
ATOM     15  H   UNL     1      -4.199  12.909  21.837  0.00  0.00    +0.000 HD
ENDBRANCH  13  14
ENDBRANCH  12  13
ENDBRANCH   3  12
BRANCH  10  16
ATOM     16  C   UNL     1       1.401  10.375  18.622  0.00  0.00    +0.000 C 
BRANCH  16  17
ATOM     17  C   UNL     1       1.621   8.939  19.059  0.00  0.00    +0.000 A 
ATOM     18  C   UNL     1       1.259   8.526  20.350  0.00  0.00    +0.000 A 
ATOM     19  C   UNL     1       1.562   7.236  20.799  0.00  0.00    +0.000 A 
ATOM     20  C   UNL     1       2.227   6.341  19.961  0.00  0.00    +0.000 A 
ATOM     21 CL   UNL     1       2.633   4.788  20.601  0.00  0.00    +0.000 Cl
ATOM     22  C   UNL     1       2.559   6.727  18.658  0.00  0.00    +0.000 A 
ATOM     23 CL   UNL     1       3.365   5.668  17.555  0.00  0.00    +0.000 Cl
ATOM     24  C   UNL     1       2.254   8.018  18.211  0.00  0.00    +0.000 A 
ENDBRANCH  16  17
ENDBRANCH  10  16
TORSDOF 5
ENDMDL
MODEL 8
REMARK VINA RESULT:      -6.3      1.640      3.042
REMARK  Name = 
REMARK  5 active torsions:
REMARK  status: ('A' for Active; 'I' for Inactive)
REMARK    1  A    between atoms: N_3  and  C_4
REMARK    2  A    between atoms: C_4  and  C_5
REMARK    3  A    between atoms: C_5  and  O_6
REMARK    4  A    between atoms: N_13  and  C_14
REMARK    5  A    between atoms: C_14  and  C_15
REMARK                            x       y       z     vdW  Elec       q    Type
REMARK                         _______ _______ _______ _____ _____    ______ ____
ROOT
ATOM      1  N   UNL     1       5.123   7.231  17.490  0.00  0.00    +0.000 NA
ATOM      2  C   UNL     1       4.413   6.172  17.667  0.00  0.00    +0.000 A 
ATOM      3  N   UNL     1       3.038   6.091  17.895  0.00  0.00    +0.000 N 
ATOM      4  C   UNL     1       2.689   4.749  18.071  0.00  0.00    +0.000 A 
ATOM      5  C   UNL     1       1.470   4.154  18.336  0.00  0.00    +0.000 A 
ATOM      6  C   UNL     1       1.438   2.765  18.480  0.00  0.00    +0.000 A 
ATOM      7  C   UNL     1       2.612   2.001  18.364  0.00  0.00    +0.000 A 
ATOM      8  C   UNL     1       3.844   2.609  18.088  0.00  0.00    +0.000 A 
ATOM      9  C   UNL     1       3.871   3.982  17.939  0.00  0.00    +0.000 A 
ATOM     10  N   UNL     1       4.917   4.870  17.689  0.00  0.00    +0.000 N 
ATOM     11  H   UNL     1       4.520   8.055  17.531  0.00  0.00    +0.000 HD
ENDROOT
BRANCH   3  12
ATOM     12  C   UNL     1       2.087   7.175  18.023  0.00  0.00    +0.000 C 
BRANCH  12  13
ATOM     13  C   UNL     1       2.180   7.835  19.401  0.00  0.00    +0.000 C 
BRANCH  13  14
ATOM     14  O   UNL     1       2.339   6.870  20.436  0.00  0.00    +0.000 OA
ATOM     15  H   UNL     1       3.272   6.582  20.410  0.00  0.00    +0.000 HD
ENDBRANCH  13  14
ENDBRANCH  12  13
ENDBRANCH   3  12
BRANCH  10  16
ATOM     16  C   UNL     1       6.254   4.495  17.277  0.00  0.00    +0.000 C 
BRANCH  16  17
ATOM     17  C   UNL     1       6.372   4.451  15.766  0.00  0.00    +0.000 A 
ATOM     18  C   UNL     1       5.517   3.635  15.009  0.00  0.00    +0.000 A 
ATOM     19  C   UNL     1       5.692   3.500  13.629  0.00  0.00    +0.000 A 
ATOM     20  C   UNL     1       6.724   4.182  12.984  0.00  0.00    +0.000 A 
ATOM     21 CL   UNL     1       6.930   3.918  11.289  0.00  0.00    +0.000 Cl
ATOM     22  C   UNL     1       7.561   5.030  13.719  0.00  0.00    +0.000 A 
ATOM     23 CL   UNL     1       8.846   5.924  12.989  0.00  0.00    +0.000 Cl
ATOM     24  C   UNL     1       7.382   5.164  15.101  0.00  0.00    +0.000 A 
ENDBRANCH  16  17
ENDBRANCH  10  16
TORSDOF 5
ENDMDL
MODEL 9
REMARK VINA RESULT:      -6.2      4.160      6.449
REMARK  Name = 
REMARK  5 active torsions:
REMARK  status: ('A' for Active; 'I' for Inactive)
REMARK    1  A    between atoms: N_3  and  C_4
REMARK    2  A    between atoms: C_4  and  C_5
REMARK    3  A    between atoms: C_5  and  O_6
REMARK    4  A    between atoms: N_13  and  C_14
REMARK    5  A    between atoms: C_14  and  C_15
REMARK                            x       y       z     vdW  Elec       q    Type
REMARK                         _______ _______ _______ _____ _____    ______ ____
ROOT
ATOM      1  N   UNL     1       2.741   3.125  16.816  0.00  0.00    +0.000 NA
ATOM      2  C   UNL     1       3.826   3.669  17.245  0.00  0.00    +0.000 A 
ATOM      3  N   UNL     1       5.053   3.767  16.585  0.00  0.00    +0.000 N 
ATOM      4  C   UNL     1       5.970   4.398  17.430  0.00  0.00    +0.000 A 
ATOM      5  C   UNL     1       7.304   4.712  17.252  0.00  0.00    +0.000 A 
ATOM      6  C   UNL     1       7.975   5.340  18.304  0.00  0.00    +0.000 A 
ATOM      7  C   UNL     1       7.310   5.636  19.507  0.00  0.00    +0.000 A 
ATOM      8  C   UNL     1       5.955   5.322  19.679  0.00  0.00    +0.000 A 
ATOM      9  C   UNL     1       5.294   4.708  18.635  0.00  0.00    +0.000 A 
ATOM     10  N   UNL     1       3.981   4.257  18.501  0.00  0.00    +0.000 N 
ATOM     11  H   UNL     1       2.893   2.758  15.875  0.00  0.00    +0.000 HD
ENDROOT
BRANCH   3  12
ATOM     12  C   UNL     1       5.411   3.250  15.281  0.00  0.00    +0.000 C 
BRANCH  12  13
ATOM     13  C   UNL     1       5.557   4.379  14.257  0.00  0.00    +0.000 C 
BRANCH  13  14
ATOM     14  O   UNL     1       6.292   3.957  13.112  0.00  0.00    +0.000 OA
ATOM     15  H   UNL     1       6.299   4.711  12.491  0.00  0.00    +0.000 HD
ENDBRANCH  13  14
ENDBRANCH  12  13
ENDBRANCH   3  12
BRANCH  10  16
ATOM     16  C   UNL     1       2.895   4.561  19.410  0.00  0.00    +0.000 C 
BRANCH  16  17
ATOM     17  C   UNL     1       2.428   5.995  19.248  0.00  0.00    +0.000 A 
ATOM     18  C   UNL     1       2.537   6.643  18.008  0.00  0.00    +0.000 A 
ATOM     19  C   UNL     1       2.216   7.998  17.877  0.00  0.00    +0.000 A 
ATOM     20  C   UNL     1       1.777   8.723  18.985  0.00  0.00    +0.000 A 
ATOM     21 CL   UNL     1       1.464  10.409  18.773  0.00  0.00    +0.000 Cl
ATOM     22  C   UNL     1       1.626   8.081  20.219  0.00  0.00    +0.000 A 
ATOM     23 CL   UNL     1       1.068   8.907  21.631  0.00  0.00    +0.000 Cl
ATOM     24  C   UNL     1       1.947   6.724  20.347  0.00  0.00    +0.000 A 
ENDBRANCH  16  17
ENDBRANCH  10  16
TORSDOF 5
ENDMDL
