MODEL 1
REMARK VINA RESULT:      -9.2      0.000      0.000
REMARK  Name = 
REMARK  4 active torsions:
REMARK  status: ('A' for Active; 'I' for Inactive)
REMARK    1  A    between atoms: C_2  and  C_13
REMARK    2  A    between atoms: N_3  and  N_4
REMARK    3  A    between atoms: C_5  and  C_6
REMARK    4  A    between atoms: C_23  and  O_24
REMARK                            x       y       z     vdW  Elec       q    Type
REMARK                         _______ _______ _______ _____ _____    ______ ____
ROOT
ATOM      1  O   UNL     1       7.618   5.589  20.034  0.00  0.00    +0.000 OA
ATOM      2  C   UNL     1       7.119   5.908  18.943  0.00  0.00    +0.000 C 
ATOM      3  N   UNL     1       7.498   7.101  18.234  0.00  0.00    +0.000 N 
ATOM      4  H   UNL     1       7.045   7.355  17.356  0.00  0.00    +0.000 HD
ENDROOT
BRANCH   2   5
ATOM      5  C   UNL     1       6.067   5.037  18.229  0.00  0.00    +0.000 A 
ATOM      6  C   UNL     1       4.917   5.352  18.786  0.00  0.00    +0.000 A 
ATOM      7  N   UNL     1       3.859   5.411  18.019  0.00  0.00    +0.000 NA
ATOM      8  C   UNL     1       3.297   4.293  18.066  0.00  0.00    +0.000 A 
ATOM      9  C   UNL     1       2.134   4.506  18.931  0.00  0.00    +0.000 A 
ATOM     10  F   UNL     1       2.160   5.678  19.584  0.00  0.00    +0.000 F 
ATOM     11  C   UNL     1       1.128   3.679  19.322  0.00  0.00    +0.000 A 
ATOM     12  C   UNL     1       1.248   2.557  18.592  0.00  0.00    +0.000 A 
ATOM     13  C   UNL     1       2.508   2.434  17.602  0.00  0.00    +0.000 A 
ATOM     14  C   UNL     1       3.989   3.334  17.400  0.00  0.00    +0.000 A 
ATOM     15  C   UNL     1       5.562   4.271  17.144  0.00  0.00    +0.000 A 
BRANCH  15  16
ATOM     16  O   UNL     1       6.075   4.856  15.859  0.00  0.00    +0.000 OA
ATOM     17  H   UNL     1       5.415   5.421  15.335  0.00  0.00    +0.000 HD
ENDBRANCH  15  16
ENDBRANCH   2   5
BRANCH   3  18
ATOM     18  N   UNL     1       8.456   8.044  18.674  0.00  0.00    +0.000 NA
ATOM     19  C   UNL     1       8.373   9.261  18.213  0.00  0.00    +0.000 C 
BRANCH  19  20
ATOM     20  C   UNL     1       9.310  10.333  18.682  0.00  0.00    +0.000 A 
ATOM     21  C   UNL     1      10.034  11.077  17.741  0.00  0.00    +0.000 A 
ATOM     22  C   UNL     1      10.945  12.057  18.157  0.00  0.00    +0.000 A 
ATOM     23  C   UNL     1      11.123  12.307  19.511  0.00  0.00    +0.000 A 
ATOM     24  F   UNL     1      12.009  13.232  19.905  0.00  0.00    +0.000 F 
ATOM     25  C   UNL     1      10.389  11.605  20.461  0.00  0.00    +0.000 A 
ATOM     26  C   UNL     1       9.471  10.621  20.047  0.00  0.00    +0.000 A 
ENDBRANCH  19  20
ENDBRANCH   3  18
TORSDOF 4
ENDMDL
MODEL 2
REMARK VINA RESULT:      -9.1      0.356      1.043
REMARK  Name = 
REMARK  4 active torsions:
REMARK  status: ('A' for Active; 'I' for Inactive)
REMARK    1  A    between atoms: C_2  and  C_13
REMARK    2  A    between atoms: N_3  and  N_4
REMARK    3  A    between atoms: C_5  and  C_6
REMARK    4  A    between atoms: C_23  and  O_24
REMARK                            x       y       z     vdW  Elec       q    Type
REMARK                         _______ _______ _______ _____ _____    ______ ____
ROOT
ATOM      1  O   UNL     1       7.590   5.652  19.739  0.00  0.00    +0.000 OA
ATOM      2  C   UNL     1       7.042   6.027  18.691  0.00  0.00    +0.000 C 
ATOM      3  N   UNL     1       7.449   7.210  17.981  0.00  0.00    +0.000 N 
ATOM      4  H   UNL     1       6.956   7.512  17.140  0.00  0.00    +0.000 HD
ENDROOT
BRANCH   2   5
ATOM      5  C   UNL     1       5.891   5.240  18.033  0.00  0.00    +0.000 A 
ATOM      6  C   UNL     1       4.859   5.397  18.834  0.00  0.00    +0.000 A 
ATOM      7  N   UNL     1       3.676   5.534  18.293  0.00  0.00    +0.000 NA
ATOM      8  C   UNL     1       3.152   4.398  18.239  0.00  0.00    +0.000 A 
ATOM      9  C   UNL     1       2.166   4.399  19.323  0.00  0.00    +0.000 A 
ATOM     10  F   UNL     1       2.293   5.441  20.159  0.00  0.00    +0.000 F 
ATOM     11  C   UNL     1       1.266   3.467  19.734  0.00  0.00    +0.000 A 
ATOM     12  C   UNL     1       1.267   2.495  18.805  0.00  0.00    +0.000 A 
ATOM     13  C   UNL     1       2.324   2.610  17.599  0.00  0.00    +0.000 A 
ATOM     14  C   UNL     1       3.726   3.604  17.299  0.00  0.00    +0.000 A 
ATOM     15  C   UNL     1       5.207   4.650  16.937  0.00  0.00    +0.000 A 
BRANCH  15  16
ATOM     16  O   UNL     1       5.461   5.473  15.706  0.00  0.00    +0.000 OA
ATOM     17  H   UNL     1       6.413   5.461  15.355  0.00  0.00    +0.000 HD
ENDBRANCH  15  16
ENDBRANCH   2   5
BRANCH   3  18
ATOM     18  N   UNL     1       8.493   8.080  18.372  0.00  0.00    +0.000 NA
ATOM     19  C   UNL     1       8.297   9.364  18.252  0.00  0.00    +0.000 C 
BRANCH  19  20
ATOM     20  C   UNL     1       9.328  10.352  18.707  0.00  0.00    +0.000 A 
ATOM     21  C   UNL     1       9.402  10.698  20.063  0.00  0.00    +0.000 A 
ATOM     22  C   UNL     1      10.332  11.648  20.505  0.00  0.00    +0.000 A 
ATOM     23  C   UNL     1      11.200  12.242  19.598  0.00  0.00    +0.000 A 
ATOM     24  F   UNL     1      12.075  13.163  20.023  0.00  0.00    +0.000 F 
ATOM     25  C   UNL     1      11.168  11.887  18.255  0.00  0.00    +0.000 A 
ATOM     26  C   UNL     1      10.237  10.931  17.806  0.00  0.00    +0.000 A 
ENDBRANCH  19  20
ENDBRANCH   3  18
TORSDOF 4
ENDMDL
MODEL 3
REMARK VINA RESULT:      -8.7      1.136      1.178
REMARK  Name = 
REMARK  4 active torsions:
REMARK  status: ('A' for Active; 'I' for Inactive)
REMARK    1  A    between atoms: C_2  and  C_13
REMARK    2  A    between atoms: N_3  and  N_4
REMARK    3  A    between atoms: C_5  and  C_6
REMARK    4  A    between atoms: C_23  and  O_24
REMARK                            x       y       z     vdW  Elec       q    Type
REMARK                         _______ _______ _______ _____ _____    ______ ____
ROOT
ATOM      1  O   UNL     1       8.427   6.732  19.035  0.00  0.00    +0.000 OA
ATOM      2  C   UNL     1       7.644   6.865  18.082  0.00  0.00    +0.000 C 
ATOM      3  N   UNL     1       7.527   8.089  17.337  0.00  0.00    +0.000 N 
ATOM      4  H   UNL     1       6.848   8.180  16.580  0.00  0.00    +0.000 HD
ENDROOT
BRANCH   2   5
ATOM      5  C   UNL     1       6.742   5.717  17.587  0.00  0.00    +0.000 A 
ATOM      6  C   UNL     1       5.509   6.139  17.766  0.00  0.00    +0.000 A 
ATOM      7  N   UNL     1       4.616   5.829  16.862  0.00  0.00    +0.000 NA
ATOM      8  C   UNL     1       4.050   4.777  17.238  0.00  0.00    +0.000 A 
ATOM      9  C   UNL     1       2.745   5.221  17.733  0.00  0.00    +0.000 A 
ATOM     10  F   UNL     1       2.652   6.552  17.876  0.00  0.00    +0.000 F 
ATOM     11  C   UNL     1       1.680   4.537  18.230  0.00  0.00    +0.000 A 
ATOM     12  C   UNL     1       1.931   3.233  18.024  0.00  0.00    +0.000 A 
ATOM     13  C   UNL     1       3.356   2.831  17.397  0.00  0.00    +0.000 A 
ATOM     14  C   UNL     1       4.852   3.687  17.128  0.00  0.00    +0.000 A 
ATOM     15  C   UNL     1       6.449   4.563  16.811  0.00  0.00    +0.000 A 
BRANCH  15  16
ATOM     16  O   UNL     1       7.198   4.650  15.512  0.00  0.00    +0.000 OA
ATOM     17  H   UNL     1       7.524   3.769  15.129  0.00  0.00    +0.000 HD
ENDBRANCH  15  16
ENDBRANCH   2   5
BRANCH   3  18
ATOM     18  N   UNL     1       8.263   9.271  17.585  0.00  0.00    +0.000 NA
ATOM     19  C   UNL     1       8.728   9.462  18.789  0.00  0.00    +0.000 C 
BRANCH  19  20
ATOM     20  C   UNL     1       9.573  10.656  19.113  0.00  0.00    +0.000 A 
ATOM     21  C   UNL     1      10.237  11.333  18.081  0.00  0.00    +0.000 A 
ATOM     22  C   UNL     1      11.064  12.428  18.365  0.00  0.00    +0.000 A 
ATOM     23  C   UNL     1      11.217  12.859  19.677  0.00  0.00    +0.000 A 
ATOM     24  F   UNL     1      12.023  13.894  19.945  0.00  0.00    +0.000 F 
ATOM     25  C   UNL     1      10.540  12.224  20.711  0.00  0.00    +0.000 A 
ATOM     26  C   UNL     1       9.705  11.125  20.431  0.00  0.00    +0.000 A 
ENDBRANCH  19  20
ENDBRANCH   3  18
TORSDOF 4
ENDMDL
MODEL 4
REMARK VINA RESULT:      -8.4      1.529      1.886
REMARK  Name = 
REMARK  4 active torsions:
REMARK  status: ('A' for Active; 'I' for Inactive)
REMARK    1  A    between atoms: C_2  and  C_13
REMARK    2  A    between atoms: N_3  and  N_4
REMARK    3  A    between atoms: C_5  and  C_6
REMARK    4  A    between atoms: C_23  and  O_24
REMARK                            x       y       z     vdW  Elec       q    Type
REMARK                         _______ _______ _______ _____ _____    ______ ____
ROOT
ATOM      1  O   UNL     1       7.869   6.553  16.174  0.00  0.00    +0.000 OA
ATOM      2  C   UNL     1       7.322   6.591  17.287  0.00  0.00    +0.000 C 
ATOM      3  N   UNL     1       7.565   7.642  18.238  0.00  0.00    +0.000 N 
ATOM      4  H   UNL     1       7.127   7.628  19.159  0.00  0.00    +0.000 HD
ENDROOT
BRANCH   2   5
ATOM      5  C   UNL     1       6.302   5.529  17.743  0.00  0.00    +0.000 A 
ATOM      6  C   UNL     1       5.222   6.203  18.080  0.00  0.00    +0.000 A 
ATOM      7  N   UNL     1       4.058   5.682  17.790  0.00  0.00    +0.000 NA
ATOM      8  C   UNL     1       3.673   5.040  18.794  0.00  0.00    +0.000 A 
ATOM      9  C   UNL     1       2.645   5.890  19.400  0.00  0.00    +0.000 A 
ATOM     10  F   UNL     1       2.611   7.131  18.891  0.00  0.00    +0.000 F 
ATOM     11  C   UNL     1       1.842   5.714  20.482  0.00  0.00    +0.000 A 
ATOM     12  C   UNL     1       1.999   4.439  20.875  0.00  0.00    +0.000 A 
ATOM     13  C   UNL     1       3.090   3.544  20.104  0.00  0.00    +0.000 A 
ATOM     14  C   UNL     1       4.378   3.895  18.981  0.00  0.00    +0.000 A 
ATOM     15  C   UNL     1       5.742   4.223  17.777  0.00  0.00    +0.000 A 
BRANCH  15  16
ATOM     16  O   UNL     1       5.955   3.569  16.441  0.00  0.00    +0.000 OA
ATOM     17  H   UNL     1       6.300   4.173  15.703  0.00  0.00    +0.000 HD
ENDBRANCH  15  16
ENDBRANCH   2   5
BRANCH   3  18
ATOM     18  N   UNL     1       8.438   8.737  18.041  0.00  0.00    +0.000 NA
ATOM     19  C   UNL     1       8.753   9.464  19.078  0.00  0.00    +0.000 C 
BRANCH  19  20
ATOM     20  C   UNL     1       9.724  10.599  18.962  0.00  0.00    +0.000 A 
ATOM     21  C   UNL     1      10.318  11.121  20.120  0.00  0.00    +0.000 A 
ATOM     22  C   UNL     1      11.198  12.208  20.040  0.00  0.00    +0.000 A 
ATOM     23  C   UNL     1      11.499  12.766  18.804  0.00  0.00    +0.000 A 
ATOM     24  F   UNL     1      12.327  13.817  18.735  0.00  0.00    +0.000 F 
ATOM     25  C   UNL     1      10.949  12.242  17.640  0.00  0.00    +0.000 A 
ATOM     26  C   UNL     1      10.066  11.148  17.715  0.00  0.00    +0.000 A 
ENDBRANCH  19  20
ENDBRANCH   3  18
TORSDOF 4
ENDMDL
MODEL 5
REMARK VINA RESULT:      -8.3      1.771      1.970
REMARK  Name = 
REMARK  4 active torsions:
REMARK  status: ('A' for Active; 'I' for Inactive)
REMARK    1  A    between atoms: C_2  and  C_13
REMARK    2  A    between atoms: N_3  and  N_4
REMARK    3  A    between atoms: C_5  and  C_6
REMARK    4  A    between atoms: C_23  and  O_24
REMARK                            x       y       z     vdW  Elec       q    Type
REMARK                         _______ _______ _______ _____ _____    ______ ____
ROOT
ATOM      1  O   UNL     1       7.690   6.352  15.998  0.00  0.00    +0.000 OA
ATOM      2  C   UNL     1       7.199   6.451  17.133  0.00  0.00    +0.000 C 
ATOM      3  N   UNL     1       7.504   7.540  18.021  0.00  0.00    +0.000 N 
ATOM      4  H   UNL     1       7.112   7.575  18.962  0.00  0.00    +0.000 HD
ENDROOT
BRANCH   2   5
ATOM      5  C   UNL     1       6.187   5.427  17.686  0.00  0.00    +0.000 A 
ATOM      6  C   UNL     1       5.120   6.129  18.003  0.00  0.00    +0.000 A 
ATOM      7  N   UNL     1       3.946   5.596  17.780  0.00  0.00    +0.000 NA
ATOM      8  C   UNL     1       3.585   5.026  18.835  0.00  0.00    +0.000 A 
ATOM      9  C   UNL     1       2.576   5.922  19.407  0.00  0.00    +0.000 A 
ATOM     10  F   UNL     1       2.534   7.125  18.815  0.00  0.00    +0.000 F 
ATOM     11  C   UNL     1       1.800   5.825  20.519  0.00  0.00    +0.000 A 
ATOM     12  C   UNL     1       1.963   4.578  20.994  0.00  0.00    +0.000 A 
ATOM     13  C   UNL     1       3.030   3.627  20.259  0.00  0.00    +0.000 A 
ATOM     14  C   UNL     1       4.290   3.893  19.082  0.00  0.00    +0.000 A 
ATOM     15  C   UNL     1       5.623   4.130  17.824  0.00  0.00    +0.000 A 
BRANCH  15  16
ATOM     16  O   UNL     1       5.800   3.386  16.532  0.00  0.00    +0.000 OA
ATOM     17  H   UNL     1       5.371   2.468  16.488  0.00  0.00    +0.000 HD
ENDBRANCH  15  16
ENDBRANCH   2   5
BRANCH   3  18
ATOM     18  N   UNL     1       8.382   8.610  17.731  0.00  0.00    +0.000 NA
ATOM     19  C   UNL     1       8.163   9.757  18.313  0.00  0.00    +0.000 C 
BRANCH  19  20
ATOM     20  C   UNL     1       9.087  10.919  18.109  0.00  0.00    +0.000 A 
ATOM     21  C   UNL     1       8.560  12.164  17.740  0.00  0.00    +0.000 A 
ATOM     22  C   UNL     1       9.408  13.255  17.505  0.00  0.00    +0.000 A 
ATOM     23  C   UNL     1      10.782  13.108  17.653  0.00  0.00    +0.000 A 
ATOM     24  F   UNL     1      11.590  14.149  17.410  0.00  0.00    +0.000 F 
ATOM     25  C   UNL     1      11.323  11.891  18.053  0.00  0.00    +0.000 A 
ATOM     26  C   UNL     1      10.474  10.794  18.292  0.00  0.00    +0.000 A 
ENDBRANCH  19  20
ENDBRANCH   3  18
TORSDOF 4
ENDMDL
MODEL 6
REMARK VINA RESULT:      -8.3      4.917      7.513
REMARK  Name = 
REMARK  4 active torsions:
REMARK  status: ('A' for Active; 'I' for Inactive)
REMARK    1  A    between atoms: C_2  and  C_13
REMARK    2  A    between atoms: N_3  and  N_4
REMARK    3  A    between atoms: C_5  and  C_6
REMARK    4  A    between atoms: C_23  and  O_24
REMARK                            x       y       z     vdW  Elec       q    Type
REMARK                         _______ _______ _______ _____ _____    ______ ____
ROOT
ATOM      1  O   UNL     1       1.252   4.787  20.860  0.00  0.00    +0.000 OA
ATOM      2  C   UNL     1       2.038   5.358  20.087  0.00  0.00    +0.000 C 
ATOM      3  N   UNL     1       2.236   6.782  20.091  0.00  0.00    +0.000 N 
ATOM      4  H   UNL     1       2.862   7.227  19.420  0.00  0.00    +0.000 HD
ENDROOT
BRANCH   2   5
ATOM      5  C   UNL     1       2.901   4.587  19.068  0.00  0.00    +0.000 A 
ATOM      6  C   UNL     1       4.053   5.222  19.036  0.00  0.00    +0.000 A 
ATOM      7  N   UNL     1       5.144   4.510  18.920  0.00  0.00    +0.000 NA
ATOM      8  C   UNL     1       5.423   4.446  17.701  0.00  0.00    +0.000 A 
ATOM      9  C   UNL     1       6.543   5.375  17.533  0.00  0.00    +0.000 A 
ATOM     10  F   UNL     1       6.749   6.161  18.601  0.00  0.00    +0.000 F 
ATOM     11  C   UNL     1       7.297   5.704  16.451  0.00  0.00    +0.000 A 
ATOM     12  C   UNL     1       6.967   4.842  15.475  0.00  0.00    +0.000 A 
ATOM     13  C   UNL     1       5.782   3.795  15.766  0.00  0.00    +0.000 A 
ATOM     14  C   UNL     1       4.571   3.644  17.013  0.00  0.00    +0.000 A 
ATOM     15  C   UNL     1       3.284   3.439  18.324  0.00  0.00    +0.000 A 
BRANCH  15  16
ATOM     16  O   UNL     1       3.010   2.213  19.148  0.00  0.00    +0.000 OA
ATOM     17  H   UNL     1       3.066   1.328  18.658  0.00  0.00    +0.000 HD
ENDBRANCH  15  16
ENDBRANCH   2   5
BRANCH   3  18
ATOM     18  N   UNL     1       1.579   7.697  20.947  0.00  0.00    +0.000 NA
ATOM     19  C   UNL     1       1.129   8.806  20.429  0.00  0.00    +0.000 C 
BRANCH  19  20
ATOM     20  C   UNL     1       0.364   9.794  21.256  0.00  0.00    +0.000 A 
ATOM     21  C   UNL     1       0.305  11.135  20.852  0.00  0.00    +0.000 A 
ATOM     22  C   UNL     1      -0.371  12.084  21.631  0.00  0.00    +0.000 A 
ATOM     23  C   UNL     1      -1.003  11.693  22.804  0.00  0.00    +0.000 A 
ATOM     24  F   UNL     1      -1.633  12.607  23.555  0.00  0.00    +0.000 F 
ATOM     25  C   UNL     1      -0.987  10.362  23.205  0.00  0.00    +0.000 A 
ATOM     26  C   UNL     1      -0.311   9.405  22.425  0.00  0.00    +0.000 A 
ENDBRANCH  19  20
ENDBRANCH   3  18
TORSDOF 4
ENDMDL
MODEL 7
REMARK VINA RESULT:      -8.1      4.863      7.538
REMARK  Name = 
REMARK  4 active torsions:
REMARK  status: ('A' for Active; 'I' for Inactive)
REMARK    1  A    between atoms: C_2  and  C_13
REMARK    2  A    between atoms: N_3  and  N_4
REMARK    3  A    between atoms: C_5  and  C_6
REMARK    4  A    between atoms: C_23  and  O_24
REMARK                            x       y       z     vdW  Elec       q    Type
REMARK                         _______ _______ _______ _____ _____    ______ ____
ROOT
ATOM      1  O   UNL     1       2.136   4.844  21.325  0.00  0.00    +0.000 OA
ATOM      2  C   UNL     1       2.475   5.378  20.258  0.00  0.00    +0.000 C 
ATOM      3  N   UNL     1       2.271   6.776  19.988  0.00  0.00    +0.000 N 
ATOM      4  H   UNL     1       2.529   7.180  19.088  0.00  0.00    +0.000 HD
ENDROOT
BRANCH   2   5
ATOM      5  C   UNL     1       3.178   4.597  19.130  0.00  0.00    +0.000 A 
ATOM      6  C   UNL     1       4.370   5.144  19.017  0.00  0.00    +0.000 A 
ATOM      7  N   UNL     1       5.386   4.359  18.768  0.00  0.00    +0.000 NA
ATOM      8  C   UNL     1       5.548   4.336  17.527  0.00  0.00    +0.000 A 
ATOM      9  C   UNL     1       6.719   5.185  17.295  0.00  0.00    +0.000 A 
ATOM     10  F   UNL     1       7.082   5.898  18.372  0.00  0.00    +0.000 F 
ATOM     11  C   UNL     1       7.396   5.511  16.163  0.00  0.00    +0.000 A 
ATOM     12  C   UNL     1       6.911   4.726  15.185  0.00  0.00    +0.000 A 
ATOM     13  C   UNL     1       5.677   3.758  15.541  0.00  0.00    +0.000 A 
ATOM     14  C   UNL     1       4.576   3.636  16.888  0.00  0.00    +0.000 A 
ATOM     15  C   UNL     1       3.400   3.462  18.304  0.00  0.00    +0.000 A 
BRANCH  15  16
ATOM     16  O   UNL     1       3.104   2.221  19.096  0.00  0.00    +0.000 OA
ATOM     17  H   UNL     1       3.901   1.629  19.305  0.00  0.00    +0.000 HD
ENDBRANCH  15  16
ENDBRANCH   2   5
BRANCH   3  18
ATOM     18  N   UNL     1       1.670   7.700  20.875  0.00  0.00    +0.000 NA
ATOM     19  C   UNL     1       1.114   8.765  20.365  0.00  0.00    +0.000 C 
BRANCH  19  20
ATOM     20  C   UNL     1       0.399   9.756  21.232  0.00  0.00    +0.000 A 
ATOM     21  C   UNL     1      -0.224   9.321  22.410  0.00  0.00    +0.000 A 
ATOM     22  C   UNL     1      -0.931  10.223  23.215  0.00  0.00    +0.000 A 
ATOM     23  C   UNL     1      -1.005  11.563  22.856  0.00  0.00    +0.000 A 
ATOM     24  F   UNL     1      -1.698  12.418  23.619  0.00  0.00    +0.000 F 
ATOM     25  C   UNL     1      -0.364  12.022  21.710  0.00  0.00    +0.000 A 
ATOM     26  C   UNL     1       0.350  11.120  20.899  0.00  0.00    +0.000 A 
ENDBRANCH  19  20
ENDBRANCH   3  18
TORSDOF 4
ENDMDL
MODEL 8
REMARK VINA RESULT:      -8.1      1.080      1.081
REMARK  Name = 
REMARK  4 active torsions:
REMARK  status: ('A' for Active; 'I' for Inactive)
REMARK    1  A    between atoms: C_2  and  C_13
REMARK    2  A    between atoms: N_3  and  N_4
REMARK    3  A    between atoms: C_5  and  C_6
REMARK    4  A    between atoms: C_23  and  O_24
REMARK                            x       y       z     vdW  Elec       q    Type
REMARK                         _______ _______ _______ _____ _____    ______ ____
ROOT
ATOM      1  O   UNL     1       7.965   6.181  18.989  0.00  0.00    +0.000 OA
ATOM      2  C   UNL     1       7.220   6.589  18.085  0.00  0.00    +0.000 C 
ATOM      3  N   UNL     1       7.421   7.849  17.420  0.00  0.00    +0.000 N 
ATOM      4  H   UNL     1       6.771   8.174  16.704  0.00  0.00    +0.000 HD
ENDROOT
BRANCH   2   5
ATOM      5  C   UNL     1       6.023   5.767  17.566  0.00  0.00    +0.000 A 
ATOM      6  C   UNL     1       5.315   5.469  18.635  0.00  0.00    +0.000 A 
ATOM      7  N   UNL     1       4.011   5.476  18.529  0.00  0.00    +0.000 NA
ATOM      8  C   UNL     1       3.650   4.307  18.263  0.00  0.00    +0.000 A 
ATOM      9  C   UNL     1       3.100   3.799  19.524  0.00  0.00    +0.000 A 
ATOM     10  F   UNL     1       3.372   4.583  20.578  0.00  0.00    +0.000 F 
ATOM     11  C   UNL     1       2.520   2.614  19.850  0.00  0.00    +0.000 A 
ATOM     12  C   UNL     1       2.328   1.949  18.698  0.00  0.00    +0.000 A 
ATOM     13  C   UNL     1       2.887   2.613  17.344  0.00  0.00    +0.000 A 
ATOM     14  C   UNL     1       3.964   3.941  16.995  0.00  0.00    +0.000 A 
ATOM     15  C   UNL     1       5.087   5.350  16.582  0.00  0.00    +0.000 A 
BRANCH  15  16
ATOM     16  O   UNL     1       4.800   6.505  15.666  0.00  0.00    +0.000 OA
ATOM     17  H   UNL     1       5.602   7.062  15.391  0.00  0.00    +0.000 HD
ENDBRANCH  15  16
ENDBRANCH   2   5
BRANCH   3  18
ATOM     18  N   UNL     1       8.460   8.765  17.703  0.00  0.00    +0.000 NA
ATOM     19  C   UNL     1       8.139   9.908  18.244  0.00  0.00    +0.000 C 
BRANCH  19  20
ATOM     20  C   UNL     1       9.189  10.903  18.633  0.00  0.00    +0.000 A 
ATOM     21  C   UNL     1      10.301  11.096  17.802  0.00  0.00    +0.000 A 
ATOM     22  C   UNL     1      11.315  11.992  18.166  0.00  0.00    +0.000 A 
ATOM     23  C   UNL     1      11.213  12.710  19.351  0.00  0.00    +0.000 A 
ATOM     24  F   UNL     1      12.193  13.552  19.703  0.00  0.00    +0.000 F 
ATOM     25  C   UNL     1      10.101  12.561  20.172  0.00  0.00    +0.000 A 
ATOM     26  C   UNL     1       9.079  11.663  19.810  0.00  0.00    +0.000 A 
ENDBRANCH  19  20
ENDBRANCH   3  18
TORSDOF 4
ENDMDL
MODEL 9
REMARK VINA RESULT:      -8.0      1.958      2.787
REMARK  Name = 
REMARK  4 active torsions:
REMARK  status: ('A' for Active; 'I' for Inactive)
REMARK    1  A    between atoms: C_2  and  C_13
REMARK    2  A    between atoms: N_3  and  N_4
REMARK    3  A    between atoms: C_5  and  C_6
REMARK    4  A    between atoms: C_23  and  O_24
REMARK                            x       y       z     vdW  Elec       q    Type
REMARK                         _______ _______ _______ _____ _____    ______ ____
ROOT
ATOM      1  O   UNL     1       7.972   7.431  16.474  0.00  0.00    +0.000 OA
ATOM      2  C   UNL     1       7.785   7.472  17.700  0.00  0.00    +0.000 C 
ATOM      3  N   UNL     1       8.315   8.518  18.533  0.00  0.00    +0.000 N 
ATOM      4  H   UNL     1       8.174   8.506  19.544  0.00  0.00    +0.000 HD
ENDROOT
BRANCH   2   5
ATOM      5  C   UNL     1       6.938   6.420  18.442  0.00  0.00    +0.000 A 
ATOM      6  C   UNL     1       6.349   5.717  17.497  0.00  0.00    +0.000 A 
ATOM      7  N   UNL     1       6.213   4.429  17.684  0.00  0.00    +0.000 NA
ATOM      8  C   UNL     1       5.084   4.240  18.190  0.00  0.00    +0.000 A 
ATOM      9  C   UNL     1       4.273   3.715  17.087  0.00  0.00    +0.000 A 
ATOM     10  F   UNL     1       4.862   3.836  15.887  0.00  0.00    +0.000 F 
ATOM     11  C   UNL     1       2.984   3.288  17.030  0.00  0.00    +0.000 A 
ATOM     12  C   UNL     1       2.540   3.234  18.297  0.00  0.00    +0.000 A 
ATOM     13  C   UNL     1       3.522   3.750  19.461  0.00  0.00    +0.000 A 
ATOM     14  C   UNL     1       5.016   4.651  19.482  0.00  0.00    +0.000 A 
ATOM     15  C   UNL     1       6.608   5.587  19.546  0.00  0.00    +0.000 A 
BRANCH  15  16
ATOM     16  O   UNL     1       7.876   5.183  20.243  0.00  0.00    +0.000 OA
ATOM     17  H   UNL     1       8.392   4.422  19.817  0.00  0.00    +0.000 HD
ENDBRANCH  15  16
ENDBRANCH   2   5
BRANCH   3  18
ATOM     18  N   UNL     1       9.100   9.604  18.082  0.00  0.00    +0.000 NA
ATOM     19  C   UNL     1       8.755  10.806  18.454  0.00  0.00    +0.000 C 
BRANCH  19  20
ATOM     20  C   UNL     1       9.574  12.001  18.072  0.00  0.00    +0.000 A 
ATOM     21  C   UNL     1      10.872  11.818  17.575  0.00  0.00    +0.000 A 
ATOM     22  C   UNL     1      11.671  12.922  17.249  0.00  0.00    +0.000 A 
ATOM     23  C   UNL     1      11.171  14.209  17.403  0.00  0.00    +0.000 A 
ATOM     24  F   UNL     1      11.946  15.261  17.107  0.00  0.00    +0.000 F 
ATOM     25  C   UNL     1       9.875  14.412  17.861  0.00  0.00    +0.000 A 
ATOM     26  C   UNL     1       9.067  13.306  18.187  0.00  0.00    +0.000 A 
ENDBRANCH  19  20
ENDBRANCH   3  18
TORSDOF 4
ENDMDL
