MODEL 1
REMARK VINA RESULT:      -7.0      0.000      0.000
REMARK  Name = 
REMARK  13 active torsions:
REMARK  status: ('A' for Active; 'I' for Inactive)
REMARK    1  A    between atoms: C_1  and  C_2
REMARK    2  A    between atoms: C_2  and  C_3
REMARK    3  A    between atoms: C_2  and  N_14
REMARK    4  A    between atoms: C_3  and  C_4
REMARK    5  A    between atoms: C_7  and  O_8
REMARK    6  A    between atoms: O_8  and  C_9
REMARK    7  A    between atoms: C_9  and  C_10
REMARK    8  A    between atoms: N_14  and  C_15
REMARK    9  A    between atoms: C_15  and  C_16
REMARK   10  A    between atoms: C_16  and  O_17
REMARK   11  A    between atoms: C_16  and  C_18
REMARK   12  A    between atoms: C_20  and  O_21
REMARK   13  A    between atoms: C_23  and  O_24
REMARK                            x       y       z     vdW  Elec       q    Type
REMARK                         _______ _______ _______ _____ _____    ______ ____
ROOT
ATOM      1  N   UNL     1       1.819   3.138  19.111  0.00  0.00    +0.000 NA
ATOM      2  H   UNL     1       1.482   3.621  18.277  0.00  0.00    +0.000 HD
ENDROOT
BRANCH   1   4
ATOM      3  C   UNL     1       1.416   2.978  21.578  0.00  0.00    +0.000 C 
ATOM      4  C   UNL     1       1.502   3.882  20.342  0.00  0.00    +0.000 C 
BRANCH   4   5
ATOM      5  C   UNL     1       2.557   4.988  20.610  0.00  0.00    +0.000 C 
BRANCH   5   6
ATOM      6  C   UNL     1       2.221   6.333  20.012  0.00  0.00    +0.000 A 
ATOM      7  C   UNL     1       2.549   6.605  18.681  0.00  0.00    +0.000 A 
ATOM      8  C   UNL     1       2.279   7.852  18.124  0.00  0.00    +0.000 A 
ATOM      9  C   UNL     1       1.658   8.848  18.879  0.00  0.00    +0.000 A 
ATOM     10  C   UNL     1       1.298   8.572  20.199  0.00  0.00    +0.000 A 
ATOM     11  C   UNL     1       1.576   7.322  20.765  0.00  0.00    +0.000 A 
BRANCH   9  12
ATOM     12  O   UNL     1       1.364  10.109  18.425  0.00  0.00    +0.000 OA
BRANCH  12  13
ATOM     13  C   UNL     1       0.269  10.750  19.086  0.00  0.00    +0.000 C 
BRANCH  13  14
ATOM     14  C   UNL     1      -1.004  10.619  18.276  0.00  0.00    +0.000 C 
ATOM     15  F   UNL     1      -1.309  11.836  17.745  0.00  0.00    +0.000 F 
ENDBRANCH  13  14
ENDBRANCH  12  13
ENDBRANCH   9  12
ENDBRANCH   5   6
ENDBRANCH   4   5
ENDBRANCH   1   4
BRANCH   1  16
ATOM     16  C   UNL     1       3.248   2.840  18.969  0.00  0.00    +0.000 C 
BRANCH  16  17
ATOM     17  C   UNL     1       3.789   3.084  17.538  0.00  0.00    +0.000 C 
BRANCH  17  18
ATOM     18  C   UNL     1       5.004   3.998  17.583  0.00  0.00    +0.000 A 
ATOM     19  C   UNL     1       5.614   4.416  16.389  0.00  0.00    +0.000 A 
ATOM     20  C   UNL     1       6.778   5.185  16.431  0.00  0.00    +0.000 A 
ATOM     21  C   UNL     1       7.352   5.560  17.641  0.00  0.00    +0.000 A 
ATOM     22  C   UNL     1       6.744   5.159  18.822  0.00  0.00    +0.000 A 
ATOM     23  C   UNL     1       5.582   4.394  18.804  0.00  0.00    +0.000 A 
BRANCH  20  24
ATOM     24  O   UNL     1       7.408   5.582  15.288  0.00  0.00    +0.000 OA
ATOM     25  H   UNL     1       6.966   5.168  14.529  0.00  0.00    +0.000 HD
ENDBRANCH  20  24
BRANCH  22  26
ATOM     26  O   UNL     1       7.270   5.476  20.040  0.00  0.00    +0.000 OA
ATOM     27  H   UNL     1       6.547   5.498  20.690  0.00  0.00    +0.000 HD
ENDBRANCH  22  26
ENDBRANCH  17  18
BRANCH  17  28
ATOM     28  O   UNL     1       2.765   3.660  16.721  0.00  0.00    +0.000 OA
ATOM     29  H   UNL     1       1.913   3.495  17.153  0.00  0.00    +0.000 HD
ENDBRANCH  17  28
ENDBRANCH  16  17
ENDBRANCH   1  16
TORSDOF 12
ENDMDL
MODEL 2
REMARK VINA RESULT:      -6.9      1.005      1.874
REMARK  Name = 
REMARK  13 active torsions:
REMARK  status: ('A' for Active; 'I' for Inactive)
REMARK    1  A    between atoms: C_1  and  C_2
REMARK    2  A    between atoms: C_2  and  C_3
REMARK    3  A    between atoms: C_2  and  N_14
REMARK    4  A    between atoms: C_3  and  C_4
REMARK    5  A    between atoms: C_7  and  O_8
REMARK    6  A    between atoms: O_8  and  C_9
REMARK    7  A    between atoms: C_9  and  C_10
REMARK    8  A    between atoms: N_14  and  C_15
REMARK    9  A    between atoms: C_15  and  C_16
REMARK   10  A    between atoms: C_16  and  O_17
REMARK   11  A    between atoms: C_16  and  C_18
REMARK   12  A    between atoms: C_20  and  O_21
REMARK   13  A    between atoms: C_23  and  O_24
REMARK                            x       y       z     vdW  Elec       q    Type
REMARK                         _______ _______ _______ _____ _____    ______ ____
ROOT
ATOM      1  N   UNL     1       1.535   3.729  19.238  0.00  0.00    +0.000 NA
ATOM      2  H   UNL     1       1.618   4.458  18.528  0.00  0.00    +0.000 HD
ENDROOT
BRANCH   1   4
ATOM      3  C   UNL     1       1.717   3.238  21.687  0.00  0.00    +0.000 C 
ATOM      4  C   UNL     1       1.479   4.292  20.598  0.00  0.00    +0.000 C 
BRANCH   4   5
ATOM      5  C   UNL     1       2.521   5.429  20.773  0.00  0.00    +0.000 C 
BRANCH   5   6
ATOM      6  C   UNL     1       2.139   6.736  20.120  0.00  0.00    +0.000 A 
ATOM      7  C   UNL     1       2.542   7.004  18.810  0.00  0.00    +0.000 A 
ATOM      8  C   UNL     1       2.229   8.218  18.206  0.00  0.00    +0.000 A 
ATOM      9  C   UNL     1       1.489   9.183  18.891  0.00  0.00    +0.000 A 
ATOM     10  C   UNL     1       1.054   8.908  20.188  0.00  0.00    +0.000 A 
ATOM     11  C   UNL     1       1.375   7.691  20.802  0.00  0.00    +0.000 A 
BRANCH   9  12
ATOM     12  O   UNL     1       1.143  10.412  18.388  0.00  0.00    +0.000 OA
BRANCH  12  13
ATOM     13  C   UNL     1      -0.220  10.792  18.601  0.00  0.00    +0.000 C 
BRANCH  13  14
ATOM     14  C   UNL     1      -0.310  12.204  19.141  0.00  0.00    +0.000 C 
ATOM     15  F   UNL     1      -1.249  12.233  20.128  0.00  0.00    +0.000 F 
ENDBRANCH  13  14
ENDBRANCH  12  13
ENDBRANCH   9  12
ENDBRANCH   5   6
ENDBRANCH   4   5
ENDBRANCH   1   4
BRANCH   1  16
ATOM     16  C   UNL     1       2.607   2.743  19.065  0.00  0.00    +0.000 C 
BRANCH  16  17
ATOM     17  C   UNL     1       3.306   2.828  17.685  0.00  0.00    +0.000 C 
BRANCH  17  18
ATOM     18  C   UNL     1       4.342   3.941  17.686  0.00  0.00    +0.000 A 
ATOM     19  C   UNL     1       5.195   4.107  18.790  0.00  0.00    +0.000 A 
ATOM     20  C   UNL     1       6.088   5.179  18.827  0.00  0.00    +0.000 A 
ATOM     21  C   UNL     1       6.162   6.094  17.783  0.00  0.00    +0.000 A 
ATOM     22  C   UNL     1       5.329   5.926  16.686  0.00  0.00    +0.000 A 
ATOM     23  C   UNL     1       4.433   4.863  16.626  0.00  0.00    +0.000 A 
BRANCH  20  24
ATOM     24  O   UNL     1       6.909   5.381  19.898  0.00  0.00    +0.000 OA
ATOM     25  H   UNL     1       7.669   5.914  19.612  0.00  0.00    +0.000 HD
ENDBRANCH  20  24
BRANCH  22  26
ATOM     26  O   UNL     1       5.340   6.801  15.640  0.00  0.00    +0.000 OA
ATOM     27  H   UNL     1       5.915   7.550  15.873  0.00  0.00    +0.000 HD
ENDBRANCH  22  26
ENDBRANCH  17  18
BRANCH  17  28
ATOM     28  O   UNL     1       2.334   3.056  16.659  0.00  0.00    +0.000 OA
ATOM     29  H   UNL     1       1.494   2.673  16.956  0.00  0.00    +0.000 HD
ENDBRANCH  17  28
ENDBRANCH  16  17
ENDBRANCH   1  16
TORSDOF 12
ENDMDL
MODEL 3
REMARK VINA RESULT:      -6.9      1.330      1.415
REMARK  Name = 
REMARK  13 active torsions:
REMARK  status: ('A' for Active; 'I' for Inactive)
REMARK    1  A    between atoms: C_1  and  C_2
REMARK    2  A    between atoms: C_2  and  C_3
REMARK    3  A    between atoms: C_2  and  N_14
REMARK    4  A    between atoms: C_3  and  C_4
REMARK    5  A    between atoms: C_7  and  O_8
REMARK    6  A    between atoms: O_8  and  C_9
REMARK    7  A    between atoms: C_9  and  C_10
REMARK    8  A    between atoms: N_14  and  C_15
REMARK    9  A    between atoms: C_15  and  C_16
REMARK   10  A    between atoms: C_16  and  O_17
REMARK   11  A    between atoms: C_16  and  C_18
REMARK   12  A    between atoms: C_20  and  O_21
REMARK   13  A    between atoms: C_23  and  O_24
REMARK                            x       y       z     vdW  Elec       q    Type
REMARK                         _______ _______ _______ _____ _____    ______ ____
ROOT
ATOM      1  N   UNL     1       1.517   3.594  19.202  0.00  0.00    +0.000 NA
ATOM      2  H   UNL     1       1.492   4.284  18.450  0.00  0.00    +0.000 HD
ENDROOT
BRANCH   1   4
ATOM      3  C   UNL     1       1.601   3.220  21.677  0.00  0.00    +0.000 C 
ATOM      4  C   UNL     1       1.432   4.224  20.529  0.00  0.00    +0.000 C 
BRANCH   4   5
ATOM      5  C   UNL     1       2.500   5.339  20.686  0.00  0.00    +0.000 C 
BRANCH   5   6
ATOM      6  C   UNL     1       2.118   6.665  20.073  0.00  0.00    +0.000 A 
ATOM      7  C   UNL     1       2.469   6.949  18.751  0.00  0.00    +0.000 A 
ATOM      8  C   UNL     1       2.156   8.179  18.182  0.00  0.00    +0.000 A 
ATOM      9  C   UNL     1       1.468   9.147  18.916  0.00  0.00    +0.000 A 
ATOM     10  C   UNL     1       1.085   8.858  20.226  0.00  0.00    +0.000 A 
ATOM     11  C   UNL     1       1.407   7.623  20.805  0.00  0.00    +0.000 A 
BRANCH   9  12
ATOM     12  O   UNL     1       1.127  10.392  18.449  0.00  0.00    +0.000 OA
BRANCH  12  13
ATOM     13  C   UNL     1       2.233  11.232  18.103  0.00  0.00    +0.000 C 
BRANCH  13  14
ATOM     14  C   UNL     1       2.041  12.631  18.652  0.00  0.00    +0.000 C 
ATOM     15  F   UNL     1       2.667  13.513  17.824  0.00  0.00    +0.000 F 
ENDBRANCH  13  14
ENDBRANCH  12  13
ENDBRANCH   9  12
ENDBRANCH   5   6
ENDBRANCH   4   5
ENDBRANCH   1   4
BRANCH   1  16
ATOM     16  C   UNL     1       2.695   2.733  19.047  0.00  0.00    +0.000 C 
BRANCH  16  17
ATOM     17  C   UNL     1       3.400   2.896  17.677  0.00  0.00    +0.000 C 
BRANCH  17  18
ATOM     18  C   UNL     1       4.394   4.046  17.728  0.00  0.00    +0.000 A 
ATOM     19  C   UNL     1       4.530   4.909  16.628  0.00  0.00    +0.000 A 
ATOM     20  C   UNL     1       5.500   5.912  16.642  0.00  0.00    +0.000 A 
ATOM     21  C   UNL     1       6.341   6.086  17.735  0.00  0.00    +0.000 A 
ATOM     22  C   UNL     1       6.202   5.243  18.828  0.00  0.00    +0.000 A 
ATOM     23  C   UNL     1       5.239   4.238  18.837  0.00  0.00    +0.000 A 
BRANCH  20  24
ATOM     24  O   UNL     1       5.673   6.746  15.576  0.00  0.00    +0.000 OA
ATOM     25  H   UNL     1       4.863   7.266  15.453  0.00  0.00    +0.000 HD
ENDBRANCH  20  24
BRANCH  22  26
ATOM     26  O   UNL     1       7.010   5.351  19.921  0.00  0.00    +0.000 OA
ATOM     27  H   UNL     1       6.489   5.726  20.652  0.00  0.00    +0.000 HD
ENDBRANCH  22  26
ENDBRANCH  17  18
BRANCH  17  28
ATOM     28  O   UNL     1       2.429   3.125  16.651  0.00  0.00    +0.000 OA
ATOM     29  H   UNL     1       1.594   2.723  16.938  0.00  0.00    +0.000 HD
ENDBRANCH  17  28
ENDBRANCH  16  17
ENDBRANCH   1  16
TORSDOF 12
ENDMDL
MODEL 4
REMARK VINA RESULT:      -6.8      1.385      2.204
REMARK  Name = 
REMARK  13 active torsions:
REMARK  status: ('A' for Active; 'I' for Inactive)
REMARK    1  A    between atoms: C_1  and  C_2
REMARK    2  A    between atoms: C_2  and  C_3
REMARK    3  A    between atoms: C_2  and  N_14
REMARK    4  A    between atoms: C_3  and  C_4
REMARK    5  A    between atoms: C_7  and  O_8
REMARK    6  A    between atoms: O_8  and  C_9
REMARK    7  A    between atoms: C_9  and  C_10
REMARK    8  A    between atoms: N_14  and  C_15
REMARK    9  A    between atoms: C_15  and  C_16
REMARK   10  A    between atoms: C_16  and  O_17
REMARK   11  A    between atoms: C_16  and  C_18
REMARK   12  A    between atoms: C_20  and  O_21
REMARK   13  A    between atoms: C_23  and  O_24
REMARK                            x       y       z     vdW  Elec       q    Type
REMARK                         _______ _______ _______ _____ _____    ______ ____
ROOT
ATOM      1  N   UNL     1       2.878   3.630  17.711  0.00  0.00    +0.000 NA
ATOM      2  H   UNL     1       2.778   3.961  16.750  0.00  0.00    +0.000 HD
ENDROOT
BRANCH   1   4
ATOM      3  C   UNL     1       1.433   3.570  19.755  0.00  0.00    +0.000 C 
ATOM      4  C   UNL     1       2.070   4.424  18.652  0.00  0.00    +0.000 C 
BRANCH   4   5
ATOM      5  C   UNL     1       2.925   5.535  19.318  0.00  0.00    +0.000 C 
BRANCH   5   6
ATOM      6  C   UNL     1       2.335   6.922  19.222  0.00  0.00    +0.000 A 
ATOM      7  C   UNL     1       2.320   7.588  17.993  0.00  0.00    +0.000 A 
ATOM      8  C   UNL     1       1.812   8.881  17.894  0.00  0.00    +0.000 A 
ATOM      9  C   UNL     1       1.292   9.528  19.015  0.00  0.00    +0.000 A 
ATOM     10  C   UNL     1       1.275   8.856  20.238  0.00  0.00    +0.000 A 
ATOM     11  C   UNL     1       1.792   7.559  20.344  0.00  0.00    +0.000 A 
BRANCH   9  12
ATOM     12  O   UNL     1       0.784  10.803  19.021  0.00  0.00    +0.000 OA
BRANCH  12  13
ATOM     13  C   UNL     1      -0.623  10.893  19.267  0.00  0.00    +0.000 C 
BRANCH  13  14
ATOM     14  C   UNL     1      -1.400  10.909  17.967  0.00  0.00    +0.000 C 
ATOM     15  F   UNL     1      -1.730   9.629  17.641  0.00  0.00    +0.000 F 
ENDBRANCH  13  14
ENDBRANCH  12  13
ENDBRANCH   9  12
ENDBRANCH   5   6
ENDBRANCH   4   5
ENDBRANCH   1   4
BRANCH   1  16
ATOM     16  C   UNL     1       4.299   3.576  18.073  0.00  0.00    +0.000 C 
BRANCH  16  17
ATOM     17  C   UNL     1       5.234   4.154  16.981  0.00  0.00    +0.000 C 
BRANCH  17  18
ATOM     18  C   UNL     1       6.271   5.073  17.608  0.00  0.00    +0.000 A 
ATOM     19  C   UNL     1       6.846   4.744  18.847  0.00  0.00    +0.000 A 
ATOM     20  C   UNL     1       7.734   5.628  19.462  0.00  0.00    +0.000 A 
ATOM     21  C   UNL     1       8.075   6.838  18.868  0.00  0.00    +0.000 A 
ATOM     22  C   UNL     1       7.518   7.160  17.639  0.00  0.00    +0.000 A 
ATOM     23  C   UNL     1       6.632   6.293  17.006  0.00  0.00    +0.000 A 
BRANCH  20  24
ATOM     24  O   UNL     1       8.286   5.348  20.677  0.00  0.00    +0.000 OA
ATOM     25  H   UNL     1       7.575   5.107  21.294  0.00  0.00    +0.000 HD
ENDBRANCH  20  24
BRANCH  22  26
ATOM     26  O   UNL     1       7.797   8.341  17.016  0.00  0.00    +0.000 OA
ATOM     27  H   UNL     1       7.718   9.058  17.669  0.00  0.00    +0.000 HD
ENDBRANCH  22  26
ENDBRANCH  17  18
BRANCH  17  28
ATOM     28  O   UNL     1       4.466   4.866  16.006  0.00  0.00    +0.000 OA
ATOM     29  H   UNL     1       3.882   5.479  16.478  0.00  0.00    +0.000 HD
ENDBRANCH  17  28
ENDBRANCH  16  17
ENDBRANCH   1  16
TORSDOF 12
ENDMDL
MODEL 5
REMARK VINA RESULT:      -6.8      1.523      2.570
REMARK  Name = 
REMARK  13 active torsions:
REMARK  status: ('A' for Active; 'I' for Inactive)
REMARK    1  A    between atoms: C_1  and  C_2
REMARK    2  A    between atoms: C_2  and  C_3
REMARK    3  A    between atoms: C_2  and  N_14
REMARK    4  A    between atoms: C_3  and  C_4
REMARK    5  A    between atoms: C_7  and  O_8
REMARK    6  A    between atoms: O_8  and  C_9
REMARK    7  A    between atoms: C_9  and  C_10
REMARK    8  A    between atoms: N_14  and  C_15
REMARK    9  A    between atoms: C_15  and  C_16
REMARK   10  A    between atoms: C_16  and  O_17
REMARK   11  A    between atoms: C_16  and  C_18
REMARK   12  A    between atoms: C_20  and  O_21
REMARK   13  A    between atoms: C_23  and  O_24
REMARK                            x       y       z     vdW  Elec       q    Type
REMARK                         _______ _______ _______ _____ _____    ______ ____
ROOT
ATOM      1  N   UNL     1       3.255   3.652  16.798  0.00  0.00    +0.000 NA
ATOM      2  H   UNL     1       3.254   4.247  15.968  0.00  0.00    +0.000 HD
ENDROOT
BRANCH   1   4
ATOM      3  C   UNL     1       1.525   2.959  18.471  0.00  0.00    +0.000 C 
ATOM      4  C   UNL     1       2.284   4.114  17.804  0.00  0.00    +0.000 C 
BRANCH   4   5
ATOM      5  C   UNL     1       2.983   4.950  18.909  0.00  0.00    +0.000 C 
BRANCH   5   6
ATOM      6  C   UNL     1       2.491   6.373  19.024  0.00  0.00    +0.000 A 
ATOM      7  C   UNL     1       2.073   6.868  20.262  0.00  0.00    +0.000 A 
ATOM      8  C   UNL     1       1.584   8.166  20.379  0.00  0.00    +0.000 A 
ATOM      9  C   UNL     1       1.519   9.004  19.264  0.00  0.00    +0.000 A 
ATOM     10  C   UNL     1       1.965   8.527  18.031  0.00  0.00    +0.000 A 
ATOM     11  C   UNL     1       2.450   7.219  17.909  0.00  0.00    +0.000 A 
BRANCH   9  12
ATOM     12  O   UNL     1       1.040  10.290  19.276  0.00  0.00    +0.000 OA
BRANCH  12  13
ATOM     13  C   UNL     1      -0.362  10.412  19.537  0.00  0.00    +0.000 C 
BRANCH  13  14
ATOM     14  C   UNL     1      -1.118  10.773  18.275  0.00  0.00    +0.000 C 
ATOM     15  F   UNL     1      -1.925   9.728  17.938  0.00  0.00    +0.000 F 
ENDBRANCH  13  14
ENDBRANCH  12  13
ENDBRANCH   9  12
ENDBRANCH   5   6
ENDBRANCH   4   5
ENDBRANCH   1   4
BRANCH   1  16
ATOM     16  C   UNL     1       4.620   3.536  17.324  0.00  0.00    +0.000 C 
BRANCH  16  17
ATOM     17  C   UNL     1       5.686   4.212  16.426  0.00  0.00    +0.000 C 
BRANCH  17  18
ATOM     18  C   UNL     1       6.556   5.147  17.252  0.00  0.00    +0.000 A 
ATOM     19  C   UNL     1       6.989   4.759  18.531  0.00  0.00    +0.000 A 
ATOM     20  C   UNL     1       7.716   5.649  19.322  0.00  0.00    +0.000 A 
ATOM     21  C   UNL     1       8.035   6.924  18.868  0.00  0.00    +0.000 A 
ATOM     22  C   UNL     1       7.619   7.305  17.600  0.00  0.00    +0.000 A 
ATOM     23  C   UNL     1       6.895   6.433  16.793  0.00  0.00    +0.000 A 
BRANCH  20  24
ATOM     24  O   UNL     1       8.124   5.310  20.579  0.00  0.00    +0.000 OA
ATOM     25  H   UNL     1       8.997   4.887  20.520  0.00  0.00    +0.000 HD
ENDBRANCH  20  24
BRANCH  22  26
ATOM     26  O   UNL     1       7.882   8.549  17.107  0.00  0.00    +0.000 OA
ATOM     27  H   UNL     1       8.830   8.732  17.227  0.00  0.00    +0.000 HD
ENDBRANCH  22  26
ENDBRANCH  17  18
BRANCH  17  28
ATOM     28  O   UNL     1       5.047   4.934  15.369  0.00  0.00    +0.000 OA
ATOM     29  H   UNL     1       5.676   5.593  15.036  0.00  0.00    +0.000 HD
ENDBRANCH  17  28
ENDBRANCH  16  17
ENDBRANCH   1  16
TORSDOF 12
ENDMDL
MODEL 6
REMARK VINA RESULT:      -6.7      1.069      2.146
REMARK  Name = 
REMARK  13 active torsions:
REMARK  status: ('A' for Active; 'I' for Inactive)
REMARK    1  A    between atoms: C_1  and  C_2
REMARK    2  A    between atoms: C_2  and  C_3
REMARK    3  A    between atoms: C_2  and  N_14
REMARK    4  A    between atoms: C_3  and  C_4
REMARK    5  A    between atoms: C_7  and  O_8
REMARK    6  A    between atoms: O_8  and  C_9
REMARK    7  A    between atoms: C_9  and  C_10
REMARK    8  A    between atoms: N_14  and  C_15
REMARK    9  A    between atoms: C_15  and  C_16
REMARK   10  A    between atoms: C_16  and  O_17
REMARK   11  A    between atoms: C_16  and  C_18
REMARK   12  A    between atoms: C_20  and  O_21
REMARK   13  A    between atoms: C_23  and  O_24
REMARK                            x       y       z     vdW  Elec       q    Type
REMARK                         _______ _______ _______ _____ _____    ______ ____
ROOT
ATOM      1  N   UNL     1       1.565   3.550  19.222  0.00  0.00    +0.000 NA
ATOM      2  H   UNL     1       1.323   4.010  18.343  0.00  0.00    +0.000 HD
ENDROOT
BRANCH   1   4
ATOM      3  C   UNL     1       2.105   3.854  21.649  0.00  0.00    +0.000 C 
ATOM      4  C   UNL     1       1.660   4.509  20.335  0.00  0.00    +0.000 C 
BRANCH   4   5
ATOM      5  C   UNL     1       2.648   5.658  19.996  0.00  0.00    +0.000 C 
BRANCH   5   6
ATOM      6  C   UNL     1       2.027   7.034  19.980  0.00  0.00    +0.000 A 
ATOM      7  C   UNL     1       1.335   7.500  21.101  0.00  0.00    +0.000 A 
ATOM      8  C   UNL     1       0.727   8.752  21.090  0.00  0.00    +0.000 A 
ATOM      9  C   UNL     1       0.814   9.574  19.965  0.00  0.00    +0.000 A 
ATOM     10  C   UNL     1       1.532   9.129  18.855  0.00  0.00    +0.000 A 
ATOM     11  C   UNL     1       2.137   7.866  18.859  0.00  0.00    +0.000 A 
BRANCH   9  12
ATOM     12  O   UNL     1       0.238  10.815  19.854  0.00  0.00    +0.000 OA
BRANCH  12  13
ATOM     13  C   UNL     1      -0.216  11.155  18.539  0.00  0.00    +0.000 C 
BRANCH  13  14
ATOM     14  C   UNL     1      -1.707  10.923  18.404  0.00  0.00    +0.000 C 
ATOM     15  F   UNL     1      -1.908   9.684  17.876  0.00  0.00    +0.000 F 
ENDBRANCH  13  14
ENDBRANCH  12  13
ENDBRANCH   9  12
ENDBRANCH   5   6
ENDBRANCH   4   5
ENDBRANCH   1   4
BRANCH   1  16
ATOM     16  C   UNL     1       2.781   2.749  19.045  0.00  0.00    +0.000 C 
BRANCH  16  17
ATOM     17  C   UNL     1       3.409   2.887  17.635  0.00  0.00    +0.000 C 
BRANCH  17  18
ATOM     18  C   UNL     1       4.471   3.976  17.635  0.00  0.00    +0.000 A 
ATOM     19  C   UNL     1       5.318   4.134  18.744  0.00  0.00    +0.000 A 
ATOM     20  C   UNL     1       6.235   5.185  18.780  0.00  0.00    +0.000 A 
ATOM     21  C   UNL     1       6.339   6.088  17.727  0.00  0.00    +0.000 A 
ATOM     22  C   UNL     1       5.512   5.927  16.625  0.00  0.00    +0.000 A 
ATOM     23  C   UNL     1       4.592   4.885  16.567  0.00  0.00    +0.000 A 
BRANCH  20  24
ATOM     24  O   UNL     1       7.050   5.379  19.856  0.00  0.00    +0.000 OA
ATOM     25  H   UNL     1       7.641   4.613  19.942  0.00  0.00    +0.000 HD
ENDBRANCH  20  24
BRANCH  22  26
ATOM     26  O   UNL     1       5.551   6.792  15.571  0.00  0.00    +0.000 OA
ATOM     27  H   UNL     1       6.146   6.424  14.895  0.00  0.00    +0.000 HD
ENDBRANCH  22  26
ENDBRANCH  17  18
BRANCH  17  28
ATOM     28  O   UNL     1       2.392   3.186  16.674  0.00  0.00    +0.000 OA
ATOM     29  H   UNL     1       2.806   3.670  15.944  0.00  0.00    +0.000 HD
ENDBRANCH  17  28
ENDBRANCH  16  17
ENDBRANCH   1  16
TORSDOF 12
ENDMDL
MODEL 7
REMARK VINA RESULT:      -6.7      0.977      1.463
REMARK  Name = 
REMARK  13 active torsions:
REMARK  status: ('A' for Active; 'I' for Inactive)
REMARK    1  A    between atoms: C_1  and  C_2
REMARK    2  A    between atoms: C_2  and  C_3
REMARK    3  A    between atoms: C_2  and  N_14
REMARK    4  A    between atoms: C_3  and  C_4
REMARK    5  A    between atoms: C_7  and  O_8
REMARK    6  A    between atoms: O_8  and  C_9
REMARK    7  A    between atoms: C_9  and  C_10
REMARK    8  A    between atoms: N_14  and  C_15
REMARK    9  A    between atoms: C_15  and  C_16
REMARK   10  A    between atoms: C_16  and  O_17
REMARK   11  A    between atoms: C_16  and  C_18
REMARK   12  A    between atoms: C_20  and  O_21
REMARK   13  A    between atoms: C_23  and  O_24
REMARK                            x       y       z     vdW  Elec       q    Type
REMARK                         _______ _______ _______ _____ _____    ______ ____
ROOT
ATOM      1  N   UNL     1       1.607   3.486  19.254  0.00  0.00    +0.000 NA
ATOM      2  H   UNL     1       1.386   4.071  18.447  0.00  0.00    +0.000 HD
ENDROOT
BRANCH   1   4
ATOM      3  C   UNL     1       1.780   3.374  21.750  0.00  0.00    +0.000 C 
ATOM      4  C   UNL     1       1.599   4.257  20.509  0.00  0.00    +0.000 C 
BRANCH   4   5
ATOM      5  C   UNL     1       2.714   5.337  20.504  0.00  0.00    +0.000 C 
BRANCH   5   6
ATOM      6  C   UNL     1       2.308   6.655  19.888  0.00  0.00    +0.000 A 
ATOM      7  C   UNL     1       1.662   7.619  20.667  0.00  0.00    +0.000 A 
ATOM      8  C   UNL     1       1.249   8.824  20.106  0.00  0.00    +0.000 A 
ATOM      9  C   UNL     1       1.491   9.100  18.760  0.00  0.00    +0.000 A 
ATOM     10  C   UNL     1       2.165   8.156  17.984  0.00  0.00    +0.000 A 
ATOM     11  C   UNL     1       2.573   6.939  18.543  0.00  0.00    +0.000 A 
BRANCH   9  12
ATOM     12  O   UNL     1       1.111  10.251  18.114  0.00  0.00    +0.000 OA
BRANCH  12  13
ATOM     13  C   UNL     1       0.723  11.327  18.973  0.00  0.00    +0.000 C 
BRANCH  13  14
ATOM     14  C   UNL     1       1.797  12.394  19.024  0.00  0.00    +0.000 C 
ATOM     15  F   UNL     1       1.331  13.446  19.754  0.00  0.00    +0.000 F 
ENDBRANCH  13  14
ENDBRANCH  12  13
ENDBRANCH   9  12
ENDBRANCH   5   6
ENDBRANCH   4   5
ENDBRANCH   1   4
BRANCH   1  16
ATOM     16  C   UNL     1       2.869   2.775  19.021  0.00  0.00    +0.000 C 
BRANCH  16  17
ATOM     17  C   UNL     1       3.412   2.941  17.580  0.00  0.00    +0.000 C 
BRANCH  17  18
ATOM     18  C   UNL     1       4.570   3.926  17.562  0.00  0.00    +0.000 A 
ATOM     19  C   UNL     1       5.016   4.467  16.345  0.00  0.00    +0.000 A 
ATOM     20  C   UNL     1       6.131   5.306  16.320  0.00  0.00    +0.000 A 
ATOM     21  C   UNL     1       6.816   5.630  17.485  0.00  0.00    +0.000 A 
ATOM     22  C   UNL     1       6.371   5.107  18.691  0.00  0.00    +0.000 A 
ATOM     23  C   UNL     1       5.259   4.271  18.740  0.00  0.00    +0.000 A 
BRANCH  20  24
ATOM     24  O   UNL     1       6.603   5.823  15.149  0.00  0.00    +0.000 OA
ATOM     25  H   UNL     1       6.987   5.102  14.623  0.00  0.00    +0.000 HD
ENDBRANCH  20  24
BRANCH  22  26
ATOM     26  O   UNL     1       7.013   5.371  19.864  0.00  0.00    +0.000 OA
ATOM     27  H   UNL     1       6.965   4.578  20.425  0.00  0.00    +0.000 HD
ENDBRANCH  22  26
ENDBRANCH  17  18
BRANCH  17  28
ATOM     28  O   UNL     1       2.366   3.388  16.712  0.00  0.00    +0.000 OA
ATOM     29  H   UNL     1       1.967   4.177  17.111  0.00  0.00    +0.000 HD
ENDBRANCH  17  28
ENDBRANCH  16  17
ENDBRANCH   1  16
TORSDOF 12
ENDMDL
MODEL 8
REMARK VINA RESULT:      -6.6      1.671      2.243
REMARK  Name = 
REMARK  13 active torsions:
REMARK  status: ('A' for Active; 'I' for Inactive)
REMARK    1  A    between atoms: C_1  and  C_2
REMARK    2  A    between atoms: C_2  and  C_3
REMARK    3  A    between atoms: C_2  and  N_14
REMARK    4  A    between atoms: C_3  and  C_4
REMARK    5  A    between atoms: C_7  and  O_8
REMARK    6  A    between atoms: O_8  and  C_9
REMARK    7  A    between atoms: C_9  and  C_10
REMARK    8  A    between atoms: N_14  and  C_15
REMARK    9  A    between atoms: C_15  and  C_16
REMARK   10  A    between atoms: C_16  and  O_17
REMARK   11  A    between atoms: C_16  and  C_18
REMARK   12  A    between atoms: C_20  and  O_21
REMARK   13  A    between atoms: C_23  and  O_24
REMARK                            x       y       z     vdW  Elec       q    Type
REMARK                         _______ _______ _______ _____ _____    ______ ____
ROOT
ATOM      1  N   UNL     1       3.406   3.465  17.476  0.00  0.00    +0.000 NA
ATOM      2  H   UNL     1       2.969   2.692  16.974  0.00  0.00    +0.000 HD
ENDROOT
BRANCH   1   4
ATOM      3  C   UNL     1       1.486   3.397  19.082  0.00  0.00    +0.000 C 
ATOM      4  C   UNL     1       2.420   4.261  18.225  0.00  0.00    +0.000 C 
BRANCH   4   5
ATOM      5  C   UNL     1       3.123   5.293  19.148  0.00  0.00    +0.000 C 
BRANCH   5   6
ATOM      6  C   UNL     1       2.548   6.687  19.081  0.00  0.00    +0.000 A 
ATOM      7  C   UNL     1       2.015   7.277  20.231  0.00  0.00    +0.000 A 
ATOM      8  C   UNL     1       1.450   8.548  20.179  0.00  0.00    +0.000 A 
ATOM      9  C   UNL     1       1.421   9.265  18.981  0.00  0.00    +0.000 A 
ATOM     10  C   UNL     1       1.981   8.695  17.837  0.00  0.00    +0.000 A 
ATOM     11  C   UNL     1       2.543   7.413  17.884  0.00  0.00    +0.000 A 
BRANCH   9  12
ATOM     12  O   UNL     1       0.875  10.514  18.827  0.00  0.00    +0.000 OA
BRANCH  12  13
ATOM     13  C   UNL     1       1.006  11.377  19.962  0.00  0.00    +0.000 C 
BRANCH  13  14
ATOM     14  C   UNL     1      -0.351  11.847  20.444  0.00  0.00    +0.000 C 
ATOM     15  F   UNL     1      -1.076  10.760  20.830  0.00  0.00    +0.000 F 
ENDBRANCH  13  14
ENDBRANCH  12  13
ENDBRANCH   9  12
ENDBRANCH   5   6
ENDBRANCH   4   5
ENDBRANCH   1   4
BRANCH   1  16
ATOM     16  C   UNL     1       4.211   4.268  16.549  0.00  0.00    +0.000 C 
BRANCH  16  17
ATOM     17  C   UNL     1       5.723   3.932  16.596  0.00  0.00    +0.000 C 
BRANCH  17  18
ATOM     18  C   UNL     1       6.472   4.984  17.400  0.00  0.00    +0.000 A 
ATOM     19  C   UNL     1       6.757   6.236  16.829  0.00  0.00    +0.000 A 
ATOM     20  C   UNL     1       7.516   7.169  17.535  0.00  0.00    +0.000 A 
ATOM     21  C   UNL     1       7.998   6.892  18.810  0.00  0.00    +0.000 A 
ATOM     22  C   UNL     1       7.709   5.661  19.381  0.00  0.00    +0.000 A 
ATOM     23  C   UNL     1       6.951   4.716  18.696  0.00  0.00    +0.000 A 
BRANCH  20  24
ATOM     24  O   UNL     1       7.832   8.381  16.994  0.00  0.00    +0.000 OA
ATOM     25  H   UNL     1       8.746   8.602  17.237  0.00  0.00    +0.000 HD
ENDBRANCH  20  24
BRANCH  22  26
ATOM     26  O   UNL     1       8.170   5.322  20.618  0.00  0.00    +0.000 OA
ATOM     27  H   UNL     1       7.797   5.945  21.266  0.00  0.00    +0.000 HD
ENDBRANCH  22  26
ENDBRANCH  17  18
BRANCH  17  28
ATOM     28  O   UNL     1       6.249   3.856  15.267  0.00  0.00    +0.000 OA
ATOM     29  H   UNL     1       7.143   3.486  15.323  0.00  0.00    +0.000 HD
ENDBRANCH  17  28
ENDBRANCH  16  17
ENDBRANCH   1  16
TORSDOF 12
ENDMDL
MODEL 9
REMARK VINA RESULT:      -6.6      1.552      1.702
REMARK  Name = 
REMARK  13 active torsions:
REMARK  status: ('A' for Active; 'I' for Inactive)
REMARK    1  A    between atoms: C_1  and  C_2
REMARK    2  A    between atoms: C_2  and  C_3
REMARK    3  A    between atoms: C_2  and  N_14
REMARK    4  A    between atoms: C_3  and  C_4
REMARK    5  A    between atoms: C_7  and  O_8
REMARK    6  A    between atoms: O_8  and  C_9
REMARK    7  A    between atoms: C_9  and  C_10
REMARK    8  A    between atoms: N_14  and  C_15
REMARK    9  A    between atoms: C_15  and  C_16
REMARK   10  A    between atoms: C_16  and  O_17
REMARK   11  A    between atoms: C_16  and  C_18
REMARK   12  A    between atoms: C_20  and  O_21
REMARK   13  A    between atoms: C_23  and  O_24
REMARK                            x       y       z     vdW  Elec       q    Type
REMARK                         _______ _______ _______ _____ _____    ______ ____
ROOT
ATOM      1  N   UNL     1       2.847   3.024  19.419  0.00  0.00    +0.000 NA
ATOM      2  H   UNL     1       2.771   2.586  18.501  0.00  0.00    +0.000 HD
ENDROOT
BRANCH   1   4
ATOM      3  C   UNL     1       0.687   3.872  20.362  0.00  0.00    +0.000 C 
ATOM      4  C   UNL     1       1.950   4.184  19.549  0.00  0.00    +0.000 C 
BRANCH   4   5
ATOM      5  C   UNL     1       2.682   5.381  20.214  0.00  0.00    +0.000 C 
BRANCH   5   6
ATOM      6  C   UNL     1       2.283   6.736  19.678  0.00  0.00    +0.000 A 
ATOM      7  C   UNL     1       2.565   7.070  18.350  0.00  0.00    +0.000 A 
ATOM      8  C   UNL     1       2.237   8.327  17.850  0.00  0.00    +0.000 A 
ATOM      9  C   UNL     1       1.602   9.270  18.660  0.00  0.00    +0.000 A 
ATOM     10  C   UNL     1       1.288   8.931  19.977  0.00  0.00    +0.000 A 
ATOM     11  C   UNL     1       1.625   7.670  20.486  0.00  0.00    +0.000 A 
BRANCH   9  12
ATOM     12  O   UNL     1       1.252  10.536  18.264  0.00  0.00    +0.000 OA
BRANCH  12  13
ATOM     13  C   UNL     1       1.199  11.507  19.315  0.00  0.00    +0.000 C 
BRANCH  13  14
ATOM     14  C   UNL     1       1.878  12.795  18.897  0.00  0.00    +0.000 C 
ATOM     15  F   UNL     1       2.908  12.492  18.059  0.00  0.00    +0.000 F 
ENDBRANCH  13  14
ENDBRANCH  12  13
ENDBRANCH   9  12
ENDBRANCH   5   6
ENDBRANCH   4   5
ENDBRANCH   1   4
BRANCH   1  16
ATOM     16  C   UNL     1       4.251   3.345  19.702  0.00  0.00    +0.000 C 
BRANCH  16  17
ATOM     17  C   UNL     1       5.177   3.196  18.469  0.00  0.00    +0.000 C 
BRANCH  17  18
ATOM     18  C   UNL     1       5.688   4.558  18.026  0.00  0.00    +0.000 A 
ATOM     19  C   UNL     1       5.152   5.174  16.884  0.00  0.00    +0.000 A 
ATOM     20  C   UNL     1       5.679   6.384  16.429  0.00  0.00    +0.000 A 
ATOM     21  C   UNL     1       6.730   7.007  17.092  0.00  0.00    +0.000 A 
ATOM     22  C   UNL     1       7.254   6.407  18.228  0.00  0.00    +0.000 A 
ATOM     23  C   UNL     1       6.742   5.202  18.701  0.00  0.00    +0.000 A 
BRANCH  20  24
ATOM     24  O   UNL     1       5.196   6.990  15.306  0.00  0.00    +0.000 OA
ATOM     25  H   UNL     1       5.323   6.393  14.551  0.00  0.00    +0.000 HD
ENDBRANCH  20  24
BRANCH  22  26
ATOM     26  O   UNL     1       8.299   6.959  18.909  0.00  0.00    +0.000 OA
ATOM     27  H   UNL     1       8.310   6.585  19.808  0.00  0.00    +0.000 HD
ENDBRANCH  22  26
ENDBRANCH  17  18
BRANCH  17  28
ATOM     28  O   UNL     1       4.469   2.560  17.400  0.00  0.00    +0.000 OA
ATOM     29  H   UNL     1       4.832   2.892  16.565  0.00  0.00    +0.000 HD
ENDBRANCH  17  28
ENDBRANCH  16  17
ENDBRANCH   1  16
TORSDOF 12
ENDMDL
