MODEL 1
REMARK VINA RESULT:      -9.1      0.000      0.000
REMARK  Name = 
REMARK  12 active torsions:
REMARK  status: ('A' for Active; 'I' for Inactive)
REMARK    1  A    between atoms: C_2  and  C_15
REMARK    2  A    between atoms: N_3  and  CA_4
REMARK    3  A    between atoms: CA_4  and  CB_5
REMARK    4  A    between atoms: CA_4  and  C_12
REMARK    5  A    between atoms: CB_5  and  CG_6
REMARK    6  A    between atoms: C_12  and  OXT_14
REMARK    7  A    between atoms: C_18  and  C_19
REMARK    8  A    between atoms: C_19  and  N_20
REMARK    9  A    between atoms: N_20  and  C_21
REMARK   10  A    between atoms: N_20  and  C_28
REMARK   11  A    between atoms: C_21  and  C_22
REMARK   12  A    between atoms: C_28  and  C_29
REMARK                            x       y       z     vdW  Elec       q    Type
REMARK                         _______ _______ _______ _____ _____    ______ ____
ROOT
ATOM      1  C   UNK A   0       1.471   8.875  19.315  0.00  0.00    +0.000 A 
ATOM      2  C   UNK A   0       1.541   7.896  20.313  0.00  0.00    +0.000 A 
ATOM      3  C   UNK A   0       2.250   6.706  20.070  0.00  0.00    +0.000 A 
ATOM      4  C   UNK A   0       2.888   6.496  18.837  0.00  0.00    +0.000 A 
ATOM      5  C   UNK A   0       2.681   7.419  17.802  0.00  0.00    +0.000 A 
ATOM      6  C   UNK A   0       1.984   8.601  18.042  0.00  0.00    +0.000 A 
ENDROOT
BRANCH   1   8
ATOM      7  O   UNK A   0       0.931  10.653  20.744  0.00  0.00    +0.000 OA
ATOM      8  C   UNK A   0       1.074  10.283  19.580  0.00  0.00    +0.000 C 
ATOM      9  N   PHE A   1       0.835  11.117  18.513  0.00  0.00    +0.000 N 
ATOM     10  H   PHE A   1       1.236  10.889  17.607  0.00  0.00    +0.000 HD
BRANCH   9  11
ATOM     11  CA  PHE A   1       0.509  12.526  18.751  0.00  0.00    +0.000 C 
BRANCH  11  12
ATOM     12  C   PHE A   1       1.724  13.410  18.470  0.00  0.00    +0.000 C 
ATOM     13  O   PHE A   1       2.019  14.405  19.124  0.00  0.00    +0.000 OA
BRANCH  12  14
ATOM     14  OXT PHE A   1       2.469  13.003  17.413  0.00  0.00    +0.000 OA
ATOM     15  HXT PHE A   1       3.334  13.450  17.329  0.00  0.00    +0.000 HD
ENDBRANCH  12  14
ENDBRANCH  11  12
BRANCH  11  16
ATOM     16  CB  PHE A   1      -0.754  12.981  18.012  0.00  0.00    +0.000 C 
BRANCH  16  17
ATOM     17  CG  PHE A   1      -1.859  11.968  17.858  0.00  0.00    +0.000 A 
ATOM     18  CD1 PHE A   1      -1.719  10.892  16.971  0.00  0.00    +0.000 A 
ATOM     19  CE1 PHE A   1      -2.694   9.894  16.910  0.00  0.00    +0.000 A 
ATOM     20  CZ  PHE A   1      -3.821   9.968  17.725  0.00  0.00    +0.000 A 
ATOM     21  CE2 PHE A   1      -3.987  11.051  18.586  0.00  0.00    +0.000 A 
ATOM     22  CD2 PHE A   1      -3.014  12.048  18.650  0.00  0.00    +0.000 A 
ENDBRANCH  16  17
ENDBRANCH  11  16
ENDBRANCH   9  11
ENDBRANCH   1   8
BRANCH   4  23
ATOM     23  C   UNK A   0       3.967   5.442  18.658  0.00  0.00    +0.000 C 
BRANCH  23  24
ATOM     24  N   UNK A   0       3.964   4.644  17.412  0.00  0.00    +0.000 NA
BRANCH  24  25
ATOM     25  C   UNK A   0       5.301   4.739  16.770  0.00  0.00    +0.000 C 
BRANCH  25  26
ATOM     26  C   UNK A   0       6.312   5.661  17.433  0.00  0.00    +0.000 A 
ATOM     27  C   UNK A   0       7.139   5.242  18.485  0.00  0.00    +0.000 A 
ATOM     28  C   UNK A   0       8.095   6.106  19.025  0.00  0.00    +0.000 A 
ATOM     29  C   UNK A   0       8.256   7.390  18.506  0.00  0.00    +0.000 A 
ATOM     30  C   UNK A   0       7.458   7.815  17.450  0.00  0.00    +0.000 A 
ATOM     31  C   UNK A   0       6.494   6.956  16.915  0.00  0.00    +0.000 A 
ENDBRANCH  25  26
ENDBRANCH  24  25
BRANCH  24  32
ATOM     32  C   UNK A   0       3.699   3.223  17.772  0.00  0.00    +0.000 C 
BRANCH  32  33
ATOM     33  C   UNK A   0       2.863   3.003  19.021  0.00  0.00    +0.000 A 
ATOM     34  C   UNK A   0       3.462   2.708  20.251  0.00  0.00    +0.000 A 
ATOM     35  C   UNK A   0       2.687   2.592  21.410  0.00  0.00    +0.000 A 
ATOM     36  C   UNK A   0       1.306   2.769  21.354  0.00  0.00    +0.000 A 
ATOM     37  C   UNK A   0       0.691   3.045  20.132  0.00  0.00    +0.000 A 
ATOM     38  C   UNK A   0       1.465   3.158  18.974  0.00  0.00    +0.000 A 
ENDBRANCH  32  33
ENDBRANCH  24  32
ENDBRANCH  23  24
ENDBRANCH   4  23
TORSDOF 12
ENDMDL
MODEL 2
REMARK VINA RESULT:      -9.0      2.962      9.296
REMARK  Name = 
REMARK  12 active torsions:
REMARK  status: ('A' for Active; 'I' for Inactive)
REMARK    1  A    between atoms: C_2  and  C_15
REMARK    2  A    between atoms: N_3  and  CA_4
REMARK    3  A    between atoms: CA_4  and  CB_5
REMARK    4  A    between atoms: CA_4  and  C_12
REMARK    5  A    between atoms: CB_5  and  CG_6
REMARK    6  A    between atoms: C_12  and  OXT_14
REMARK    7  A    between atoms: C_18  and  C_19
REMARK    8  A    between atoms: C_19  and  N_20
REMARK    9  A    between atoms: N_20  and  C_21
REMARK   10  A    between atoms: N_20  and  C_28
REMARK   11  A    between atoms: C_21  and  C_22
REMARK   12  A    between atoms: C_28  and  C_29
REMARK                            x       y       z     vdW  Elec       q    Type
REMARK                         _______ _______ _______ _____ _____    ______ ____
ROOT
ATOM      1  C   UNK A   0       2.588   7.435  18.446  0.00  0.00    +0.000 A 
ATOM      2  C   UNK A   0       2.242   8.476  17.576  0.00  0.00    +0.000 A 
ATOM      3  C   UNK A   0       1.529   9.583  18.067  0.00  0.00    +0.000 A 
ATOM      4  C   UNK A   0       1.164   9.652  19.421  0.00  0.00    +0.000 A 
ATOM      5  C   UNK A   0       1.388   8.536  20.240  0.00  0.00    +0.000 A 
ATOM      6  C   UNK A   0       2.100   7.441  19.758  0.00  0.00    +0.000 A 
ENDROOT
BRANCH   1   8
ATOM      7  O   UNK A   0       3.750   6.032  16.971  0.00  0.00    +0.000 OA
ATOM      8  C   UNK A   0       3.628   6.420  18.131  0.00  0.00    +0.000 C 
ATOM      9  N   PHE A   1       4.392   5.913  19.156  0.00  0.00    +0.000 N 
ATOM     10  H   PHE A   1       4.480   6.444  20.017  0.00  0.00    +0.000 HD
BRANCH   9  11
ATOM     11  CA  PHE A   1       5.468   4.962  18.858  0.00  0.00    +0.000 C 
BRANCH  11  12
ATOM     12  C   PHE A   1       6.820   5.537  19.278  0.00  0.00    +0.000 C 
ATOM     13  O   PHE A   1       7.407   5.235  20.311  0.00  0.00    +0.000 OA
BRANCH  12  14
ATOM     14  OXT PHE A   1       7.334   6.435  18.401  0.00  0.00    +0.000 OA
ATOM     15  HXT PHE A   1       7.537   6.069  17.518  0.00  0.00    +0.000 HD
ENDBRANCH  12  14
ENDBRANCH  11  12
BRANCH  11  16
ATOM     16  CB  PHE A   1       5.203   3.563  19.424  0.00  0.00    +0.000 C 
BRANCH  16  17
ATOM     17  CG  PHE A   1       3.778   3.072  19.397  0.00  0.00    +0.000 A 
ATOM     18  CD1 PHE A   1       3.006   3.060  20.566  0.00  0.00    +0.000 A 
ATOM     19  CE1 PHE A   1       1.655   2.712  20.520  0.00  0.00    +0.000 A 
ATOM     20  CZ  PHE A   1       1.067   2.360  19.306  0.00  0.00    +0.000 A 
ATOM     21  CE2 PHE A   1       1.832   2.335  18.143  0.00  0.00    +0.000 A 
ATOM     22  CD2 PHE A   1       3.182   2.685  18.187  0.00  0.00    +0.000 A 
ENDBRANCH  16  17
ENDBRANCH  11  16
ENDBRANCH   9  11
ENDBRANCH   1   8
BRANCH   4  23
ATOM     23  C   UNK A   0       0.753  10.959  20.079  0.00  0.00    +0.000 C 
BRANCH  23  24
ATOM     24  N   UNK A   0      -0.353  11.729  19.469  0.00  0.00    +0.000 NA
BRANCH  24  25
ATOM     25  C   UNK A   0      -1.570  10.879  19.420  0.00  0.00    +0.000 C 
BRANCH  25  26
ATOM     26  C   UNK A   0      -2.298  10.806  18.088  0.00  0.00    +0.000 A 
ATOM     27  C   UNK A   0      -1.879   9.969  17.043  0.00  0.00    +0.000 A 
ATOM     28  C   UNK A   0      -2.612   9.889  15.857  0.00  0.00    +0.000 A 
ATOM     29  C   UNK A   0      -3.787  10.625  15.706  0.00  0.00    +0.000 A 
ATOM     30  C   UNK A   0      -4.228  11.444  16.739  0.00  0.00    +0.000 A 
ATOM     31  C   UNK A   0      -3.491  11.533  17.923  0.00  0.00    +0.000 A 
ENDBRANCH  25  26
ENDBRANCH  24  25
BRANCH  24  32
ATOM     32  C   UNK A   0      -0.623  12.914  20.332  0.00  0.00    +0.000 C 
BRANCH  32  33
ATOM     33  C   UNK A   0      -1.775  12.768  21.311  0.00  0.00    +0.000 A 
ATOM     34  C   UNK A   0      -1.620  12.070  22.514  0.00  0.00    +0.000 A 
ATOM     35  C   UNK A   0      -2.663  12.015  23.445  0.00  0.00    +0.000 A 
ATOM     36  C   UNK A   0      -3.872  12.657  23.185  0.00  0.00    +0.000 A 
ATOM     37  C   UNK A   0      -4.050  13.342  21.982  0.00  0.00    +0.000 A 
ATOM     38  C   UNK A   0      -3.009  13.393  21.051  0.00  0.00    +0.000 A 
ENDBRANCH  32  33
ENDBRANCH  24  32
ENDBRANCH  23  24
ENDBRANCH   4  23
TORSDOF 12
ENDMDL
MODEL 3
REMARK VINA RESULT:      -9.0      1.998      2.809
REMARK  Name = 
REMARK  12 active torsions:
REMARK  status: ('A' for Active; 'I' for Inactive)
REMARK    1  A    between atoms: C_2  and  C_15
REMARK    2  A    between atoms: N_3  and  CA_4
REMARK    3  A    between atoms: CA_4  and  CB_5
REMARK    4  A    between atoms: CA_4  and  C_12
REMARK    5  A    between atoms: CB_5  and  CG_6
REMARK    6  A    between atoms: C_12  and  OXT_14
REMARK    7  A    between atoms: C_18  and  C_19
REMARK    8  A    between atoms: C_19  and  N_20
REMARK    9  A    between atoms: N_20  and  C_21
REMARK   10  A    between atoms: N_20  and  C_28
REMARK   11  A    between atoms: C_21  and  C_22
REMARK   12  A    between atoms: C_28  and  C_29
REMARK                            x       y       z     vdW  Elec       q    Type
REMARK                         _______ _______ _______ _____ _____    ______ ____
ROOT
ATOM      1  C   UNK A   0       1.097   9.233  19.487  0.00  0.00    +0.000 A 
ATOM      2  C   UNK A   0       1.318   8.234  20.443  0.00  0.00    +0.000 A 
ATOM      3  C   UNK A   0       2.104   7.117  20.110  0.00  0.00    +0.000 A 
ATOM      4  C   UNK A   0       2.669   6.999  18.829  0.00  0.00    +0.000 A 
ATOM      5  C   UNK A   0       2.313   7.932  17.845  0.00  0.00    +0.000 A 
ATOM      6  C   UNK A   0       1.540   9.042  18.173  0.00  0.00    +0.000 A 
ENDROOT
BRANCH   1   8
ATOM      7  O   UNK A   0       1.311  11.327  20.519  0.00  0.00    +0.000 OA
ATOM      8  C   UNK A   0       0.605  10.593  19.829  0.00  0.00    +0.000 C 
ATOM      9  N   PHE A   1      -0.645  10.974  19.400  0.00  0.00    +0.000 N 
ATOM     10  H   PHE A   1      -1.066  10.492  18.611  0.00  0.00    +0.000 HD
BRANCH   9  11
ATOM     11  CA  PHE A   1      -1.122  12.335  19.667  0.00  0.00    +0.000 C 
BRANCH  11  12
ATOM     12  C   PHE A   1      -0.645  13.292  18.574  0.00  0.00    +0.000 C 
ATOM     13  O   PHE A   1      -0.030  14.330  18.788  0.00  0.00    +0.000 OA
BRANCH  12  14
ATOM     14  OXT PHE A   1      -0.968  12.898  17.318  0.00  0.00    +0.000 OA
ATOM     15  HXT PHE A   1      -1.235  13.623  16.721  0.00  0.00    +0.000 HD
ENDBRANCH  12  14
ENDBRANCH  11  12
BRANCH  11  16
ATOM     16  CB  PHE A   1      -2.633  12.401  19.914  0.00  0.00    +0.000 C 
BRANCH  16  17
ATOM     17  CG  PHE A   1      -3.084  12.839  21.284  0.00  0.00    +0.000 A 
ATOM     18  CD1 PHE A   1      -4.057  13.837  21.428  0.00  0.00    +0.000 A 
ATOM     19  CE1 PHE A   1      -4.555  14.164  22.690  0.00  0.00    +0.000 A 
ATOM     20  CZ  PHE A   1      -4.078  13.504  23.821  0.00  0.00    +0.000 A 
ATOM     21  CE2 PHE A   1      -3.087  12.533  23.693  0.00  0.00    +0.000 A 
ATOM     22  CD2 PHE A   1      -2.589  12.204  22.432  0.00  0.00    +0.000 A 
ENDBRANCH  16  17
ENDBRANCH  11  16
ENDBRANCH   9  11
ENDBRANCH   1   8
BRANCH   4  23
ATOM     23  C   UNK A   0       3.816   6.045  18.539  0.00  0.00    +0.000 C 
BRANCH  23  24
ATOM     24  N   UNK A   0       3.733   5.202  17.326  0.00  0.00    +0.000 NA
BRANCH  24  25
ATOM     25  C   UNK A   0       4.960   5.397  16.513  0.00  0.00    +0.000 C 
BRANCH  25  26
ATOM     26  C   UNK A   0       6.153   6.025  17.218  0.00  0.00    +0.000 A 
ATOM     27  C   UNK A   0       6.571   7.341  16.967  0.00  0.00    +0.000 A 
ATOM     28  C   UNK A   0       7.635   7.897  17.681  0.00  0.00    +0.000 A 
ATOM     29  C   UNK A   0       8.281   7.157  18.671  0.00  0.00    +0.000 A 
ATOM     30  C   UNK A   0       7.866   5.859  18.946  0.00  0.00    +0.000 A 
ATOM     31  C   UNK A   0       6.808   5.297  18.226  0.00  0.00    +0.000 A 
ENDBRANCH  25  26
ENDBRANCH  24  25
BRANCH  24  32
ATOM     32  C   UNK A   0       3.658   3.778  17.757  0.00  0.00    +0.000 C 
BRANCH  32  33
ATOM     33  C   UNK A   0       2.809   3.503  18.987  0.00  0.00    +0.000 A 
ATOM     34  C   UNK A   0       1.412   3.544  18.927  0.00  0.00    +0.000 A 
ATOM     35  C   UNK A   0       0.642   3.206  20.044  0.00  0.00    +0.000 A 
ATOM     36  C   UNK A   0       1.258   2.823  21.234  0.00  0.00    +0.000 A 
ATOM     37  C   UNK A   0       2.651   2.795  21.316  0.00  0.00    +0.000 A 
ATOM     38  C   UNK A   0       3.420   3.136  20.201  0.00  0.00    +0.000 A 
ENDBRANCH  32  33
ENDBRANCH  24  32
ENDBRANCH  23  24
ENDBRANCH   4  23
TORSDOF 12
ENDMDL
MODEL 4
REMARK VINA RESULT:      -8.9      2.662      9.702
REMARK  Name = 
REMARK  12 active torsions:
REMARK  status: ('A' for Active; 'I' for Inactive)
REMARK    1  A    between atoms: C_2  and  C_15
REMARK    2  A    between atoms: N_3  and  CA_4
REMARK    3  A    between atoms: CA_4  and  CB_5
REMARK    4  A    between atoms: CA_4  and  C_12
REMARK    5  A    between atoms: CB_5  and  CG_6
REMARK    6  A    between atoms: C_12  and  OXT_14
REMARK    7  A    between atoms: C_18  and  C_19
REMARK    8  A    between atoms: C_19  and  N_20
REMARK    9  A    between atoms: N_20  and  C_21
REMARK   10  A    between atoms: N_20  and  C_28
REMARK   11  A    between atoms: C_21  and  C_22
REMARK   12  A    between atoms: C_28  and  C_29
REMARK                            x       y       z     vdW  Elec       q    Type
REMARK                         _______ _______ _______ _____ _____    ______ ____
ROOT
ATOM      1  C   UNK A   0       2.589   7.715  18.406  0.00  0.00    +0.000 A 
ATOM      2  C   UNK A   0       2.298   8.826  17.605  0.00  0.00    +0.000 A 
ATOM      3  C   UNK A   0       1.587   9.909  18.152  0.00  0.00    +0.000 A 
ATOM      4  C   UNK A   0       1.171   9.884  19.493  0.00  0.00    +0.000 A 
ATOM      5  C   UNK A   0       1.341   8.704  20.232  0.00  0.00    +0.000 A 
ATOM      6  C   UNK A   0       2.049   7.633  19.695  0.00  0.00    +0.000 A 
ENDROOT
BRANCH   1   8
ATOM      7  O   UNK A   0       4.056   6.672  16.904  0.00  0.00    +0.000 OA
ATOM      8  C   UNK A   0       3.619   6.704  18.054  0.00  0.00    +0.000 C 
ATOM      9  N   PHE A   1       4.022   5.804  19.013  0.00  0.00    +0.000 N 
ATOM     10  H   PHE A   1       3.882   6.031  19.994  0.00  0.00    +0.000 HD
BRANCH   9  11
ATOM     11  CA  PHE A   1       5.086   4.843  18.708  0.00  0.00    +0.000 C 
BRANCH  11  12
ATOM     12  C   PHE A   1       6.450   5.417  19.090  0.00  0.00    +0.000 C 
ATOM     13  O   PHE A   1       7.038   5.158  20.134  0.00  0.00    +0.000 OA
BRANCH  12  14
ATOM     14  OXT PHE A   1       6.973   6.258  18.165  0.00  0.00    +0.000 OA
ATOM     15  HXT PHE A   1       7.439   7.032  18.537  0.00  0.00    +0.000 HD
ENDBRANCH  12  14
ENDBRANCH  11  12
BRANCH  11  16
ATOM     16  CB  PHE A   1       4.825   3.454  19.300  0.00  0.00    +0.000 C 
BRANCH  16  17
ATOM     17  CG  PHE A   1       3.386   3.057  19.507  0.00  0.00    +0.000 A 
ATOM     18  CD1 PHE A   1       2.822   3.065  20.789  0.00  0.00    +0.000 A 
ATOM     19  CE1 PHE A   1       1.462   2.805  20.966  0.00  0.00    +0.000 A 
ATOM     20  CZ  PHE A   1       0.656   2.524  19.865  0.00  0.00    +0.000 A 
ATOM     21  CE2 PHE A   1       1.212   2.480  18.589  0.00  0.00    +0.000 A 
ATOM     22  CD2 PHE A   1       2.571   2.741  18.409  0.00  0.00    +0.000 A 
ENDBRANCH  16  17
ENDBRANCH  11  16
ENDBRANCH   9  11
ENDBRANCH   1   8
BRANCH   4  23
ATOM     23  C   UNK A   0       0.761  11.146  20.233  0.00  0.00    +0.000 C 
BRANCH  23  24
ATOM     24  N   UNK A   0      -0.234  12.037  19.594  0.00  0.00    +0.000 NA
BRANCH  24  25
ATOM     25  C   UNK A   0      -1.580  11.418  19.701  0.00  0.00    +0.000 C 
BRANCH  25  26
ATOM     26  C   UNK A   0      -2.306  11.136  18.395  0.00  0.00    +0.000 A 
ATOM     27  C   UNK A   0      -1.829  10.214  17.450  0.00  0.00    +0.000 A 
ATOM     28  C   UNK A   0      -2.559   9.942  16.291  0.00  0.00    +0.000 A 
ATOM     29  C   UNK A   0      -3.786  10.567  16.069  0.00  0.00    +0.000 A 
ATOM     30  C   UNK A   0      -4.283  11.468  17.004  0.00  0.00    +0.000 A 
ATOM     31  C   UNK A   0      -3.550  11.749  18.160  0.00  0.00    +0.000 A 
ENDBRANCH  25  26
ENDBRANCH  24  25
BRANCH  24  32
ATOM     32  C   UNK A   0      -0.236  13.332  20.331  0.00  0.00    +0.000 C 
BRANCH  32  33
ATOM     33  C   UNK A   0       0.281  14.532  19.558  0.00  0.00    +0.000 A 
ATOM     34  C   UNK A   0      -0.585  15.539  19.117  0.00  0.00    +0.000 A 
ATOM     35  C   UNK A   0      -0.085  16.680  18.480  0.00  0.00    +0.000 A 
ATOM     36  C   UNK A   0       1.286  16.829  18.277  0.00  0.00    +0.000 A 
ATOM     37  C   UNK A   0       2.162  15.825  18.694  0.00  0.00    +0.000 A 
ATOM     38  C   UNK A   0       1.662  14.684  19.326  0.00  0.00    +0.000 A 
ENDBRANCH  32  33
ENDBRANCH  24  32
ENDBRANCH  23  24
ENDBRANCH   4  23
TORSDOF 12
ENDMDL
MODEL 5
REMARK VINA RESULT:      -8.9      3.479      9.696
REMARK  Name = 
REMARK  12 active torsions:
REMARK  status: ('A' for Active; 'I' for Inactive)
REMARK    1  A    between atoms: C_2  and  C_15
REMARK    2  A    between atoms: N_3  and  CA_4
REMARK    3  A    between atoms: CA_4  and  CB_5
REMARK    4  A    between atoms: CA_4  and  C_12
REMARK    5  A    between atoms: CB_5  and  CG_6
REMARK    6  A    between atoms: C_12  and  OXT_14
REMARK    7  A    between atoms: C_18  and  C_19
REMARK    8  A    between atoms: C_19  and  N_20
REMARK    9  A    between atoms: N_20  and  C_21
REMARK   10  A    between atoms: N_20  and  C_28
REMARK   11  A    between atoms: C_21  and  C_22
REMARK   12  A    between atoms: C_28  and  C_29
REMARK                            x       y       z     vdW  Elec       q    Type
REMARK                         _______ _______ _______ _____ _____    ______ ____
ROOT
ATOM      1  C   UNK A   0       3.118   7.028  18.295  0.00  0.00    +0.000 A 
ATOM      2  C   UNK A   0       2.662   8.081  17.494  0.00  0.00    +0.000 A 
ATOM      3  C   UNK A   0       1.827   9.066  18.052  0.00  0.00    +0.000 A 
ATOM      4  C   UNK A   0       1.452   9.000  19.404  0.00  0.00    +0.000 A 
ATOM      5  C   UNK A   0       1.796   7.861  20.146  0.00  0.00    +0.000 A 
ATOM      6  C   UNK A   0       2.627   6.888  19.599  0.00  0.00    +0.000 A 
ENDROOT
BRANCH   1   8
ATOM      7  O   UNK A   0       4.338   5.029  18.405  0.00  0.00    +0.000 OA
ATOM      8  C   UNK A   0       4.265   6.158  17.923  0.00  0.00    +0.000 C 
ATOM      9  N   PHE A   1       5.234   6.660  17.086  0.00  0.00    +0.000 N 
ATOM     10  H   PHE A   1       5.009   7.447  16.485  0.00  0.00    +0.000 HD
BRANCH   9  11
ATOM     11  CA  PHE A   1       6.337   5.797  16.652  0.00  0.00    +0.000 C 
BRANCH  11  12
ATOM     12  C   PHE A   1       7.246   5.458  17.834  0.00  0.00    +0.000 C 
ATOM     13  O   PHE A   1       7.768   6.293  18.564  0.00  0.00    +0.000 OA
BRANCH  12  14
ATOM     14  OXT PHE A   1       7.440   4.128  18.016  0.00  0.00    +0.000 OA
ATOM     15  HXT PHE A   1       6.817   3.708  18.639  0.00  0.00    +0.000 HD
ENDBRANCH  12  14
ENDBRANCH  11  12
BRANCH  11  16
ATOM     16  CB  PHE A   1       5.863   4.561  15.880  0.00  0.00    +0.000 C 
BRANCH  16  17
ATOM     17  CG  PHE A   1       6.253   4.471  14.426  0.00  0.00    +0.000 A 
ATOM     18  CD1 PHE A   1       7.342   5.202  13.935  0.00  0.00    +0.000 A 
ATOM     19  CE1 PHE A   1       7.772   5.033  12.618  0.00  0.00    +0.000 A 
ATOM     20  CZ  PHE A   1       7.111   4.140  11.777  0.00  0.00    +0.000 A 
ATOM     21  CE2 PHE A   1       6.006   3.433  12.245  0.00  0.00    +0.000 A 
ATOM     22  CD2 PHE A   1       5.576   3.599  13.562  0.00  0.00    +0.000 A 
ENDBRANCH  16  17
ENDBRANCH  11  16
ENDBRANCH   9  11
ENDBRANCH   1   8
BRANCH   4  23
ATOM     23  C   UNK A   0       0.896  10.204  20.144  0.00  0.00    +0.000 C 
BRANCH  23  24
ATOM     24  N   UNK A   0      -0.069  11.074  19.436  0.00  0.00    +0.000 NA
BRANCH  24  25
ATOM     25  C   UNK A   0      -1.385  10.389  19.371  0.00  0.00    +0.000 C 
BRANCH  25  26
ATOM     26  C   UNK A   0      -2.172  10.547  18.079  0.00  0.00    +0.000 A 
ATOM     27  C   UNK A   0      -1.833   9.866  16.900  0.00  0.00    +0.000 A 
ATOM     28  C   UNK A   0      -2.619   9.995  15.753  0.00  0.00    +0.000 A 
ATOM     29  C   UNK A   0      -3.768  10.785  15.773  0.00  0.00    +0.000 A 
ATOM     30  C   UNK A   0      -4.130  11.451  16.938  0.00  0.00    +0.000 A 
ATOM     31  C   UNK A   0      -3.339  11.332  18.085  0.00  0.00    +0.000 A 
ENDBRANCH  25  26
ENDBRANCH  24  25
BRANCH  24  32
ATOM     32  C   UNK A   0      -0.216  12.334  20.218  0.00  0.00    +0.000 C 
BRANCH  32  33
ATOM     33  C   UNK A   0      -1.359  12.361  21.218  0.00  0.00    +0.000 A 
ATOM     34  C   UNK A   0      -1.281  11.661  22.428  0.00  0.00    +0.000 A 
ATOM     35  C   UNK A   0      -2.304  11.763  23.376  0.00  0.00    +0.000 A 
ATOM     36  C   UNK A   0      -3.417  12.563  23.127  0.00  0.00    +0.000 A 
ATOM     37  C   UNK A   0      -3.520  13.253  21.918  0.00  0.00    +0.000 A 
ATOM     38  C   UNK A   0      -2.499  13.148  20.970  0.00  0.00    +0.000 A 
ENDBRANCH  32  33
ENDBRANCH  24  32
ENDBRANCH  23  24
ENDBRANCH   4  23
TORSDOF 12
ENDMDL
MODEL 6
REMARK VINA RESULT:      -8.8      3.043      9.674
REMARK  Name = 
REMARK  12 active torsions:
REMARK  status: ('A' for Active; 'I' for Inactive)
REMARK    1  A    between atoms: C_2  and  C_15
REMARK    2  A    between atoms: N_3  and  CA_4
REMARK    3  A    between atoms: CA_4  and  CB_5
REMARK    4  A    between atoms: CA_4  and  C_12
REMARK    5  A    between atoms: CB_5  and  CG_6
REMARK    6  A    between atoms: C_12  and  OXT_14
REMARK    7  A    between atoms: C_18  and  C_19
REMARK    8  A    between atoms: C_19  and  N_20
REMARK    9  A    between atoms: N_20  and  C_21
REMARK   10  A    between atoms: N_20  and  C_28
REMARK   11  A    between atoms: C_21  and  C_22
REMARK   12  A    between atoms: C_28  and  C_29
REMARK                            x       y       z     vdW  Elec       q    Type
REMARK                         _______ _______ _______ _____ _____    ______ ____
ROOT
ATOM      1  C   UNK A   0       2.126   7.172  18.979  0.00  0.00    +0.000 A 
ATOM      2  C   UNK A   0       1.996   7.986  17.848  0.00  0.00    +0.000 A 
ATOM      3  C   UNK A   0       1.526   9.303  17.990  0.00  0.00    +0.000 A 
ATOM      4  C   UNK A   0       1.189   9.807  19.257  0.00  0.00    +0.000 A 
ATOM      5  C   UNK A   0       1.184   8.932  20.353  0.00  0.00    +0.000 A 
ATOM      6  C   UNK A   0       1.655   7.628  20.216  0.00  0.00    +0.000 A 
ENDROOT
BRANCH   1   8
ATOM      7  O   UNK A   0       3.966   5.893  19.669  0.00  0.00    +0.000 OA
ATOM      8  C   UNK A   0       2.935   5.925  18.999  0.00  0.00    +0.000 C 
ATOM      9  N   PHE A   1       2.528   4.858  18.231  0.00  0.00    +0.000 N 
ATOM     10  H   PHE A   1       1.557   4.801  17.939  0.00  0.00    +0.000 HD
BRANCH   9  11
ATOM     11  CA  PHE A   1       3.273   3.597  18.288  0.00  0.00    +0.000 C 
BRANCH  11  12
ATOM     12  C   PHE A   1       2.424   2.505  18.940  0.00  0.00    +0.000 C 
ATOM     13  O   PHE A   1       1.506   2.721  19.724  0.00  0.00    +0.000 OA
BRANCH  12  14
ATOM     14  OXT PHE A   1       2.775   1.246  18.579  0.00  0.00    +0.000 OA
ATOM     15  HXT PHE A   1       3.625   1.182  18.103  0.00  0.00    +0.000 HD
ENDBRANCH  12  14
ENDBRANCH  11  12
BRANCH  11  16
ATOM     16  CB  PHE A   1       3.854   3.183  16.932  0.00  0.00    +0.000 C 
BRANCH  16  17
ATOM     17  CG  PHE A   1       5.089   3.911  16.465  0.00  0.00    +0.000 A 
ATOM     18  CD1 PHE A   1       6.046   4.353  17.388  0.00  0.00    +0.000 A 
ATOM     19  CE1 PHE A   1       7.240   4.927  16.949  0.00  0.00    +0.000 A 
ATOM     20  CZ  PHE A   1       7.483   5.075  15.585  0.00  0.00    +0.000 A 
ATOM     21  CE2 PHE A   1       6.524   4.670  14.660  0.00  0.00    +0.000 A 
ATOM     22  CD2 PHE A   1       5.331   4.095  15.096  0.00  0.00    +0.000 A 
ENDBRANCH  16  17
ENDBRANCH  11  16
ENDBRANCH   9  11
ENDBRANCH   1   8
BRANCH   4  23
ATOM     23  C   UNK A   0       1.057  11.297  19.523  0.00  0.00    +0.000 C 
BRANCH  23  24
ATOM     24  N   UNK A   0      -0.208  11.964  19.141  0.00  0.00    +0.000 NA
BRANCH  24  25
ATOM     25  C   UNK A   0      -1.316  10.976  19.200  0.00  0.00    +0.000 C 
BRANCH  25  26
ATOM     26  C   UNK A   0      -2.186  10.853  17.959  0.00  0.00    +0.000 A 
ATOM     27  C   UNK A   0      -1.901   9.950  16.923  0.00  0.00    +0.000 A 
ATOM     28  C   UNK A   0      -2.760   9.829  15.829  0.00  0.00    +0.000 A 
ATOM     29  C   UNK A   0      -3.928  10.589  15.764  0.00  0.00    +0.000 A 
ATOM     30  C   UNK A   0      -4.236  11.474  16.791  0.00  0.00    +0.000 A 
ATOM     31  C   UNK A   0      -3.372  11.604  17.882  0.00  0.00    +0.000 A 
ENDBRANCH  25  26
ENDBRANCH  24  25
BRANCH  24  32
ATOM     32  C   UNK A   0      -0.474  13.049  20.126  0.00  0.00    +0.000 C 
BRANCH  32  33
ATOM     33  C   UNK A   0      -1.451  12.707  21.238  0.00  0.00    +0.000 A 
ATOM     34  C   UNK A   0      -1.064  11.915  22.325  0.00  0.00    +0.000 A 
ATOM     35  C   UNK A   0      -1.948  11.677  23.383  0.00  0.00    +0.000 A 
ATOM     36  C   UNK A   0      -3.228  12.229  23.368  0.00  0.00    +0.000 A 
ATOM     37  C   UNK A   0      -3.636  13.006  22.283  0.00  0.00    +0.000 A 
ATOM     38  C   UNK A   0      -2.754  13.239  21.225  0.00  0.00    +0.000 A 
ENDBRANCH  32  33
ENDBRANCH  24  32
ENDBRANCH  23  24
ENDBRANCH   4  23
TORSDOF 12
ENDMDL
MODEL 7
REMARK VINA RESULT:      -8.8      1.600      3.438
REMARK  Name = 
REMARK  12 active torsions:
REMARK  status: ('A' for Active; 'I' for Inactive)
REMARK    1  A    between atoms: C_2  and  C_15
REMARK    2  A    between atoms: N_3  and  CA_4
REMARK    3  A    between atoms: CA_4  and  CB_5
REMARK    4  A    between atoms: CA_4  and  C_12
REMARK    5  A    between atoms: CB_5  and  CG_6
REMARK    6  A    between atoms: C_12  and  OXT_14
REMARK    7  A    between atoms: C_18  and  C_19
REMARK    8  A    between atoms: C_19  and  N_20
REMARK    9  A    between atoms: N_20  and  C_21
REMARK   10  A    between atoms: N_20  and  C_28
REMARK   11  A    between atoms: C_21  and  C_22
REMARK   12  A    between atoms: C_28  and  C_29
REMARK                            x       y       z     vdW  Elec       q    Type
REMARK                         _______ _______ _______ _____ _____    ______ ____
ROOT
ATOM      1  C   UNK A   0       1.379   9.086  19.203  0.00  0.00    +0.000 A 
ATOM      2  C   UNK A   0       1.486   8.123  20.214  0.00  0.00    +0.000 A 
ATOM      3  C   UNK A   0       2.228   6.951  19.980  0.00  0.00    +0.000 A 
ATOM      4  C   UNK A   0       2.860   6.742  18.744  0.00  0.00    +0.000 A 
ATOM      5  C   UNK A   0       2.616   7.645  17.699  0.00  0.00    +0.000 A 
ATOM      6  C   UNK A   0       1.888   8.809  17.929  0.00  0.00    +0.000 A 
ENDROOT
BRANCH   1   8
ATOM      7  O   UNK A   0       1.014  10.937  20.594  0.00  0.00    +0.000 OA
ATOM      8  C   UNK A   0       0.943  10.485  19.452  0.00  0.00    +0.000 C 
ATOM      9  N   PHE A   1       0.434  11.218  18.406  0.00  0.00    +0.000 N 
ATOM     10  H   PHE A   1       0.658  10.944  17.454  0.00  0.00    +0.000 HD
BRANCH   9  11
ATOM     11  CA  PHE A   1       0.063  12.621  18.615  0.00  0.00    +0.000 C 
BRANCH  11  12
ATOM     12  C   PHE A   1      -1.335  12.719  19.226  0.00  0.00    +0.000 C 
ATOM     13  O   PHE A   1      -1.560  13.057  20.383  0.00  0.00    +0.000 OA
BRANCH  12  14
ATOM     14  OXT PHE A   1      -2.334  12.390  18.370  0.00  0.00    +0.000 OA
ATOM     15  HXT PHE A   1      -2.803  11.562  18.592  0.00  0.00    +0.000 HD
ENDBRANCH  12  14
ENDBRANCH  11  12
BRANCH  11  16
ATOM     16  CB  PHE A   1       1.120  13.410  19.395  0.00  0.00    +0.000 C 
BRANCH  16  17
ATOM     17  CG  PHE A   1       1.758  14.581  18.691  0.00  0.00    +0.000 A 
ATOM     18  CD1 PHE A   1       1.184  15.857  18.770  0.00  0.00    +0.000 A 
ATOM     19  CE1 PHE A   1       1.833  16.960  18.213  0.00  0.00    +0.000 A 
ATOM     20  CZ  PHE A   1       3.055  16.796  17.563  0.00  0.00    +0.000 A 
ATOM     21  CE2 PHE A   1       3.617  15.528  17.449  0.00  0.00    +0.000 A 
ATOM     22  CD2 PHE A   1       2.971  14.424  18.006  0.00  0.00    +0.000 A 
ENDBRANCH  16  17
ENDBRANCH  11  16
ENDBRANCH   9  11
ENDBRANCH   1   8
BRANCH   4  23
ATOM     23  C   UNK A   0       3.967   5.717  18.569  0.00  0.00    +0.000 C 
BRANCH  23  24
ATOM     24  N   UNK A   0       3.922   4.837  17.381  0.00  0.00    +0.000 NA
BRANCH  24  25
ATOM     25  C   UNK A   0       5.177   5.004  16.603  0.00  0.00    +0.000 C 
BRANCH  25  26
ATOM     26  C   UNK A   0       6.286   5.808  17.263  0.00  0.00    +0.000 A 
ATOM     27  C   UNK A   0       6.564   7.138  16.915  0.00  0.00    +0.000 A 
ATOM     28  C   UNK A   0       7.553   7.858  17.589  0.00  0.00    +0.000 A 
ATOM     29  C   UNK A   0       8.262   7.269  18.635  0.00  0.00    +0.000 A 
ATOM     30  C   UNK A   0       7.986   5.958  19.007  0.00  0.00    +0.000 A 
ATOM     31  C   UNK A   0       7.003   5.233  18.327  0.00  0.00    +0.000 A 
ENDBRANCH  25  26
ENDBRANCH  24  25
BRANCH  24  32
ATOM     32  C   UNK A   0       3.828   3.427  17.852  0.00  0.00    +0.000 C 
BRANCH  32  33
ATOM     33  C   UNK A   0       2.913   3.188  19.041  0.00  0.00    +0.000 A 
ATOM     34  C   UNK A   0       3.430   2.867  20.301  0.00  0.00    +0.000 A 
ATOM     35  C   UNK A   0       2.582   2.733  21.405  0.00  0.00    +0.000 A 
ATOM     36  C   UNK A   0       1.208   2.918  21.264  0.00  0.00    +0.000 A 
ATOM     37  C   UNK A   0       0.674   3.219  20.010  0.00  0.00    +0.000 A 
ATOM     38  C   UNK A   0       1.521   3.350  18.907  0.00  0.00    +0.000 A 
ENDBRANCH  32  33
ENDBRANCH  24  32
ENDBRANCH  23  24
ENDBRANCH   4  23
TORSDOF 12
ENDMDL
MODEL 8
REMARK VINA RESULT:      -8.8      3.306      9.542
REMARK  Name = 
REMARK  12 active torsions:
REMARK  status: ('A' for Active; 'I' for Inactive)
REMARK    1  A    between atoms: C_2  and  C_15
REMARK    2  A    between atoms: N_3  and  CA_4
REMARK    3  A    between atoms: CA_4  and  CB_5
REMARK    4  A    between atoms: CA_4  and  C_12
REMARK    5  A    between atoms: CB_5  and  CG_6
REMARK    6  A    between atoms: C_12  and  OXT_14
REMARK    7  A    between atoms: C_18  and  C_19
REMARK    8  A    between atoms: C_19  and  N_20
REMARK    9  A    between atoms: N_20  and  C_21
REMARK   10  A    between atoms: N_20  and  C_28
REMARK   11  A    between atoms: C_21  and  C_22
REMARK   12  A    between atoms: C_28  and  C_29
REMARK                            x       y       z     vdW  Elec       q    Type
REMARK                         _______ _______ _______ _____ _____    ______ ____
ROOT
ATOM      1  C   UNK A   0       2.558   7.754  18.394  0.00  0.00    +0.000 A 
ATOM      2  C   UNK A   0       2.181   8.901  17.686  0.00  0.00    +0.000 A 
ATOM      3  C   UNK A   0       1.455   9.912  18.340  0.00  0.00    +0.000 A 
ATOM      4  C   UNK A   0       1.109   9.779  19.695  0.00  0.00    +0.000 A 
ATOM      5  C   UNK A   0       1.365   8.562  20.342  0.00  0.00    +0.000 A 
ATOM      6  C   UNK A   0       2.089   7.561  19.699  0.00  0.00    +0.000 A 
ENDROOT
BRANCH   1   8
ATOM      7  O   UNK A   0       3.966   6.858  16.747  0.00  0.00    +0.000 OA
ATOM      8  C   UNK A   0       3.611   6.814  17.924  0.00  0.00    +0.000 C 
ATOM      9  N   PHE A   1       4.124   5.896  18.810  0.00  0.00    +0.000 N 
ATOM     10  H   PHE A   1       4.042   6.070  19.807  0.00  0.00    +0.000 HD
BRANCH   9  11
ATOM     11  CA  PHE A   1       5.210   5.007  18.386  0.00  0.00    +0.000 C 
BRANCH  11  12
ATOM     12  C   PHE A   1       6.559   5.548  18.861  0.00  0.00    +0.000 C 
ATOM     13  O   PHE A   1       7.256   6.323  18.215  0.00  0.00    +0.000 OA
BRANCH  12  14
ATOM     14  OXT PHE A   1       6.938   5.090  20.079  0.00  0.00    +0.000 OA
ATOM     15  HXT PHE A   1       6.889   5.753  20.795  0.00  0.00    +0.000 HD
ENDBRANCH  12  14
ENDBRANCH  11  12
BRANCH  11  16
ATOM     16  CB  PHE A   1       4.973   3.544  18.777  0.00  0.00    +0.000 C 
BRANCH  16  17
ATOM     17  CG  PHE A   1       3.562   3.151  19.133  0.00  0.00    +0.000 A 
ATOM     18  CD1 PHE A   1       3.198   2.937  20.469  0.00  0.00    +0.000 A 
ATOM     19  CE1 PHE A   1       1.868   2.682  20.809  0.00  0.00    +0.000 A 
ATOM     20  CZ  PHE A   1       0.892   2.628  19.816  0.00  0.00    +0.000 A 
ATOM     21  CE2 PHE A   1       1.248   2.806  18.481  0.00  0.00    +0.000 A 
ATOM     22  CD2 PHE A   1       2.576   3.062  18.139  0.00  0.00    +0.000 A 
ENDBRANCH  16  17
ENDBRANCH  11  16
ENDBRANCH   9  11
ENDBRANCH   1   8
BRANCH   4  23
ATOM     23  C   UNK A   0       0.685  10.970  20.538  0.00  0.00    +0.000 C 
BRANCH  23  24
ATOM     24  N   UNK A   0      -0.716  11.027  21.010  0.00  0.00    +0.000 NA
BRANCH  24  25
ATOM     25  C   UNK A   0      -0.725  11.193  22.487  0.00  0.00    +0.000 C 
BRANCH  25  26
ATOM     26  C   UNK A   0      -1.637  12.274  23.045  0.00  0.00    +0.000 A 
ATOM     27  C   UNK A   0      -2.960  12.017  23.435  0.00  0.00    +0.000 A 
ATOM     28  C   UNK A   0      -3.744  13.027  23.999  0.00  0.00    +0.000 A 
ATOM     29  C   UNK A   0      -3.211  14.299  24.204  0.00  0.00    +0.000 A 
ATOM     30  C   UNK A   0      -1.895  14.565  23.842  0.00  0.00    +0.000 A 
ATOM     31  C   UNK A   0      -1.113  13.559  23.269  0.00  0.00    +0.000 A 
ENDBRANCH  25  26
ENDBRANCH  24  25
BRANCH  24  32
ATOM     32  C   UNK A   0      -1.368  12.212  20.385  0.00  0.00    +0.000 C 
BRANCH  32  33
ATOM     33  C   UNK A   0      -2.430  11.907  19.343  0.00  0.00    +0.000 A 
ATOM     34  C   UNK A   0      -2.123  11.189  18.182  0.00  0.00    +0.000 A 
ATOM     35  C   UNK A   0      -3.127  10.843  17.273  0.00  0.00    +0.000 A 
ATOM     36  C   UNK A   0      -4.450  11.210  17.512  0.00  0.00    +0.000 A 
ATOM     37  C   UNK A   0      -4.771  11.943  18.655  0.00  0.00    +0.000 A 
ATOM     38  C   UNK A   0      -3.767  12.292  19.562  0.00  0.00    +0.000 A 
ENDBRANCH  32  33
ENDBRANCH  24  32
ENDBRANCH  23  24
ENDBRANCH   4  23
TORSDOF 12
ENDMDL
MODEL 9
REMARK VINA RESULT:      -8.7      2.727      9.549
REMARK  Name = 
REMARK  12 active torsions:
REMARK  status: ('A' for Active; 'I' for Inactive)
REMARK    1  A    between atoms: C_2  and  C_15
REMARK    2  A    between atoms: N_3  and  CA_4
REMARK    3  A    between atoms: CA_4  and  CB_5
REMARK    4  A    between atoms: CA_4  and  C_12
REMARK    5  A    between atoms: CB_5  and  CG_6
REMARK    6  A    between atoms: C_12  and  OXT_14
REMARK    7  A    between atoms: C_18  and  C_19
REMARK    8  A    between atoms: C_19  and  N_20
REMARK    9  A    between atoms: N_20  and  C_21
REMARK   10  A    between atoms: N_20  and  C_28
REMARK   11  A    between atoms: C_21  and  C_22
REMARK   12  A    between atoms: C_28  and  C_29
REMARK                            x       y       z     vdW  Elec       q    Type
REMARK                         _______ _______ _______ _____ _____    ______ ____
ROOT
ATOM      1  C   UNK A   0       2.236   7.604  18.828  0.00  0.00    +0.000 A 
ATOM      2  C   UNK A   0       1.956   7.560  20.199  0.00  0.00    +0.000 A 
ATOM      3  C   UNK A   0       1.238   8.613  20.794  0.00  0.00    +0.000 A 
ATOM      4  C   UNK A   0       0.802   9.703  20.024  0.00  0.00    +0.000 A 
ATOM      5  C   UNK A   0       1.221   9.799  18.689  0.00  0.00    +0.000 A 
ATOM      6  C   UNK A   0       1.926   8.755  18.095  0.00  0.00    +0.000 A 
ENDROOT
BRANCH   1   8
ATOM      7  O   UNK A   0       1.798   5.599  17.693  0.00  0.00    +0.000 OA
ATOM      8  C   UNK A   0       2.653   6.412  18.043  0.00  0.00    +0.000 C 
ATOM      9  N   PHE A   1       3.988   6.231  17.769  0.00  0.00    +0.000 N 
ATOM     10  H   PHE A   1       4.613   7.032  17.800  0.00  0.00    +0.000 HD
BRANCH   9  11
ATOM     11  CA  PHE A   1       4.413   5.100  16.938  0.00  0.00    +0.000 C 
BRANCH  11  12
ATOM     12  C   PHE A   1       5.485   5.542  15.942  0.00  0.00    +0.000 C 
ATOM     13  O   PHE A   1       5.494   6.630  15.377  0.00  0.00    +0.000 OA
BRANCH  12  14
ATOM     14  OXT PHE A   1       6.447   4.613  15.720  0.00  0.00    +0.000 OA
ATOM     15  HXT PHE A   1       6.464   4.255  14.811  0.00  0.00    +0.000 HD
ENDBRANCH  12  14
ENDBRANCH  11  12
BRANCH  11  16
ATOM     16  CB  PHE A   1       4.821   3.873  17.762  0.00  0.00    +0.000 C 
BRANCH  16  17
ATOM     17  CG  PHE A   1       3.756   3.241  18.621  0.00  0.00    +0.000 A 
ATOM     18  CD1 PHE A   1       3.730   3.468  20.004  0.00  0.00    +0.000 A 
ATOM     19  CE1 PHE A   1       2.682   2.974  20.783  0.00  0.00    +0.000 A 
ATOM     20  CZ  PHE A   1       1.657   2.241  20.189  0.00  0.00    +0.000 A 
ATOM     21  CE2 PHE A   1       1.690   1.981  18.821  0.00  0.00    +0.000 A 
ATOM     22  CD2 PHE A   1       2.736   2.474  18.040  0.00  0.00    +0.000 A 
ENDBRANCH  16  17
ENDBRANCH  11  16
ENDBRANCH   9  11
ENDBRANCH   1   8
BRANCH   4  23
ATOM     23  C   UNK A   0      -0.283  10.649  20.509  0.00  0.00    +0.000 C 
BRANCH  23  24
ATOM     24  N   UNK A   0      -0.570  11.855  19.702  0.00  0.00    +0.000 NA
BRANCH  24  25
ATOM     25  C   UNK A   0      -2.040  12.063  19.642  0.00  0.00    +0.000 C 
BRANCH  25  26
ATOM     26  C   UNK A   0      -2.745  11.589  18.382  0.00  0.00    +0.000 A 
ATOM     27  C   UNK A   0      -4.135  11.682  18.214  0.00  0.00    +0.000 A 
ATOM     28  C   UNK A   0      -4.734  11.289  17.015  0.00  0.00    +0.000 A 
ATOM     29  C   UNK A   0      -3.953  10.820  15.959  0.00  0.00    +0.000 A 
ATOM     30  C   UNK A   0      -2.573  10.740  16.101  0.00  0.00    +0.000 A 
ATOM     31  C   UNK A   0      -1.972  11.124  17.303  0.00  0.00    +0.000 A 
ENDBRANCH  25  26
ENDBRANCH  24  25
BRANCH  24  32
ATOM     32  C   UNK A   0       0.058  13.025  20.378  0.00  0.00    +0.000 C 
BRANCH  32  33
ATOM     33  C   UNK A   0       1.018  13.841  19.530  0.00  0.00    +0.000 A 
ATOM     34  C   UNK A   0       0.783  15.196  19.268  0.00  0.00    +0.000 A 
ATOM     35  C   UNK A   0       1.717  15.956  18.558  0.00  0.00    +0.000 A 
ATOM     36  C   UNK A   0       2.898  15.373  18.101  0.00  0.00    +0.000 A 
ATOM     37  C   UNK A   0       3.139  14.018  18.338  0.00  0.00    +0.000 A 
ATOM     38  C   UNK A   0       2.204  13.259  19.044  0.00  0.00    +0.000 A 
ENDBRANCH  32  33
ENDBRANCH  24  32
ENDBRANCH  23  24
ENDBRANCH   4  23
TORSDOF 12
ENDMDL
