MODEL 1
REMARK VINA RESULT:      -8.4      0.000      0.000
REMARK  Name = 
REMARK  1 active torsions:
REMARK  status: ('A' for Active; 'I' for Inactive)
REMARK    1  A    between atoms: C_7  and  C_8
REMARK                            x       y       z     vdW  Elec       q    Type
REMARK                         _______ _______ _______ _____ _____    ______ ____
ROOT
ATOM      1  C   UNL     1       1.270   9.008  20.021  0.00  0.00    +0.000 C 
ATOM      2  O   UNL     1       1.024   8.707  21.191  0.00  0.00    +0.000 OA
ATOM      3  N   UNL     1       1.950   8.130  19.159  0.00  0.00    +0.000 N 
ATOM      4  C   UNL     1       2.506   8.492  17.843  0.00  0.00    +0.000 C 
ATOM      5  C   UNL     1       3.728   7.680  17.391  0.00  0.00    +0.000 C 
ATOM      6  C   UNL     1       3.602   6.163  17.583  0.00  0.00    +0.000 C 
ATOM      7  C   UNL     1       2.391   5.823  18.433  0.00  0.00    +0.000 C 
ATOM      8  C   UNL     1       2.308   4.486  19.091  0.00  0.00    +0.000 A 
ATOM      9  C   UNL     1       2.622   3.240  18.580  0.00  0.00    +0.000 A 
ATOM     10  C   UNL     1       2.333   2.115  19.357  0.00  0.00    +0.000 A 
ATOM     11  C   UNL     1       1.733   2.250  20.620  0.00  0.00    +0.000 A 
ATOM     12  C   UNL     1       1.417   3.513  21.126  0.00  0.00    +0.000 A 
ATOM     13  C   UNL     1       1.710   4.621  20.351  0.00  0.00    +0.000 A 
ATOM     14  C   UNL     1       1.401   6.061  20.655  0.00  0.00    +0.000 C 
ATOM     15  C   UNL     1       2.318   6.788  19.642  0.00  0.00    +0.000 C 
ENDROOT
BRANCH   1  22
ATOM     16  N   UNL     1       0.599  16.173  18.920  0.00  0.00    +0.000 N 
ATOM     17  C   UNL     1       0.446  14.844  18.940  0.00  0.00    +0.000 A 
ATOM     18  N   UNL     1      -0.568  14.148  18.493  0.00  0.00    +0.000 NA
ATOM     19  C   UNL     1      -0.254  12.836  18.754  0.00  0.00    +0.000 A 
ATOM     20  C   UNL     1      -0.976  11.663  18.500  0.00  0.00    +0.000 A 
ATOM     21  C   UNL     1      -0.437  10.439  18.930  0.00  0.00    +0.000 A 
ATOM     22  C   UNL     1       0.813  10.363  19.574  0.00  0.00    +0.000 A 
ATOM     23  C   UNL     1       1.586  11.524  19.719  0.00  0.00    +0.000 A 
ATOM     24  C   UNL     1       0.995  12.739  19.355  0.00  0.00    +0.000 A 
ATOM     25  N   UNL     1       1.416  14.038  19.466  0.00  0.00    +0.000 N 
ATOM     26  H   UNL     1      -0.231  16.705  18.672  0.00  0.00    +0.000 HD
ATOM     27  H   UNL     1       1.202  16.654  19.579  0.00  0.00    +0.000 HD
ATOM     28  H   UNL     1       2.281  14.355  19.872  0.00  0.00    +0.000 HD
ENDBRANCH   1  22
TORSDOF 1
ENDMDL
MODEL 2
REMARK VINA RESULT:      -8.3      2.652      4.199
REMARK  Name = 
REMARK  1 active torsions:
REMARK  status: ('A' for Active; 'I' for Inactive)
REMARK    1  A    between atoms: C_7  and  C_8
REMARK                            x       y       z     vdW  Elec       q    Type
REMARK                         _______ _______ _______ _____ _____    ______ ____
ROOT
ATOM      1  C   UNL     1       1.581   8.444  19.369  0.00  0.00    +0.000 C 
ATOM      2  O   UNL     1       1.717   9.008  18.281  0.00  0.00    +0.000 OA
ATOM      3  N   UNL     1       2.112   7.164  19.609  0.00  0.00    +0.000 N 
ATOM      4  C   UNL     1       1.791   6.315  20.770  0.00  0.00    +0.000 C 
ATOM      5  C   UNL     1       1.890   4.801  20.535  0.00  0.00    +0.000 C 
ATOM      6  C   UNL     1       3.158   4.345  19.801  0.00  0.00    +0.000 C 
ATOM      7  C   UNL     1       3.911   5.532  19.228  0.00  0.00    +0.000 C 
ATOM      8  C   UNL     1       4.911   5.314  18.142  0.00  0.00    +0.000 A 
ATOM      9  C   UNL     1       5.867   4.322  18.022  0.00  0.00    +0.000 A 
ATOM     10  C   UNL     1       6.780   4.408  16.968  0.00  0.00    +0.000 A 
ATOM     11  C   UNL     1       6.730   5.479  16.061  0.00  0.00    +0.000 A 
ATOM     12  C   UNL     1       5.763   6.479  16.192  0.00  0.00    +0.000 A 
ATOM     13  C   UNL     1       4.861   6.383  17.237  0.00  0.00    +0.000 A 
ATOM     14  C   UNL     1       3.787   7.365  17.616  0.00  0.00    +0.000 C 
ATOM     15  C   UNL     1       2.910   6.508  18.560  0.00  0.00    +0.000 C 
ENDROOT
BRANCH   1  22
ATOM     16  N   UNL     1      -2.636  13.211  22.903  0.00  0.00    +0.000 N 
ATOM     17  C   UNL     1      -1.819  12.210  22.557  0.00  0.00    +0.000 A 
ATOM     18  N   UNL     1      -1.171  11.395  23.350  0.00  0.00    +0.000 NA
ATOM     19  C   UNL     1      -0.466  10.559  22.518  0.00  0.00    +0.000 A 
ATOM     20  C   UNL     1       0.405   9.504  22.818  0.00  0.00    +0.000 A 
ATOM     21  C   UNL     1       1.046   8.843  21.758  0.00  0.00    +0.000 A 
ATOM     22  C   UNL     1       0.813   9.193  20.415  0.00  0.00    +0.000 A 
ATOM     23  C   UNL     1      -0.149  10.169  20.113  0.00  0.00    +0.000 A 
ATOM     24  C   UNL     1      -0.715  10.865  21.187  0.00  0.00    +0.000 A 
ATOM     25  N   UNL     1      -1.580  11.927  21.242  0.00  0.00    +0.000 N 
ATOM     26  H   UNL     1      -2.627  13.462  23.888  0.00  0.00    +0.000 HD
ATOM     27  H   UNL     1      -2.808  13.999  22.289  0.00  0.00    +0.000 HD
ATOM     28  H   UNL     1      -1.967  12.426  20.458  0.00  0.00    +0.000 HD
ENDBRANCH   1  22
TORSDOF 1
ENDMDL
MODEL 3
REMARK VINA RESULT:      -8.3      3.426      7.659
REMARK  Name = 
REMARK  1 active torsions:
REMARK  status: ('A' for Active; 'I' for Inactive)
REMARK    1  A    between atoms: C_7  and  C_8
REMARK                            x       y       z     vdW  Elec       q    Type
REMARK                         _______ _______ _______ _____ _____    ______ ____
ROOT
ATOM      1  C   UNL     1       2.848   6.632  19.430  0.00  0.00    +0.000 C 
ATOM      2  O   UNL     1       2.505   5.960  20.405  0.00  0.00    +0.000 OA
ATOM      3  N   UNL     1       2.165   7.805  19.063  0.00  0.00    +0.000 N 
ATOM      4  C   UNL     1       2.339   8.526  17.789  0.00  0.00    +0.000 C 
ATOM      5  C   UNL     1       1.112   9.305  17.293  0.00  0.00    +0.000 C 
ATOM      6  C   UNL     1       0.411  10.153  18.363  0.00  0.00    +0.000 C 
ATOM      7  C   UNL     1       0.934   9.819  19.748  0.00  0.00    +0.000 C 
ATOM      8  C   UNL     1       0.128  10.194  20.947  0.00  0.00    +0.000 A 
ATOM      9  C   UNL     1      -0.558  11.367  21.207  0.00  0.00    +0.000 A 
ATOM     10  C   UNL     1      -1.134  11.529  22.469  0.00  0.00    +0.000 A 
ATOM     11  C   UNL     1      -1.013  10.529  23.448  0.00  0.00    +0.000 A 
ATOM     12  C   UNL     1      -0.316   9.350  23.178  0.00  0.00    +0.000 A 
ATOM     13  C   UNL     1       0.249   9.196  21.924  0.00  0.00    +0.000 A 
ATOM     14  C   UNL     1       1.095   8.055  21.432  0.00  0.00    +0.000 C 
ATOM     15  C   UNL     1       1.053   8.282  19.902  0.00  0.00    +0.000 C 
ENDROOT
BRANCH   1  22
ATOM     16  N   UNL     1       7.683   5.133  14.197  0.00  0.00    +0.000 N 
ATOM     17  C   UNL     1       6.995   5.218  15.341  0.00  0.00    +0.000 A 
ATOM     18  N   UNL     1       7.203   4.558  16.452  0.00  0.00    +0.000 NA
ATOM     19  C   UNL     1       6.230   4.989  17.321  0.00  0.00    +0.000 A 
ATOM     20  C   UNL     1       5.966   4.615  18.645  0.00  0.00    +0.000 A 
ATOM     21  C   UNL     1       4.854   5.180  19.291  0.00  0.00    +0.000 A 
ATOM     22  C   UNL     1       4.027   6.125  18.656  0.00  0.00    +0.000 A 
ATOM     23  C   UNL     1       4.364   6.586  17.375  0.00  0.00    +0.000 A 
ATOM     24  C   UNL     1       5.427   5.952  16.723  0.00  0.00    +0.000 A 
ATOM     25  N   UNL     1       5.937   6.075  15.457  0.00  0.00    +0.000 N 
ATOM     26  H   UNL     1       8.339   4.358  14.138  0.00  0.00    +0.000 HD
ATOM     27  H   UNL     1       7.271   5.380  13.304  0.00  0.00    +0.000 HD
ATOM     28  H   UNL     1       5.592   6.678  14.729  0.00  0.00    +0.000 HD
ENDBRANCH   1  22
TORSDOF 1
ENDMDL
MODEL 4
REMARK VINA RESULT:      -8.1      2.301      3.851
REMARK  Name = 
REMARK  1 active torsions:
REMARK  status: ('A' for Active; 'I' for Inactive)
REMARK    1  A    between atoms: C_7  and  C_8
REMARK                            x       y       z     vdW  Elec       q    Type
REMARK                         _______ _______ _______ _____ _____    ______ ____
ROOT
ATOM      1  C   UNL     1       1.583   8.823  18.465  0.00  0.00    +0.000 C 
ATOM      2  O   UNL     1       1.858   9.115  17.300  0.00  0.00    +0.000 OA
ATOM      3  N   UNL     1       2.080   7.656  19.072  0.00  0.00    +0.000 N 
ATOM      4  C   UNL     1       1.612   7.099  20.353  0.00  0.00    +0.000 C 
ATOM      5  C   UNL     1       1.744   5.577  20.505  0.00  0.00    +0.000 C 
ATOM      6  C   UNL     1       3.098   5.001  20.069  0.00  0.00    +0.000 C 
ATOM      7  C   UNL     1       3.917   6.041  19.326  0.00  0.00    +0.000 C 
ATOM      8  C   UNL     1       5.050   5.603  18.460  0.00  0.00    +0.000 A 
ATOM      9  C   UNL     1       6.016   4.644  18.704  0.00  0.00    +0.000 A 
ATOM     10  C   UNL     1       7.058   4.506  17.785  0.00  0.00    +0.000 A 
ATOM     11  C   UNL     1       7.125   5.327  16.647  0.00  0.00    +0.000 A 
ATOM     12  C   UNL     1       6.147   6.296  16.410  0.00  0.00    +0.000 A 
ATOM     13  C   UNL     1       5.116   6.423  17.325  0.00  0.00    +0.000 A 
ATOM     14  C   UNL     1       4.000   7.430  17.317  0.00  0.00    +0.000 C 
ATOM     15  C   UNL     1       3.010   6.795  18.322  0.00  0.00    +0.000 C 
ENDROOT
BRANCH   1  22
ATOM     16  N   UNL     1      -3.691  13.514  20.251  0.00  0.00    +0.000 N 
ATOM     17  C   UNL     1      -2.625  12.706  20.234  0.00  0.00    +0.000 A 
ATOM     18  N   UNL     1      -1.708  12.570  21.159  0.00  0.00    +0.000 NA
ATOM     19  C   UNL     1      -0.829  11.635  20.668  0.00  0.00    +0.000 A 
ATOM     20  C   UNL     1       0.343  11.111  21.228  0.00  0.00    +0.000 A 
ATOM     21  C   UNL     1       1.094  10.196  20.472  0.00  0.00    +0.000 A 
ATOM     22  C   UNL     1       0.683   9.774  19.194  0.00  0.00    +0.000 A 
ATOM     23  C   UNL     1      -0.551  10.209  18.687  0.00  0.00    +0.000 A 
ATOM     24  C   UNL     1      -1.240  11.179  19.423  0.00  0.00    +0.000 A 
ATOM     25  N   UNL     1      -2.388  11.884  19.169  0.00  0.00    +0.000 N 
ATOM     26  H   UNL     1      -3.701  14.209  20.993  0.00  0.00    +0.000 HD
ATOM     27  H   UNL     1      -4.136  13.831  19.397  0.00  0.00    +0.000 HD
ATOM     28  H   UNL     1      -2.957  11.824  18.340  0.00  0.00    +0.000 HD
ENDBRANCH   1  22
TORSDOF 1
ENDMDL
MODEL 5
REMARK VINA RESULT:      -8.0      4.162      5.359
REMARK  Name = 
REMARK  1 active torsions:
REMARK  status: ('A' for Active; 'I' for Inactive)
REMARK    1  A    between atoms: C_7  and  C_8
REMARK                            x       y       z     vdW  Elec       q    Type
REMARK                         _______ _______ _______ _____ _____    ______ ____
ROOT
ATOM      1  C   UNL     1      -0.461  11.143  22.548  0.00  0.00    +0.000 C 
ATOM      2  O   UNL     1      -0.096  10.317  23.387  0.00  0.00    +0.000 OA
ATOM      3  N   UNL     1       0.080  11.167  21.251  0.00  0.00    +0.000 N 
ATOM      4  C   UNL     1      -0.104  12.255  20.274  0.00  0.00    +0.000 C 
ATOM      5  C   UNL     1       1.037  12.441  19.263  0.00  0.00    +0.000 C 
ATOM      6  C   UNL     1       1.543  11.144  18.616  0.00  0.00    +0.000 C 
ATOM      7  C   UNL     1       0.978   9.928  19.327  0.00  0.00    +0.000 C 
ATOM      8  C   UNL     1       1.644   8.603  19.156  0.00  0.00    +0.000 A 
ATOM      9  C   UNL     1       2.145   8.019  18.007  0.00  0.00    +0.000 A 
ATOM     10  C   UNL     1       2.608   6.703  18.082  0.00  0.00    +0.000 A 
ATOM     11  C   UNL     1       2.558   5.993  19.292  0.00  0.00    +0.000 A 
ATOM     12  C   UNL     1       2.046   6.589  20.447  0.00  0.00    +0.000 A 
ATOM     13  C   UNL     1       1.593   7.894  20.364  0.00  0.00    +0.000 A 
ATOM     14  C   UNL     1       0.944   8.711  21.447  0.00  0.00    +0.000 C 
ATOM     15  C   UNL     1       1.058  10.138  20.860  0.00  0.00    +0.000 C 
ENDROOT
BRANCH   1  22
ATOM     16  N   UNL     1      -6.747  14.414  24.221  0.00  0.00    +0.000 N 
ATOM     17  C   UNL     1      -5.464  14.105  24.001  0.00  0.00    +0.000 A 
ATOM     18  N   UNL     1      -4.430  14.907  24.037  0.00  0.00    +0.000 NA
ATOM     19  C   UNL     1      -3.345  14.119  23.733  0.00  0.00    +0.000 A 
ATOM     20  C   UNL     1      -1.989  14.449  23.618  0.00  0.00    +0.000 A 
ATOM     21  C   UNL     1      -1.087  13.444  23.231  0.00  0.00    +0.000 A 
ATOM     22  C   UNL     1      -1.506  12.122  22.991  0.00  0.00    +0.000 A 
ATOM     23  C   UNL     1      -2.844  11.769  23.222  0.00  0.00    +0.000 A 
ATOM     24  C   UNL     1      -3.736  12.802  23.529  0.00  0.00    +0.000 A 
ATOM     25  N   UNL     1      -5.095  12.823  23.703  0.00  0.00    +0.000 N 
ATOM     26  H   UNL     1      -6.956  15.408  24.266  0.00  0.00    +0.000 HD
ATOM     27  H   UNL     1      -7.505  13.861  23.836  0.00  0.00    +0.000 HD
ATOM     28  H   UNL     1      -5.723  12.041  23.616  0.00  0.00    +0.000 HD
ENDBRANCH   1  22
TORSDOF 1
ENDMDL
MODEL 6
REMARK VINA RESULT:      -8.0      1.114      1.349
REMARK  Name = 
REMARK  1 active torsions:
REMARK  status: ('A' for Active; 'I' for Inactive)
REMARK    1  A    between atoms: C_7  and  C_8
REMARK                            x       y       z     vdW  Elec       q    Type
REMARK                         _______ _______ _______ _____ _____    ______ ____
ROOT
ATOM      1  C   UNL     1       1.272   8.488  20.549  0.00  0.00    +0.000 C 
ATOM      2  O   UNL     1       1.097   7.902  21.619  0.00  0.00    +0.000 OA
ATOM      3  N   UNL     1       1.926   7.871  19.468  0.00  0.00    +0.000 N 
ATOM      4  C   UNL     1       2.400   8.563  18.255  0.00  0.00    +0.000 C 
ATOM      5  C   UNL     1       3.616   7.931  17.562  0.00  0.00    +0.000 C 
ATOM      6  C   UNL     1       3.538   6.409  17.383  0.00  0.00    +0.000 C 
ATOM      7  C   UNL     1       2.384   5.828  18.179  0.00  0.00    +0.000 C 
ATOM      8  C   UNL     1       2.370   4.369  18.494  0.00  0.00    +0.000 A 
ATOM      9  C   UNL     1       2.686   3.297  17.680  0.00  0.00    +0.000 A 
ATOM     10  C   UNL     1       2.468   2.007  18.171  0.00  0.00    +0.000 A 
ATOM     11  C   UNL     1       1.935   1.809  19.454  0.00  0.00    +0.000 A 
ATOM     12  C   UNL     1       1.615   2.897  20.269  0.00  0.00    +0.000 A 
ATOM     13  C   UNL     1       1.838   4.171  19.775  0.00  0.00    +0.000 A 
ATOM     14  C   UNL     1       1.511   5.482  20.436  0.00  0.00    +0.000 C 
ATOM     15  C   UNL     1       2.353   6.467  19.590  0.00  0.00    +0.000 C 
ENDROOT
BRANCH   1  22
ATOM     16  N   UNL     1      -0.467  15.203  18.341  0.00  0.00    +0.000 N 
ATOM     17  C   UNL     1      -0.285  14.071  19.030  0.00  0.00    +0.000 A 
ATOM     18  N   UNL     1      -0.502  13.866  20.305  0.00  0.00    +0.000 NA
ATOM     19  C   UNL     1      -0.153  12.555  20.528  0.00  0.00    +0.000 A 
ATOM     20  C   UNL     1      -0.173  11.800  21.708  0.00  0.00    +0.000 A 
ATOM     21  C   UNL     1       0.300  10.478  21.664  0.00  0.00    +0.000 A 
ATOM     22  C   UNL     1       0.757   9.892  20.468  0.00  0.00    +0.000 A 
ATOM     23  C   UNL     1       0.663  10.611  19.267  0.00  0.00    +0.000 A 
ATOM     24  C   UNL     1       0.264  11.949  19.350  0.00  0.00    +0.000 A 
ATOM     25  N   UNL     1       0.174  12.943  18.411  0.00  0.00    +0.000 N 
ATOM     26  H   UNL     1      -0.644  16.033  18.902  0.00  0.00    +0.000 HD
ATOM     27  H   UNL     1       0.041  15.398  17.486  0.00  0.00    +0.000 HD
ATOM     28  H   UNL     1       0.413  12.869  17.435  0.00  0.00    +0.000 HD
ENDBRANCH   1  22
TORSDOF 1
ENDMDL
MODEL 7
REMARK VINA RESULT:      -8.0      2.496      3.818
REMARK  Name = 
REMARK  1 active torsions:
REMARK  status: ('A' for Active; 'I' for Inactive)
REMARK    1  A    between atoms: C_7  and  C_8
REMARK                            x       y       z     vdW  Elec       q    Type
REMARK                         _______ _______ _______ _____ _____    ______ ____
ROOT
ATOM      1  C   UNL     1       1.609   8.808  18.393  0.00  0.00    +0.000 C 
ATOM      2  O   UNL     1       1.904   9.089  17.229  0.00  0.00    +0.000 OA
ATOM      3  N   UNL     1       2.101   7.651  19.021  0.00  0.00    +0.000 N 
ATOM      4  C   UNL     1       1.613   7.106  20.300  0.00  0.00    +0.000 C 
ATOM      5  C   UNL     1       1.750   5.586  20.471  0.00  0.00    +0.000 C 
ATOM      6  C   UNL     1       3.114   5.012  20.066  0.00  0.00    +0.000 C 
ATOM      7  C   UNL     1       3.941   6.048  19.327  0.00  0.00    +0.000 C 
ATOM      8  C   UNL     1       5.092   5.606  18.486  0.00  0.00    +0.000 A 
ATOM      9  C   UNL     1       6.057   4.654  18.758  0.00  0.00    +0.000 A 
ATOM     10  C   UNL     1       7.117   4.512  17.859  0.00  0.00    +0.000 A 
ATOM     11  C   UNL     1       7.200   5.320  16.714  0.00  0.00    +0.000 A 
ATOM     12  C   UNL     1       6.222   6.281  16.449  0.00  0.00    +0.000 A 
ATOM     13  C   UNL     1       5.175   6.413  17.343  0.00  0.00    +0.000 A 
ATOM     14  C   UNL     1       4.054   7.415  17.304  0.00  0.00    +0.000 C 
ATOM     15  C   UNL     1       3.048   6.786  18.298  0.00  0.00    +0.000 C 
ENDROOT
BRANCH   1  22
ATOM     16  N   UNL     1      -1.715  12.979  23.348  0.00  0.00    +0.000 N 
ATOM     17  C   UNL     1      -1.341  12.330  22.239  0.00  0.00    +0.000 A 
ATOM     18  N   UNL     1      -1.974  12.270  21.095  0.00  0.00    +0.000 NA
ATOM     19  C   UNL     1      -1.194  11.480  20.287  0.00  0.00    +0.000 A 
ATOM     20  C   UNL     1      -1.386  11.068  18.962  0.00  0.00    +0.000 A 
ATOM     21  C   UNL     1      -0.444  10.199  18.387  0.00  0.00    +0.000 A 
ATOM     22  C   UNL     1       0.692   9.763  19.094  0.00  0.00    +0.000 A 
ATOM     23  C   UNL     1       0.943  10.271  20.377  0.00  0.00    +0.000 A 
ATOM     24  C   UNL     1      -0.048  11.071  20.956  0.00  0.00    +0.000 A 
ATOM     25  N   UNL     1      -0.171  11.626  22.203  0.00  0.00    +0.000 N 
ATOM     26  H   UNL     1      -2.668  13.332  23.348  0.00  0.00    +0.000 HD
ATOM     27  H   UNL     1      -1.389  12.700  24.267  0.00  0.00    +0.000 HD
ATOM     28  H   UNL     1       0.475  11.528  22.969  0.00  0.00    +0.000 HD
ENDBRANCH   1  22
TORSDOF 1
ENDMDL
MODEL 8
REMARK VINA RESULT:      -8.0      2.866      8.294
REMARK  Name = 
REMARK  1 active torsions:
REMARK  status: ('A' for Active; 'I' for Inactive)
REMARK    1  A    between atoms: C_7  and  C_8
REMARK                            x       y       z     vdW  Elec       q    Type
REMARK                         _______ _______ _______ _____ _____    ______ ____
ROOT
ATOM      1  C   UNL     1       2.100   8.373  18.293  0.00  0.00    +0.000 C 
ATOM      2  O   UNL     1       2.102   9.191  17.371  0.00  0.00    +0.000 OA
ATOM      3  N   UNL     1       1.552   8.679  19.551  0.00  0.00    +0.000 N 
ATOM      4  C   UNL     1       1.726   7.872  20.772  0.00  0.00    +0.000 C 
ATOM      5  C   UNL     1       1.670   8.649  22.096  0.00  0.00    +0.000 C 
ATOM      6  C   UNL     1       0.513   9.650  22.208  0.00  0.00    +0.000 C 
ATOM      7  C   UNL     1      -0.168   9.844  20.865  0.00  0.00    +0.000 C 
ATOM      8  C   UNL     1      -1.016  11.051  20.640  0.00  0.00    +0.000 A 
ATOM      9  C   UNL     1      -1.941  11.639  21.483  0.00  0.00    +0.000 A 
ATOM     10  C   UNL     1      -2.709  12.696  20.988  0.00  0.00    +0.000 A 
ATOM     11  C   UNL     1      -2.550  13.141  19.666  0.00  0.00    +0.000 A 
ATOM     12  C   UNL     1      -1.617  12.539  18.820  0.00  0.00    +0.000 A 
ATOM     13  C   UNL     1      -0.857  11.495  19.319  0.00  0.00    +0.000 A 
ATOM     14  C   UNL     1       0.150  10.657  18.582  0.00  0.00    +0.000 C 
ATOM     15  C   UNL     1       0.903   9.985  19.755  0.00  0.00    +0.000 C 
ENDROOT
BRANCH   1  22
ATOM     16  N   UNL     1       3.645   1.263  18.032  0.00  0.00    +0.000 N 
ATOM     17  C   UNL     1       3.632   2.594  17.892  0.00  0.00    +0.000 A 
ATOM     18  N   UNL     1       4.550   3.350  17.346  0.00  0.00    +0.000 NA
ATOM     19  C   UNL     1       4.078   4.636  17.456  0.00  0.00    +0.000 A 
ATOM     20  C   UNL     1       4.649   5.849  17.052  0.00  0.00    +0.000 A 
ATOM     21  C   UNL     1       3.965   7.041  17.345  0.00  0.00    +0.000 A 
ATOM     22  C   UNL     1       2.719   7.040  18.000  0.00  0.00    +0.000 A 
ATOM     23  C   UNL     1       2.095   5.819  18.296  0.00  0.00    +0.000 A 
ATOM     24  C   UNL     1       2.830   4.651  18.066  0.00  0.00    +0.000 A 
ATOM     25  N   UNL     1       2.573   3.332  18.338  0.00  0.00    +0.000 N 
ATOM     26  H   UNL     1       4.533   0.811  17.832  0.00  0.00    +0.000 HD
ATOM     27  H   UNL     1       3.109   0.795  18.754  0.00  0.00    +0.000 HD
ATOM     28  H   UNL     1       1.756   2.964  18.796  0.00  0.00    +0.000 HD
ENDBRANCH   1  22
TORSDOF 1
ENDMDL
MODEL 9
REMARK VINA RESULT:      -7.7      4.154      5.387
REMARK  Name = 
REMARK  1 active torsions:
REMARK  status: ('A' for Active; 'I' for Inactive)
REMARK    1  A    between atoms: C_7  and  C_8
REMARK                            x       y       z     vdW  Elec       q    Type
REMARK                         _______ _______ _______ _____ _____    ______ ____
ROOT
ATOM      1  C   UNL     1      -0.719  11.611  22.506  0.00  0.00    +0.000 C 
ATOM      2  O   UNL     1      -0.401  10.792  23.371  0.00  0.00    +0.000 OA
ATOM      3  N   UNL     1      -0.115  11.616  21.237  0.00  0.00    +0.000 N 
ATOM      4  C   UNL     1      -0.242  12.695  20.240  0.00  0.00    +0.000 C 
ATOM      5  C   UNL     1       0.947  12.859  19.283  0.00  0.00    +0.000 C 
ATOM      6  C   UNL     1       1.472  11.551  18.676  0.00  0.00    +0.000 C 
ATOM      7  C   UNL     1       0.863  10.347  19.372  0.00  0.00    +0.000 C 
ATOM      8  C   UNL     1       1.524   9.015  19.248  0.00  0.00    +0.000 A 
ATOM      9  C   UNL     1       2.074   8.414  18.131  0.00  0.00    +0.000 A 
ATOM     10  C   UNL     1       2.521   7.095  18.242  0.00  0.00    +0.000 A 
ATOM     11  C   UNL     1       2.407   6.399  19.457  0.00  0.00    +0.000 A 
ATOM     12  C   UNL     1       1.846   7.012  20.579  0.00  0.00    +0.000 A 
ATOM     13  C   UNL     1       1.409   8.320  20.460  0.00  0.00    +0.000 A 
ATOM     14  C   UNL     1       0.716   9.155  21.501  0.00  0.00    +0.000 C 
ATOM     15  C   UNL     1       0.871  10.575  20.904  0.00  0.00    +0.000 C 
ENDROOT
BRANCH   1  22
ATOM     16  N   UNL     1      -4.344  17.255  25.337  0.00  0.00    +0.000 N 
ATOM     17  C   UNL     1      -3.976  16.139  24.697  0.00  0.00    +0.000 A 
ATOM     18  N   UNL     1      -4.748  15.262  24.108  0.00  0.00    +0.000 NA
ATOM     19  C   UNL     1      -3.900  14.302  23.612  0.00  0.00    +0.000 A 
ATOM     20  C   UNL     1      -4.176  13.127  22.902  0.00  0.00    +0.000 A 
ATOM     21  C   UNL     1      -3.106  12.283  22.562  0.00  0.00    +0.000 A 
ATOM     22  C   UNL     1      -1.774  12.604  22.887  0.00  0.00    +0.000 A 
ATOM     23  C   UNL     1      -1.490  13.837  23.492  0.00  0.00    +0.000 A 
ATOM     24  C   UNL     1      -2.577  14.622  23.891  0.00  0.00    +0.000 A 
ATOM     25  N   UNL     1      -2.657  15.800  24.589  0.00  0.00    +0.000 N 
ATOM     26  H   UNL     1      -5.340  17.346  25.520  0.00  0.00    +0.000 HD
ATOM     27  H   UNL     1      -3.764  17.678  26.054  0.00  0.00    +0.000 HD
ATOM     28  H   UNL     1      -1.886  16.323  24.970  0.00  0.00    +0.000 HD
ENDBRANCH   1  22
TORSDOF 1
ENDMDL
