MODEL 1
REMARK VINA RESULT:      -8.9      0.000      0.000
REMARK  Name = 
REMARK  8 active torsions:
REMARK  status: ('A' for Active; 'I' for Inactive)
REMARK    1  A    between atoms: N_1  and  C_2
REMARK    2  A    between atoms: C_2  and  N_4
REMARK    3  A    between atoms: N_4  and  N_5
REMARK    4  A    between atoms: C_6  and  C_7
REMARK    5  A    between atoms: C_6  and  C_20
REMARK    6  A    between atoms: C_7  and  C_8
REMARK    7  A    between atoms: C_18  and  O_19
REMARK    8  A    between atoms: N_22  and  C_23
REMARK                            x       y       z     vdW  Elec       q    Type
REMARK                         _______ _______ _______ _____ _____    ______ ____
ROOT
ATOM      1  N   UNL     1       7.492   5.744  16.307  0.00  0.00    +0.000 NA
ATOM      2  C   UNL     1       6.909   6.739  16.924  0.00  0.00    +0.000 C 
ENDROOT
BRANCH   2   3
ATOM      3  C   UNL     1       7.797   7.601  17.825  0.00  0.00    +0.000 C 
ATOM      4  O   UNL     1       8.321   7.071  18.795  0.00  0.00    +0.000 OA
ATOM      5  N   UNL     1       7.844   8.937  17.459  0.00  0.00    +0.000 N 
ATOM      6  H   UNL     1       7.266   9.190  16.661  0.00  0.00    +0.000 HD
BRANCH   5   7
ATOM      7  C   UNL     1       8.496   9.965  18.173  0.00  0.00    +0.000 A 
ATOM      8  C   UNL     1       9.092   9.756  19.419  0.00  0.00    +0.000 A 
ATOM      9  C   UNL     1       9.646  10.817  20.139  0.00  0.00    +0.000 A 
ATOM     10  C   UNL     1       9.616  12.101  19.606  0.00  0.00    +0.000 A 
ATOM     11 CL   UNL     1      10.246  13.411  20.523  0.00  0.00    +0.000 Cl
ATOM     12  C   UNL     1       9.069  12.322  18.347  0.00  0.00    +0.000 A 
ATOM     13  C   UNL     1       8.520  11.255  17.624  0.00  0.00    +0.000 A 
ENDBRANCH   5   7
ENDBRANCH   2   3
BRANCH   1  14
ATOM     14  N   UNL     1       6.718   4.926  15.528  0.00  0.00    +0.000 N 
ATOM     15  H   UNL     1       6.067   4.266  15.943  0.00  0.00    +0.000 HD
BRANCH  14  16
ATOM     16  C   UNL     1       6.963   4.791  14.189  0.00  0.00    +0.000 C 
ATOM     17  S   UNL     1       6.107   3.744  13.229  0.00  0.00    +0.000 S 
BRANCH  16  18
ATOM     18  N   UNL     1       7.962   5.558  13.694  0.00  0.00    +0.000 N 
ATOM     19  H   UNL     1       7.794   6.508  13.395  0.00  0.00    +0.000 HD
ATOM     20  H   UNL     1       8.899   5.185  13.734  0.00  0.00    +0.000 HD
ENDBRANCH  16  18
ENDBRANCH  14  16
ENDBRANCH   1  14
BRANCH   2  21
ATOM     21  C   UNL     1       5.458   7.171  16.833  0.00  0.00    +0.000 C 
BRANCH  21  22
ATOM     22  C   UNL     1       4.515   6.394  17.710  0.00  0.00    +0.000 A 
ATOM     23  N   UNL     1       4.861   5.150  18.118  0.00  0.00    +0.000 NA
ATOM     24  C   UNL     1       4.012   4.516  18.954  0.00  0.00    +0.000 A 
ATOM     25  C   UNL     1       4.355   3.270  19.461  0.00  0.00    +0.000 A 
ATOM     26  C   UNL     1       3.539   2.614  20.384  0.00  0.00    +0.000 A 
ATOM     27  C   UNL     1       2.351   3.211  20.787  0.00  0.00    +0.000 A 
ATOM     28 CL   UNL     1       1.362   2.438  21.963  0.00  0.00    +0.000 Cl
ATOM     29  C   UNL     1       1.971   4.442  20.260  0.00  0.00    +0.000 A 
ATOM     30  C   UNL     1       2.785   5.109  19.355  0.00  0.00    +0.000 A 
ATOM     31  N   UNL     1       2.412   6.317  18.895  0.00  0.00    +0.000 NA
ATOM     32  C   UNL     1       3.292   6.930  18.086  0.00  0.00    +0.000 A 
BRANCH  32  33
ATOM     33  O   UNL     1       2.881   8.156  17.678  0.00  0.00    +0.000 OA
ATOM     34  H   UNL     1       3.215   8.708  18.408  0.00  0.00    +0.000 HD
ENDBRANCH  32  33
ENDBRANCH  21  22
ENDBRANCH   2  21
TORSDOF 8
ENDMDL
MODEL 2
REMARK VINA RESULT:      -8.3      1.231      1.944
REMARK  Name = 
REMARK  8 active torsions:
REMARK  status: ('A' for Active; 'I' for Inactive)
REMARK    1  A    between atoms: N_1  and  C_2
REMARK    2  A    between atoms: C_2  and  N_4
REMARK    3  A    between atoms: N_4  and  N_5
REMARK    4  A    between atoms: C_6  and  C_7
REMARK    5  A    between atoms: C_6  and  C_20
REMARK    6  A    between atoms: C_7  and  C_8
REMARK    7  A    between atoms: C_18  and  O_19
REMARK    8  A    between atoms: N_22  and  C_23
REMARK                            x       y       z     vdW  Elec       q    Type
REMARK                         _______ _______ _______ _____ _____    ______ ____
ROOT
ATOM      1  N   UNL     1       7.610   5.951  15.878  0.00  0.00    +0.000 NA
ATOM      2  C   UNL     1       6.941   6.656  16.753  0.00  0.00    +0.000 C 
ENDROOT
BRANCH   2   3
ATOM      3  C   UNL     1       7.764   7.524  17.709  0.00  0.00    +0.000 C 
ATOM      4  O   UNL     1       8.234   6.995  18.706  0.00  0.00    +0.000 OA
ATOM      5  N   UNL     1       7.818   8.862  17.352  0.00  0.00    +0.000 N 
ATOM      6  H   UNL     1       7.286   9.113  16.522  0.00  0.00    +0.000 HD
BRANCH   5   7
ATOM      7  C   UNL     1       8.414   9.893  18.109  0.00  0.00    +0.000 A 
ATOM      8  C   UNL     1       8.468  11.217  17.668  0.00  0.00    +0.000 A 
ATOM      9  C   UNL     1       9.148  12.193  18.401  0.00  0.00    +0.000 A 
ATOM     10  C   UNL     1       9.771  11.848  19.595  0.00  0.00    +0.000 A 
ATOM     11 CL   UNL     1      10.655  13.041  20.461  0.00  0.00    +0.000 Cl
ATOM     12  C   UNL     1       9.688  10.546  20.075  0.00  0.00    +0.000 A 
ATOM     13  C   UNL     1       9.001   9.570  19.341  0.00  0.00    +0.000 A 
ENDBRANCH   5   7
ENDBRANCH   2   3
BRANCH   1  14
ATOM     14  N   UNL     1       6.908   5.131  15.037  0.00  0.00    +0.000 N 
ATOM     15  H   UNL     1       6.197   4.498  15.392  0.00  0.00    +0.000 HD
BRANCH  14  16
ATOM     16  C   UNL     1       7.298   4.953  13.739  0.00  0.00    +0.000 C 
ATOM     17  S   UNL     1       6.588   3.835  12.741  0.00  0.00    +0.000 S 
BRANCH  16  18
ATOM     18  N   UNL     1       8.314   5.741  13.317  0.00  0.00    +0.000 N 
ATOM     19  H   UNL     1       8.772   6.387  13.944  0.00  0.00    +0.000 HD
ATOM     20  H   UNL     1       8.669   5.584  12.386  0.00  0.00    +0.000 HD
ENDBRANCH  16  18
ENDBRANCH  14  16
ENDBRANCH   1  14
BRANCH   2  21
ATOM     21  C   UNL     1       5.436   6.751  16.919  0.00  0.00    +0.000 C 
BRANCH  21  22
ATOM     22  C   UNL     1       4.858   5.822  17.952  0.00  0.00    +0.000 A 
ATOM     23  N   UNL     1       3.675   6.130  18.534  0.00  0.00    +0.000 NA
ATOM     24  C   UNL     1       3.166   5.236  19.408  0.00  0.00    +0.000 A 
ATOM     25  C   UNL     1       1.920   5.469  19.975  0.00  0.00    +0.000 A 
ATOM     26  C   UNL     1       1.327   4.535  20.827  0.00  0.00    +0.000 A 
ATOM     27  C   UNL     1       2.005   3.360  21.127  0.00  0.00    +0.000 A 
ATOM     28 CL   UNL     1       1.264   2.178  22.133  0.00  0.00    +0.000 Cl
ATOM     29  C   UNL     1       3.272   3.127  20.598  0.00  0.00    +0.000 A 
ATOM     30  C   UNL     1       3.862   4.042  19.737  0.00  0.00    +0.000 A 
ATOM     31  N   UNL     1       5.068   3.771  19.208  0.00  0.00    +0.000 NA
ATOM     32  C   UNL     1       5.533   4.669  18.324  0.00  0.00    +0.000 A 
BRANCH  32  33
ATOM     33  O   UNL     1       6.736   4.330  17.799  0.00  0.00    +0.000 OA
ATOM     34  H   UNL     1       6.546   4.420  16.847  0.00  0.00    +0.000 HD
ENDBRANCH  32  33
ENDBRANCH  21  22
ENDBRANCH   2  21
TORSDOF 8
ENDMDL
MODEL 3
REMARK VINA RESULT:      -8.3      1.523      1.840
REMARK  Name = 
REMARK  8 active torsions:
REMARK  status: ('A' for Active; 'I' for Inactive)
REMARK    1  A    between atoms: N_1  and  C_2
REMARK    2  A    between atoms: C_2  and  N_4
REMARK    3  A    between atoms: N_4  and  N_5
REMARK    4  A    between atoms: C_6  and  C_7
REMARK    5  A    between atoms: C_6  and  C_20
REMARK    6  A    between atoms: C_7  and  C_8
REMARK    7  A    between atoms: C_18  and  O_19
REMARK    8  A    between atoms: N_22  and  C_23
REMARK                            x       y       z     vdW  Elec       q    Type
REMARK                         _______ _______ _______ _____ _____    ______ ____
ROOT
ATOM      1  N   UNL     1       7.811   6.649  16.392  0.00  0.00    +0.000 NA
ATOM      2  C   UNL     1       7.610   7.079  17.610  0.00  0.00    +0.000 C 
ENDROOT
BRANCH   2   3
ATOM      3  C   UNL     1       7.846   8.572  17.859  0.00  0.00    +0.000 C 
ATOM      4  O   UNL     1       7.193   9.374  17.207  0.00  0.00    +0.000 OA
ATOM      5  N   UNL     1       8.854   8.840  18.772  0.00  0.00    +0.000 N 
ATOM      6  H   UNL     1       9.333   8.023  19.143  0.00  0.00    +0.000 HD
BRANCH   5   7
ATOM      7  C   UNL     1       9.346  10.120  19.102  0.00  0.00    +0.000 A 
ATOM      8  C   UNL     1       9.916  10.976  18.157  0.00  0.00    +0.000 A 
ATOM      9  C   UNL     1      10.477  12.198  18.537  0.00  0.00    +0.000 A 
ATOM     10  C   UNL     1      10.461  12.576  19.875  0.00  0.00    +0.000 A 
ATOM     11 CL   UNL     1      11.205  14.053  20.343  0.00  0.00    +0.000 Cl
ATOM     12  C   UNL     1       9.857  11.760  20.824  0.00  0.00    +0.000 A 
ATOM     13  C   UNL     1       9.288  10.539  20.440  0.00  0.00    +0.000 A 
ENDBRANCH   5   7
ENDBRANCH   2   3
BRANCH   1  14
ATOM     14  N   UNL     1       7.652   5.312  16.146  0.00  0.00    +0.000 N 
ATOM     15  H   UNL     1       8.127   4.613  16.709  0.00  0.00    +0.000 HD
BRANCH  14  16
ATOM     16  C   UNL     1       7.053   4.874  14.996  0.00  0.00    +0.000 C 
ATOM     17  S   UNL     1       5.744   3.856  15.006  0.00  0.00    +0.000 S 
BRANCH  16  18
ATOM     18  N   UNL     1       7.605   5.315  13.842  0.00  0.00    +0.000 N 
ATOM     19  H   UNL     1       8.239   6.100  13.830  0.00  0.00    +0.000 HD
ATOM     20  H   UNL     1       7.447   4.764  13.010  0.00  0.00    +0.000 HD
ENDBRANCH  16  18
ENDBRANCH  14  16
ENDBRANCH   1  14
BRANCH   2  21
ATOM     21  C   UNL     1       7.135   6.286  18.813  0.00  0.00    +0.000 C 
BRANCH  21  22
ATOM     22  C   UNL     1       5.818   5.585  18.623  0.00  0.00    +0.000 A 
ATOM     23  N   UNL     1       5.651   4.339  19.128  0.00  0.00    +0.000 NA
ATOM     24  C   UNL     1       4.432   3.775  18.987  0.00  0.00    +0.000 A 
ATOM     25  C   UNL     1       4.186   2.531  19.552  0.00  0.00    +0.000 A 
ATOM     26  C   UNL     1       2.920   1.946  19.491  0.00  0.00    +0.000 A 
ATOM     27  C   UNL     1       1.893   2.614  18.835  0.00  0.00    +0.000 A 
ATOM     28 CL   UNL     1       0.315   1.929  18.798  0.00  0.00    +0.000 Cl
ATOM     29  C   UNL     1       2.131   3.844  18.229  0.00  0.00    +0.000 A 
ATOM     30  C   UNL     1       3.382   4.441  18.300  0.00  0.00    +0.000 A 
ATOM     31  N   UNL     1       3.571   5.649  17.741  0.00  0.00    +0.000 NA
ATOM     32  C   UNL     1       4.787   6.192  17.922  0.00  0.00    +0.000 A 
BRANCH  32  33
ATOM     33  O   UNL     1       4.913   7.422  17.366  0.00  0.00    +0.000 OA
ATOM     34  H   UNL     1       5.628   7.256  16.725  0.00  0.00    +0.000 HD
ENDBRANCH  32  33
ENDBRANCH  21  22
ENDBRANCH   2  21
TORSDOF 8
ENDMDL
MODEL 4
REMARK VINA RESULT:      -8.2      3.809      4.655
REMARK  Name = 
REMARK  8 active torsions:
REMARK  status: ('A' for Active; 'I' for Inactive)
REMARK    1  A    between atoms: N_1  and  C_2
REMARK    2  A    between atoms: C_2  and  N_4
REMARK    3  A    between atoms: N_4  and  N_5
REMARK    4  A    between atoms: C_6  and  C_7
REMARK    5  A    between atoms: C_6  and  C_20
REMARK    6  A    between atoms: C_7  and  C_8
REMARK    7  A    between atoms: C_18  and  O_19
REMARK    8  A    between atoms: N_22  and  C_23
REMARK                            x       y       z     vdW  Elec       q    Type
REMARK                         _______ _______ _______ _____ _____    ______ ____
ROOT
ATOM      1  N   UNL     1       6.814   5.886  15.340  0.00  0.00    +0.000 NA
ATOM      2  C   UNL     1       5.772   5.553  16.057  0.00  0.00    +0.000 C 
ENDROOT
BRANCH   2   3
ATOM      3  C   UNL     1       5.136   6.663  16.900  0.00  0.00    +0.000 C 
ATOM      4  O   UNL     1       5.875   7.497  17.405  0.00  0.00    +0.000 OA
ATOM      5  N   UNL     1       3.764   6.542  17.049  0.00  0.00    +0.000 N 
ATOM      6  H   UNL     1       3.349   5.723  16.611  0.00  0.00    +0.000 HD
BRANCH   5   7
ATOM      7  C   UNL     1       2.948   7.361  17.858  0.00  0.00    +0.000 A 
ATOM      8  C   UNL     1       2.462   8.599  17.429  0.00  0.00    +0.000 A 
ATOM      9  C   UNL     1       1.734   9.424  18.291  0.00  0.00    +0.000 A 
ATOM     10  C   UNL     1       1.478   9.005  19.592  0.00  0.00    +0.000 A 
ATOM     11 CL   UNL     1       0.633  10.050  20.664  0.00  0.00    +0.000 Cl
ATOM     12  C   UNL     1       1.912   7.756  20.022  0.00  0.00    +0.000 A 
ATOM     13  C   UNL     1       2.636   6.928  19.155  0.00  0.00    +0.000 A 
ENDBRANCH   5   7
ENDBRANCH   2   3
BRANCH   1  14
ATOM     14  N   UNL     1       7.433   4.908  14.610  0.00  0.00    +0.000 N 
ATOM     15  H   UNL     1       8.048   4.230  15.052  0.00  0.00    +0.000 HD
BRANCH  14  16
ATOM     16  C   UNL     1       7.447   4.952  13.243  0.00  0.00    +0.000 C 
ATOM     17  S   UNL     1       6.608   3.869  12.308  0.00  0.00    +0.000 S 
BRANCH  16  18
ATOM     18  N   UNL     1       8.201   5.933  12.694  0.00  0.00    +0.000 N 
ATOM     19  H   UNL     1       8.857   5.737  11.952  0.00  0.00    +0.000 HD
ATOM     20  H   UNL     1       8.007   6.882  12.977  0.00  0.00    +0.000 HD
ENDBRANCH  16  18
ENDBRANCH  14  16
ENDBRANCH   1  14
BRANCH   2  21
ATOM     21  C   UNL     1       5.086   4.203  16.134  0.00  0.00    +0.000 C 
BRANCH  21  22
ATOM     22  C   UNL     1       4.458   3.893  17.465  0.00  0.00    +0.000 A 
ATOM     23  N   UNL     1       3.112   3.758  17.549  0.00  0.00    +0.000 NA
ATOM     24  C   UNL     1       2.600   3.418  18.751  0.00  0.00    +0.000 A 
ATOM     25  C   UNL     1       1.235   3.195  18.873  0.00  0.00    +0.000 A 
ATOM     26  C   UNL     1       0.676   2.771  20.080  0.00  0.00    +0.000 A 
ATOM     27  C   UNL     1       1.499   2.590  21.184  0.00  0.00    +0.000 A 
ATOM     28 CL   UNL     1       0.831   2.018  22.663  0.00  0.00    +0.000 Cl
ATOM     29  C   UNL     1       2.864   2.846  21.092  0.00  0.00    +0.000 A 
ATOM     30  C   UNL     1       3.431   3.251  19.891  0.00  0.00    +0.000 A 
ATOM     31  N   UNL     1       4.759   3.451  19.820  0.00  0.00    +0.000 NA
ATOM     32  C   UNL     1       5.238   3.763  18.604  0.00  0.00    +0.000 A 
BRANCH  32  33
ATOM     33  O   UNL     1       6.584   3.921  18.584  0.00  0.00    +0.000 OA
ATOM     34  H   UNL     1       6.648   4.883  18.435  0.00  0.00    +0.000 HD
ENDBRANCH  32  33
ENDBRANCH  21  22
ENDBRANCH   2  21
TORSDOF 8
ENDMDL
MODEL 5
REMARK VINA RESULT:      -8.1      4.226      7.066
REMARK  Name = 
REMARK  8 active torsions:
REMARK  status: ('A' for Active; 'I' for Inactive)
REMARK    1  A    between atoms: N_1  and  C_2
REMARK    2  A    between atoms: C_2  and  N_4
REMARK    3  A    between atoms: N_4  and  N_5
REMARK    4  A    between atoms: C_6  and  C_7
REMARK    5  A    between atoms: C_6  and  C_20
REMARK    6  A    between atoms: C_7  and  C_8
REMARK    7  A    between atoms: C_18  and  O_19
REMARK    8  A    between atoms: N_22  and  C_23
REMARK                            x       y       z     vdW  Elec       q    Type
REMARK                         _______ _______ _______ _____ _____    ______ ____
ROOT
ATOM      1  N   UNL     1       3.531   4.098  19.934  0.00  0.00    +0.000 NA
ATOM      2  C   UNL     1       3.871   5.291  19.518  0.00  0.00    +0.000 C 
ENDROOT
BRANCH   2   3
ATOM      3  C   UNL     1       2.729   6.273  19.244  0.00  0.00    +0.000 C 
ATOM      4  O   UNL     1       2.214   6.261  18.135  0.00  0.00    +0.000 OA
ATOM      5  N   UNL     1       2.457   7.131  20.297  0.00  0.00    +0.000 N 
ATOM      6  H   UNL     1       3.061   7.028  21.109  0.00  0.00    +0.000 HD
BRANCH   5   7
ATOM      7  C   UNL     1       1.534   8.198  20.274  0.00  0.00    +0.000 A 
ATOM      8  C   UNL     1       1.497   9.140  19.243  0.00  0.00    +0.000 A 
ATOM      9  C   UNL     1       0.632  10.236  19.299  0.00  0.00    +0.000 A 
ATOM     10  C   UNL     1      -0.216  10.388  20.391  0.00  0.00    +0.000 A 
ATOM     11 CL   UNL     1      -1.236  11.768  20.482  0.00  0.00    +0.000 Cl
ATOM     12  C   UNL     1      -0.229   9.435  21.404  0.00  0.00    +0.000 A 
ATOM     13  C   UNL     1       0.635   8.334  21.342  0.00  0.00    +0.000 A 
ENDBRANCH   5   7
ENDBRANCH   2   3
BRANCH   1  14
ATOM     14  N   UNL     1       4.526   3.182  20.147  0.00  0.00    +0.000 N 
ATOM     15  H   UNL     1       5.409   3.452  20.571  0.00  0.00    +0.000 HD
BRANCH  14  16
ATOM     16  C   UNL     1       4.469   1.938  19.583  0.00  0.00    +0.000 C 
ATOM     17  S   UNL     1       3.487   1.589  18.292  0.00  0.00    +0.000 S 
BRANCH  16  18
ATOM     18  N   UNL     1       5.259   0.997  20.151  0.00  0.00    +0.000 N 
ATOM     19  H   UNL     1       5.067   0.013  20.038  0.00  0.00    +0.000 HD
ATOM     20  H   UNL     1       6.107   1.312  20.601  0.00  0.00    +0.000 HD
ENDBRANCH  16  18
ENDBRANCH  14  16
ENDBRANCH   1  14
BRANCH   2  21
ATOM     21  C   UNL     1       5.269   5.841  19.305  0.00  0.00    +0.000 C 
BRANCH  21  22
ATOM     22  C   UNL     1       5.851   5.566  17.945  0.00  0.00    +0.000 A 
ATOM     23  N   UNL     1       5.197   4.734  17.099  0.00  0.00    +0.000 NA
ATOM     24  C   UNL     1       5.725   4.567  15.868  0.00  0.00    +0.000 A 
ATOM     25  C   UNL     1       5.054   3.784  14.938  0.00  0.00    +0.000 A 
ATOM     26  C   UNL     1       5.528   3.645  13.633  0.00  0.00    +0.000 A 
ATOM     27  C   UNL     1       6.704   4.286  13.264  0.00  0.00    +0.000 A 
ATOM     28 CL   UNL     1       7.272   4.166  11.644  0.00  0.00    +0.000 Cl
ATOM     29  C   UNL     1       7.412   5.044  14.193  0.00  0.00    +0.000 A 
ATOM     30  C   UNL     1       6.938   5.201  15.489  0.00  0.00    +0.000 A 
ATOM     31  N   UNL     1       7.620   5.973  16.353  0.00  0.00    +0.000 NA
ATOM     32  C   UNL     1       7.054   6.138  17.560  0.00  0.00    +0.000 A 
BRANCH  32  33
ATOM     33  O   UNL     1       7.767   6.950  18.380  0.00  0.00    +0.000 OA
ATOM     34  H   UNL     1       8.671   6.630  18.205  0.00  0.00    +0.000 HD
ENDBRANCH  32  33
ENDBRANCH  21  22
ENDBRANCH   2  21
TORSDOF 8
ENDMDL
MODEL 6
REMARK VINA RESULT:      -8.0      3.740      6.347
REMARK  Name = 
REMARK  8 active torsions:
REMARK  status: ('A' for Active; 'I' for Inactive)
REMARK    1  A    between atoms: N_1  and  C_2
REMARK    2  A    between atoms: C_2  and  N_4
REMARK    3  A    between atoms: N_4  and  N_5
REMARK    4  A    between atoms: C_6  and  C_7
REMARK    5  A    between atoms: C_6  and  C_20
REMARK    6  A    between atoms: C_7  and  C_8
REMARK    7  A    between atoms: C_18  and  O_19
REMARK    8  A    between atoms: N_22  and  C_23
REMARK                            x       y       z     vdW  Elec       q    Type
REMARK                         _______ _______ _______ _____ _____    ______ ____
ROOT
ATOM      1  N   UNL     1       7.970   8.583  17.321  0.00  0.00    +0.000 NA
ATOM      2  C   UNL     1       7.425   7.409  17.504  0.00  0.00    +0.000 C 
ENDROOT
BRANCH   2   3
ATOM      3  C   UNL     1       6.723   6.781  16.297  0.00  0.00    +0.000 C 
ATOM      4  O   UNL     1       5.587   7.151  16.037  0.00  0.00    +0.000 OA
ATOM      5  N   UNL     1       7.459   5.790  15.668  0.00  0.00    +0.000 N 
ATOM      6  H   UNL     1       8.357   5.576  16.096  0.00  0.00    +0.000 HD
BRANCH   5   7
ATOM      7  C   UNL     1       7.009   4.979  14.605  0.00  0.00    +0.000 A 
ATOM      8  C   UNL     1       7.602   4.998  13.340  0.00  0.00    +0.000 A 
ATOM      9  C   UNL     1       7.071   4.251  12.285  0.00  0.00    +0.000 A 
ATOM     10  C   UNL     1       5.943   3.466  12.496  0.00  0.00    +0.000 A 
ATOM     11 CL   UNL     1       5.262   2.596  11.179  0.00  0.00    +0.000 Cl
ATOM     12  C   UNL     1       5.367   3.397  13.759  0.00  0.00    +0.000 A 
ATOM     13  C   UNL     1       5.904   4.141  14.817  0.00  0.00    +0.000 A 
ENDBRANCH   5   7
ENDBRANCH   2   3
BRANCH   1  14
ATOM     14  N   UNL     1       8.568   9.191  18.391  0.00  0.00    +0.000 N 
ATOM     15  H   UNL     1       8.597   8.743  19.303  0.00  0.00    +0.000 HD
BRANCH  14  16
ATOM     16  C   UNL     1       8.926  10.510  18.342  0.00  0.00    +0.000 C 
ATOM     17  S   UNL     1      10.241  11.107  19.158  0.00  0.00    +0.000 S 
BRANCH  16  18
ATOM     18  N   UNL     1       8.130  11.308  17.593  0.00  0.00    +0.000 N 
ATOM     19  H   UNL     1       7.650  12.099  17.997  0.00  0.00    +0.000 HD
ATOM     20  H   UNL     1       8.120  11.150  16.596  0.00  0.00    +0.000 HD
ENDBRANCH  16  18
ENDBRANCH  14  16
ENDBRANCH   1  14
BRANCH   2  21
ATOM     21  C   UNL     1       7.431   6.565  18.765  0.00  0.00    +0.000 C 
BRANCH  21  22
ATOM     22  C   UNL     1       6.278   5.607  18.885  0.00  0.00    +0.000 A 
ATOM     23  N   UNL     1       5.108   6.038  19.415  0.00  0.00    +0.000 NA
ATOM     24  C   UNL     1       4.083   5.160  19.444  0.00  0.00    +0.000 A 
ATOM     25  C   UNL     1       2.842   5.575  19.909  0.00  0.00    +0.000 A 
ATOM     26  C   UNL     1       1.738   4.721  19.887  0.00  0.00    +0.000 A 
ATOM     27  C   UNL     1       1.891   3.425  19.411  0.00  0.00    +0.000 A 
ATOM     28 CL   UNL     1       0.528   2.378  19.330  0.00  0.00    +0.000 Cl
ATOM     29  C   UNL     1       3.136   2.978  18.977  0.00  0.00    +0.000 A 
ATOM     30  C   UNL     1       4.234   3.827  18.979  0.00  0.00    +0.000 A 
ATOM     31  N   UNL     1       5.415   3.381  18.515  0.00  0.00    +0.000 NA
ATOM     32  C   UNL     1       6.407   4.287  18.476  0.00  0.00    +0.000 A 
BRANCH  32  33
ATOM     33  O   UNL     1       7.564   3.794  17.971  0.00  0.00    +0.000 OA
ATOM     34  H   UNL     1       7.713   3.040  18.569  0.00  0.00    +0.000 HD
ENDBRANCH  32  33
ENDBRANCH  21  22
ENDBRANCH   2  21
TORSDOF 8
ENDMDL
MODEL 7
REMARK VINA RESULT:      -7.9      4.320      6.932
REMARK  Name = 
REMARK  8 active torsions:
REMARK  status: ('A' for Active; 'I' for Inactive)
REMARK    1  A    between atoms: N_1  and  C_2
REMARK    2  A    between atoms: C_2  and  N_4
REMARK    3  A    between atoms: N_4  and  N_5
REMARK    4  A    between atoms: C_6  and  C_7
REMARK    5  A    between atoms: C_6  and  C_20
REMARK    6  A    between atoms: C_7  and  C_8
REMARK    7  A    between atoms: C_18  and  O_19
REMARK    8  A    between atoms: N_22  and  C_23
REMARK                            x       y       z     vdW  Elec       q    Type
REMARK                         _______ _______ _______ _____ _____    ______ ____
ROOT
ATOM      1  N   UNL     1       2.903   4.509  19.687  0.00  0.00    +0.000 NA
ATOM      2  C   UNL     1       3.684   5.533  19.460  0.00  0.00    +0.000 C 
ENDROOT
BRANCH   2   3
ATOM      3  C   UNL     1       2.997   6.885  19.247  0.00  0.00    +0.000 C 
ATOM      4  O   UNL     1       3.296   7.531  18.252  0.00  0.00    +0.000 OA
ATOM      5  N   UNL     1       2.146   7.255  20.276  0.00  0.00    +0.000 N 
ATOM      6  H   UNL     1       2.101   6.606  21.058  0.00  0.00    +0.000 HD
BRANCH   5   7
ATOM      7  C   UNL     1       1.474   8.491  20.386  0.00  0.00    +0.000 A 
ATOM      8  C   UNL     1       1.134   9.057  21.616  0.00  0.00    +0.000 A 
ATOM      9  C   UNL     1       0.387  10.236  21.684  0.00  0.00    +0.000 A 
ATOM     10  C   UNL     1      -0.016  10.865  20.511  0.00  0.00    +0.000 A 
ATOM     11 CL   UNL     1      -0.985  12.282  20.603  0.00  0.00    +0.000 Cl
ATOM     12  C   UNL     1       0.353  10.342  19.277  0.00  0.00    +0.000 A 
ATOM     13  C   UNL     1       1.108   9.164  19.211  0.00  0.00    +0.000 A 
ENDBRANCH   5   7
ENDBRANCH   2   3
BRANCH   1  14
ATOM     14  N   UNL     1       3.482   3.278  19.838  0.00  0.00    +0.000 N 
ATOM     15  H   UNL     1       4.288   3.146  20.444  0.00  0.00    +0.000 HD
BRANCH  14  16
ATOM     16  C   UNL     1       3.162   2.242  19.006  0.00  0.00    +0.000 C 
ATOM     17  S   UNL     1       1.598   1.742  18.766  0.00  0.00    +0.000 S 
BRANCH  16  18
ATOM     18  N   UNL     1       4.205   1.636  18.393  0.00  0.00    +0.000 N 
ATOM     19  H   UNL     1       5.091   2.106  18.278  0.00  0.00    +0.000 HD
ATOM     20  H   UNL     1       4.101   0.661  18.152  0.00  0.00    +0.000 HD
ENDBRANCH  16  18
ENDBRANCH  14  16
ENDBRANCH   1  14
BRANCH   2  21
ATOM     21  C   UNL     1       5.200   5.559  19.416  0.00  0.00    +0.000 C 
BRANCH  21  22
ATOM     22  C   UNL     1       5.792   5.373  18.045  0.00  0.00    +0.000 A 
ATOM     23  N   UNL     1       5.174   4.553  17.161  0.00  0.00    +0.000 NA
ATOM     24  C   UNL     1       5.707   4.467  15.924  0.00  0.00    +0.000 A 
ATOM     25  C   UNL     1       5.070   3.699  14.959  0.00  0.00    +0.000 A 
ATOM     26  C   UNL     1       5.547   3.641  13.648  0.00  0.00    +0.000 A 
ATOM     27  C   UNL     1       6.693   4.351  13.310  0.00  0.00    +0.000 A 
ATOM     28 CL   UNL     1       7.262   4.331  11.687  0.00  0.00    +0.000 Cl
ATOM     29  C   UNL     1       7.367   5.095  14.273  0.00  0.00    +0.000 A 
ATOM     30  C   UNL     1       6.889   5.172  15.575  0.00  0.00    +0.000 A 
ATOM     31  N   UNL     1       7.538   5.932  16.474  0.00  0.00    +0.000 NA
ATOM     32  C   UNL     1       6.967   6.016  17.688  0.00  0.00    +0.000 A 
BRANCH  32  33
ATOM     33  O   UNL     1       7.644   6.820  18.544  0.00  0.00    +0.000 OA
ATOM     34  H   UNL     1       7.449   6.381  19.392  0.00  0.00    +0.000 HD
ENDBRANCH  32  33
ENDBRANCH  21  22
ENDBRANCH   2  21
TORSDOF 8
ENDMDL
MODEL 8
REMARK VINA RESULT:      -7.8      6.534      9.389
REMARK  Name = 
REMARK  8 active torsions:
REMARK  status: ('A' for Active; 'I' for Inactive)
REMARK    1  A    between atoms: N_1  and  C_2
REMARK    2  A    between atoms: C_2  and  N_4
REMARK    3  A    between atoms: N_4  and  N_5
REMARK    4  A    between atoms: C_6  and  C_7
REMARK    5  A    between atoms: C_6  and  C_20
REMARK    6  A    between atoms: C_7  and  C_8
REMARK    7  A    between atoms: C_18  and  O_19
REMARK    8  A    between atoms: N_22  and  C_23
REMARK                            x       y       z     vdW  Elec       q    Type
REMARK                         _______ _______ _______ _____ _____    ______ ____
ROOT
ATOM      1  N   UNL     1      -0.333  10.125  17.636  0.00  0.00    +0.000 NA
ATOM      2  C   UNL     1       0.702  10.131  18.435  0.00  0.00    +0.000 C 
ENDROOT
BRANCH   2   3
ATOM      3  C   UNL     1       1.641   8.925  18.352  0.00  0.00    +0.000 C 
ATOM      4  O   UNL     1       2.268   8.753  17.316  0.00  0.00    +0.000 OA
ATOM      5  N   UNL     1       1.611   8.108  19.472  0.00  0.00    +0.000 N 
ATOM      6  H   UNL     1       0.954   8.388  20.197  0.00  0.00    +0.000 HD
BRANCH   5   7
ATOM      7  C   UNL     1       2.292   6.881  19.615  0.00  0.00    +0.000 A 
ATOM      8  C   UNL     1       3.403   6.541  18.839  0.00  0.00    +0.000 A 
ATOM      9  C   UNL     1       3.995   5.279  18.944  0.00  0.00    +0.000 A 
ATOM     10  C   UNL     1       3.480   4.349  19.840  0.00  0.00    +0.000 A 
ATOM     11 CL   UNL     1       4.175   2.779  19.920  0.00  0.00    +0.000 Cl
ATOM     12  C   UNL     1       2.404   4.685  20.654  0.00  0.00    +0.000 A 
ATOM     13  C   UNL     1       1.817   5.953  20.553  0.00  0.00    +0.000 A 
ENDBRANCH   5   7
ENDBRANCH   2   3
BRANCH   1  14
ATOM     14  N   UNL     1      -1.216  11.168  17.716  0.00  0.00    +0.000 N 
ATOM     15  H   UNL     1      -1.070  11.932  18.369  0.00  0.00    +0.000 HD
BRANCH  14  16
ATOM     16  C   UNL     1      -2.439  11.103  17.107  0.00  0.00    +0.000 C 
ATOM     17  S   UNL     1      -2.749  10.081  15.838  0.00  0.00    +0.000 S 
BRANCH  16  18
ATOM     18  N   UNL     1      -3.385  11.937  17.598  0.00  0.00    +0.000 N 
ATOM     19  H   UNL     1      -3.731  11.841  18.542  0.00  0.00    +0.000 HD
ATOM     20  H   UNL     1      -3.654  12.724  17.026  0.00  0.00    +0.000 HD
ENDBRANCH  16  18
ENDBRANCH  14  16
ENDBRANCH   1  14
BRANCH   2  21
ATOM     21  C   UNL     1       1.114  11.211  19.419  0.00  0.00    +0.000 C 
BRANCH  21  22
ATOM     22  C   UNL     1       0.158  11.416  20.562  0.00  0.00    +0.000 A 
ATOM     23  N   UNL     1      -0.909  12.234  20.395  0.00  0.00    +0.000 NA
ATOM     24  C   UNL     1      -1.773  12.339  21.428  0.00  0.00    +0.000 A 
ATOM     25  C   UNL     1      -2.922  13.104  21.282  0.00  0.00    +0.000 A 
ATOM     26  C   UNL     1      -3.875  13.179  22.299  0.00  0.00    +0.000 A 
ATOM     27  C   UNL     1      -3.659  12.491  23.486  0.00  0.00    +0.000 A 
ATOM     28 CL   UNL     1      -4.850  12.533  24.727  0.00  0.00    +0.000 Cl
ATOM     29  C   UNL     1      -2.495  11.750  23.666  0.00  0.00    +0.000 A 
ATOM     30  C   UNL     1      -1.550  11.655  22.653  0.00  0.00    +0.000 A 
ATOM     31  N   UNL     1      -0.454  10.898  22.839  0.00  0.00    +0.000 NA
ATOM     32  C   UNL     1       0.371  10.795  21.784  0.00  0.00    +0.000 A 
BRANCH  32  33
ATOM     33  O   UNL     1       1.440   9.995  22.015  0.00  0.00    +0.000 OA
ATOM     34  H   UNL     1       1.160   9.557  22.839  0.00  0.00    +0.000 HD
ENDBRANCH  32  33
ENDBRANCH  21  22
ENDBRANCH   2  21
TORSDOF 8
ENDMDL
MODEL 9
REMARK VINA RESULT:      -7.7      6.893      9.694
REMARK  Name = 
REMARK  8 active torsions:
REMARK  status: ('A' for Active; 'I' for Inactive)
REMARK    1  A    between atoms: N_1  and  C_2
REMARK    2  A    between atoms: C_2  and  N_4
REMARK    3  A    between atoms: N_4  and  N_5
REMARK    4  A    between atoms: C_6  and  C_7
REMARK    5  A    between atoms: C_6  and  C_20
REMARK    6  A    between atoms: C_7  and  C_8
REMARK    7  A    between atoms: C_18  and  O_19
REMARK    8  A    between atoms: N_22  and  C_23
REMARK                            x       y       z     vdW  Elec       q    Type
REMARK                         _______ _______ _______ _____ _____    ______ ____
ROOT
ATOM      1  N   UNL     1       0.400   9.846  18.625  0.00  0.00    +0.000 NA
ATOM      2  C   UNL     1       0.907   9.778  19.829  0.00  0.00    +0.000 C 
ENDROOT
BRANCH   2   3
ATOM      3  C   UNL     1       1.372   8.397  20.301  0.00  0.00    +0.000 C 
ATOM      4  O   UNL     1       1.378   8.172  21.503  0.00  0.00    +0.000 OA
ATOM      5  N   UNL     1       1.811   7.570  19.279  0.00  0.00    +0.000 N 
ATOM      6  H   UNL     1       1.800   7.983  18.349  0.00  0.00    +0.000 HD
BRANCH   5   7
ATOM      7  C   UNL     1       2.389   6.294  19.444  0.00  0.00    +0.000 A 
ATOM      8  C   UNL     1       1.770   5.273  20.169  0.00  0.00    +0.000 A 
ATOM      9  C   UNL     1       2.414   4.053  20.389  0.00  0.00    +0.000 A 
ATOM     10  C   UNL     1       3.687   3.843  19.870  0.00  0.00    +0.000 A 
ATOM     11 CL   UNL     1       4.497   2.362  20.195  0.00  0.00    +0.000 Cl
ATOM     12  C   UNL     1       4.301   4.828  19.106  0.00  0.00    +0.000 A 
ATOM     13  C   UNL     1       3.650   6.048  18.880  0.00  0.00    +0.000 A 
ENDBRANCH   5   7
ENDBRANCH   2   3
BRANCH   1  14
ATOM     14  N   UNL     1      -0.066  11.057  18.189  0.00  0.00    +0.000 N 
ATOM     15  H   UNL     1       0.476  11.907  18.319  0.00  0.00    +0.000 HD
BRANCH  14  16
ATOM     16  C   UNL     1      -1.365  11.209  17.790  0.00  0.00    +0.000 C 
ATOM     17  S   UNL     1      -2.271   9.948  17.207  0.00  0.00    +0.000 S 
BRANCH  16  18
ATOM     18  N   UNL     1      -1.867  12.462  17.889  0.00  0.00    +0.000 N 
ATOM     19  H   UNL     1      -1.379  13.255  17.499  0.00  0.00    +0.000 HD
ATOM     20  H   UNL     1      -2.797  12.562  18.270  0.00  0.00    +0.000 HD
ENDBRANCH  16  18
ENDBRANCH  14  16
ENDBRANCH   1  14
BRANCH   2  21
ATOM     21  C   UNL     1       1.126  10.911  20.814  0.00  0.00    +0.000 C 
BRANCH  21  22
ATOM     22  C   UNL     1      -0.113  11.360  21.540  0.00  0.00    +0.000 A 
ATOM     23  N   UNL     1      -0.898  12.314  20.985  0.00  0.00    +0.000 NA
ATOM     24  C   UNL     1      -2.031  12.640  21.643  0.00  0.00    +0.000 A 
ATOM     25  C   UNL     1      -2.907  13.557  21.080  0.00  0.00    +0.000 A 
ATOM     26  C   UNL     1      -4.123  13.867  21.692  0.00  0.00    +0.000 A 
ATOM     27  C   UNL     1      -4.452  13.259  22.897  0.00  0.00    +0.000 A 
ATOM     28 CL   UNL     1      -5.970  13.592  23.636  0.00  0.00    +0.000 Cl
ATOM     29  C   UNL     1      -3.569  12.366  23.497  0.00  0.00    +0.000 A 
ATOM     30  C   UNL     1      -2.366  12.040  22.886  0.00  0.00    +0.000 A 
ATOM     31  N   UNL     1      -1.551  11.142  23.468  0.00  0.00    +0.000 NA
ATOM     32  C   UNL     1      -0.445  10.822  22.775  0.00  0.00    +0.000 A 
BRANCH  32  33
ATOM     33  O   UNL     1       0.323   9.890  23.391  0.00  0.00    +0.000 OA
ATOM     34  H   UNL     1      -0.354   9.231  23.629  0.00  0.00    +0.000 HD
ENDBRANCH  32  33
ENDBRANCH  21  22
ENDBRANCH   2  21
TORSDOF 8
ENDMDL
