MODEL 1
REMARK VINA RESULT:      -8.1      0.000      0.000
REMARK  Name = 
REMARK  6 active torsions:
REMARK  status: ('A' for Active; 'I' for Inactive)
REMARK    1  A    between atoms: C_1  and  N_2
REMARK    2  A    between atoms: N_2  and  C_3
REMARK    3  A    between atoms: N_2  and  C_11
REMARK    4  A    between atoms: C_3  and  C_4
REMARK    5  A    between atoms: C_17  and  N_18
REMARK    6  A    between atoms: C_19  and  C_21
REMARK                            x       y       z     vdW  Elec       q    Type
REMARK                         _______ _______ _______ _____ _____    ______ ____
ROOT
ATOM      1  C   UNL     1       2.276   4.394  19.333  0.00  0.00    +0.000 C 
ATOM      2  C   UNL     1       1.922   5.127  18.026  0.00  0.00    +0.000 C 
ATOM      3  C   UNL     1       2.384   6.556  18.272  0.00  0.00    +0.000 C 
ATOM      4  N   UNL     1       2.097   6.766  19.683  0.00  0.00    +0.000 N 
ATOM      5  C   UNL     1       1.547   7.933  20.166  0.00  0.00    +0.000 A 
ATOM      6  C   UNL     1       1.757   9.146  19.511  0.00  0.00    +0.000 A 
ATOM      7  C   UNL     1       1.226  10.343  19.997  0.00  0.00    +0.000 A 
ATOM      8  C   UNL     1       0.493  10.294  21.174  0.00  0.00    +0.000 A 
ATOM      9  C   UNL     1       0.325   9.060  21.782  0.00  0.00    +0.000 A 
ATOM     10  N   UNL     1       0.830   7.899  21.308  0.00  0.00    +0.000 NA
ATOM     11  C   UNL     1       1.844   5.495  20.360  0.00  0.00    +0.000 C 
ENDROOT
BRANCH   7  12
ATOM     12  N   UNL     1       1.409  11.599  19.351  0.00  0.00    +0.000 N 
ATOM     13  C   UNL     1       1.894  12.746  19.959  0.00  0.00    +0.000 C 
ATOM     14  O   UNL     1       2.277  12.834  21.125  0.00  0.00    +0.000 OA
ATOM     15  H   UNL     1       1.218  11.624  18.359  0.00  0.00    +0.000 HD
BRANCH  13  16
ATOM     16  C   UNL     1       2.005  13.990  19.145  0.00  0.00    +0.000 A 
ATOM     17  C   UNL     1       1.098  15.053  19.210  0.00  0.00    +0.000 A 
ATOM     18  C   UNL     1       1.359  16.227  18.490  0.00  0.00    +0.000 A 
ATOM     19  C   UNL     1       2.517  16.331  17.719  0.00  0.00    +0.000 A 
ATOM     20  F   UNL     1       2.771  17.471  17.062  0.00  0.00    +0.000 F 
ATOM     21  C   UNL     1       3.413  15.280  17.637  0.00  0.00    +0.000 A 
ATOM     22  C   UNL     1       3.159  14.113  18.345  0.00  0.00    +0.000 A 
ENDBRANCH  13  16
ENDBRANCH   7  12
BRANCH   1  24
ATOM     23  C   UNL     1       3.898   2.938  20.436  0.00  0.00    +0.000 C 
ATOM     24  N   UNL     1       3.704   3.951  19.382  0.00  0.00    +0.000 NA
BRANCH  24  25
ATOM     25  C   UNL     1       4.118   3.388  18.076  0.00  0.00    +0.000 C 
BRANCH  25  26
ATOM     26  C   UNL     1       5.223   4.151  17.386  0.00  0.00    +0.000 A 
ATOM     27  C   UNL     1       5.426   4.031  16.001  0.00  0.00    +0.000 A 
ATOM     28  C   UNL     1       6.452   4.739  15.371  0.00  0.00    +0.000 A 
ATOM     29  C   UNL     1       7.294   5.555  16.124  0.00  0.00    +0.000 A 
ATOM     30  C   UNL     1       7.116   5.646  17.499  0.00  0.00    +0.000 A 
ATOM     31  F   UNL     1       7.937   6.415  18.225  0.00  0.00    +0.000 F 
ATOM     32  C   UNL     1       6.096   4.948  18.136  0.00  0.00    +0.000 A 
ENDBRANCH  25  26
ENDBRANCH  24  25
ENDBRANCH   1  24
TORSDOF 5
ENDMDL
MODEL 2
REMARK VINA RESULT:      -8.0      0.960      1.090
REMARK  Name = 
REMARK  6 active torsions:
REMARK  status: ('A' for Active; 'I' for Inactive)
REMARK    1  A    between atoms: C_1  and  N_2
REMARK    2  A    between atoms: N_2  and  C_3
REMARK    3  A    between atoms: N_2  and  C_11
REMARK    4  A    between atoms: C_3  and  C_4
REMARK    5  A    between atoms: C_17  and  N_18
REMARK    6  A    between atoms: C_19  and  C_21
REMARK                            x       y       z     vdW  Elec       q    Type
REMARK                         _______ _______ _______ _____ _____    ______ ____
ROOT
ATOM      1  C   UNL     1       2.249   4.664  19.434  0.00  0.00    +0.000 C 
ATOM      2  C   UNL     1       1.949   5.388  18.109  0.00  0.00    +0.000 C 
ATOM      3  C   UNL     1       2.377   6.824  18.373  0.00  0.00    +0.000 C 
ATOM      4  N   UNL     1       2.016   7.034  19.767  0.00  0.00    +0.000 N 
ATOM      5  C   UNL     1       1.424   8.193  20.218  0.00  0.00    +0.000 A 
ATOM      6  C   UNL     1       1.647   9.408  19.569  0.00  0.00    +0.000 A 
ATOM      7  C   UNL     1       1.074  10.598  20.023  0.00  0.00    +0.000 A 
ATOM      8  C   UNL     1       0.283  10.540  21.163  0.00  0.00    +0.000 A 
ATOM      9  C   UNL     1       0.104   9.306  21.766  0.00  0.00    +0.000 A 
ATOM     10  N   UNL     1       0.650   8.151  21.322  0.00  0.00    +0.000 NA
ATOM     11  C   UNL     1       1.749   5.761  20.435  0.00  0.00    +0.000 C 
ENDROOT
BRANCH   7  12
ATOM     12  N   UNL     1       1.270  11.855  19.383  0.00  0.00    +0.000 N 
ATOM     13  C   UNL     1       1.859  12.964  19.967  0.00  0.00    +0.000 C 
ATOM     14  O   UNL     1       2.337  13.012  21.100  0.00  0.00    +0.000 OA
ATOM     15  H   UNL     1       1.002  11.907  18.411  0.00  0.00    +0.000 HD
BRANCH  13  16
ATOM     16  C   UNL     1       1.969  14.216  19.165  0.00  0.00    +0.000 A 
ATOM     17  C   UNL     1       1.171  15.348  19.365  0.00  0.00    +0.000 A 
ATOM     18  C   UNL     1       1.436  16.515  18.635  0.00  0.00    +0.000 A 
ATOM     19  C   UNL     1       2.488  16.544  17.720  0.00  0.00    +0.000 A 
ATOM     20  F   UNL     1       2.751  17.677  17.053  0.00  0.00    +0.000 F 
ATOM     21  C   UNL     1       3.274  15.425  17.505  0.00  0.00    +0.000 A 
ATOM     22  C   UNL     1       3.016  14.265  18.222  0.00  0.00    +0.000 A 
ENDBRANCH  13  16
ENDBRANCH   7  12
BRANCH   1  24
ATOM     23  C   UNL     1       3.775   2.859  20.054  0.00  0.00    +0.000 C 
ATOM     24  N   UNL     1       3.679   4.244  19.557  0.00  0.00    +0.000 NA
BRANCH  24  25
ATOM     25  C   UNL     1       4.364   4.346  18.248  0.00  0.00    +0.000 C 
BRANCH  25  26
ATOM     26  C   UNL     1       5.585   5.232  18.244  0.00  0.00    +0.000 A 
ATOM     27  C   UNL     1       5.712   6.284  17.322  0.00  0.00    +0.000 A 
ATOM     28  C   UNL     1       6.847   7.098  17.325  0.00  0.00    +0.000 A 
ATOM     29  C   UNL     1       7.872   6.854  18.237  0.00  0.00    +0.000 A 
ATOM     30  C   UNL     1       7.763   5.792  19.126  0.00  0.00    +0.000 A 
ATOM     31  F   UNL     1       8.756   5.546  19.990  0.00  0.00    +0.000 F 
ATOM     32  C   UNL     1       6.637   4.977  19.134  0.00  0.00    +0.000 A 
ENDBRANCH  25  26
ENDBRANCH  24  25
ENDBRANCH   1  24
TORSDOF 5
ENDMDL
MODEL 3
REMARK VINA RESULT:      -7.9      0.772      1.152
REMARK  Name = 
REMARK  6 active torsions:
REMARK  status: ('A' for Active; 'I' for Inactive)
REMARK    1  A    between atoms: C_1  and  N_2
REMARK    2  A    between atoms: N_2  and  C_3
REMARK    3  A    between atoms: N_2  and  C_11
REMARK    4  A    between atoms: C_3  and  C_4
REMARK    5  A    between atoms: C_17  and  N_18
REMARK    6  A    between atoms: C_19  and  C_21
REMARK                            x       y       z     vdW  Elec       q    Type
REMARK                         _______ _______ _______ _____ _____    ______ ____
ROOT
ATOM      1  C   UNL     1       2.197   4.487  19.455  0.00  0.00    +0.000 C 
ATOM      2  C   UNL     1       1.852   5.212  18.141  0.00  0.00    +0.000 C 
ATOM      3  C   UNL     1       2.305   6.644  18.384  0.00  0.00    +0.000 C 
ATOM      4  N   UNL     1       2.003   6.861  19.791  0.00  0.00    +0.000 N 
ATOM      5  C   UNL     1       1.443   8.028  20.262  0.00  0.00    +0.000 A 
ATOM      6  C   UNL     1       1.653   9.238  19.601  0.00  0.00    +0.000 A 
ATOM      7  C   UNL     1       1.111  10.435  20.075  0.00  0.00    +0.000 A 
ATOM      8  C   UNL     1       0.367  10.390  21.246  0.00  0.00    +0.000 A 
ATOM      9  C   UNL     1       0.199   9.158  21.859  0.00  0.00    +0.000 A 
ATOM     10  N   UNL     1       0.714   7.997  21.396  0.00  0.00    +0.000 NA
ATOM     11  C   UNL     1       1.749   5.592  20.472  0.00  0.00    +0.000 C 
ENDROOT
BRANCH   7  12
ATOM     12  N   UNL     1       1.295  11.689  19.425  0.00  0.00    +0.000 N 
ATOM     13  C   UNL     1       1.948  12.783  19.969  0.00  0.00    +0.000 C 
ATOM     14  O   UNL     1       2.499  12.817  21.068  0.00  0.00    +0.000 OA
ATOM     15  H   UNL     1       0.966  11.749  18.471  0.00  0.00    +0.000 HD
BRANCH  13  16
ATOM     16  C   UNL     1       2.035  14.033  19.162  0.00  0.00    +0.000 A 
ATOM     17  C   UNL     1       1.144  15.105  19.279  0.00  0.00    +0.000 A 
ATOM     18  C   UNL     1       1.385  16.283  18.558  0.00  0.00    +0.000 A 
ATOM     19  C   UNL     1       2.506  16.382  17.735  0.00  0.00    +0.000 A 
ATOM     20  F   UNL     1       2.743  17.526  17.077  0.00  0.00    +0.000 F 
ATOM     21  C   UNL     1       3.387  15.322  17.602  0.00  0.00    +0.000 A 
ATOM     22  C   UNL     1       3.152  14.151  18.310  0.00  0.00    +0.000 A 
ENDBRANCH  13  16
ENDBRANCH   7  12
BRANCH   1  24
ATOM     23  C   UNL     1       3.775   2.890  20.416  0.00  0.00    +0.000 C 
ATOM     24  N   UNL     1       3.626   4.052  19.521  0.00  0.00    +0.000 NA
BRANCH  24  25
ATOM     25  C   UNL     1       4.124   3.701  18.172  0.00  0.00    +0.000 C 
BRANCH  25  26
ATOM     26  C   UNL     1       5.291   4.532  17.696  0.00  0.00    +0.000 A 
ATOM     27  C   UNL     1       5.849   5.528  18.514  0.00  0.00    +0.000 A 
ATOM     28  C   UNL     1       6.927   6.293  18.064  0.00  0.00    +0.000 A 
ATOM     29  C   UNL     1       7.442   6.082  16.786  0.00  0.00    +0.000 A 
ATOM     30  C   UNL     1       6.867   5.121  15.963  0.00  0.00    +0.000 A 
ATOM     31  F   UNL     1       7.348   4.931  14.729  0.00  0.00    +0.000 F 
ATOM     32  C   UNL     1       5.796   4.352  16.402  0.00  0.00    +0.000 A 
ENDBRANCH  25  26
ENDBRANCH  24  25
ENDBRANCH   1  24
TORSDOF 5
ENDMDL
MODEL 4
REMARK VINA RESULT:      -7.9      0.492      1.006
REMARK  Name = 
REMARK  6 active torsions:
REMARK  status: ('A' for Active; 'I' for Inactive)
REMARK    1  A    between atoms: C_1  and  N_2
REMARK    2  A    between atoms: N_2  and  C_3
REMARK    3  A    between atoms: N_2  and  C_11
REMARK    4  A    between atoms: C_3  and  C_4
REMARK    5  A    between atoms: C_17  and  N_18
REMARK    6  A    between atoms: C_19  and  C_21
REMARK                            x       y       z     vdW  Elec       q    Type
REMARK                         _______ _______ _______ _____ _____    ______ ____
ROOT
ATOM      1  C   UNL     1       2.181   4.549  19.447  0.00  0.00    +0.000 C 
ATOM      2  C   UNL     1       2.017   5.289  18.107  0.00  0.00    +0.000 C 
ATOM      3  C   UNL     1       2.489   6.703  18.412  0.00  0.00    +0.000 C 
ATOM      4  N   UNL     1       2.033   6.927  19.776  0.00  0.00    +0.000 N 
ATOM      5  C   UNL     1       1.463   8.111  20.187  0.00  0.00    +0.000 A 
ATOM      6  C   UNL     1       1.792   9.316  19.565  0.00  0.00    +0.000 A 
ATOM      7  C   UNL     1       1.241  10.530  19.981  0.00  0.00    +0.000 A 
ATOM      8  C   UNL     1       0.364  10.507  21.056  0.00  0.00    +0.000 A 
ATOM      9  C   UNL     1       0.082   9.280  21.637  0.00  0.00    +0.000 A 
ATOM     10  N   UNL     1       0.607   8.103  21.229  0.00  0.00    +0.000 NA
ATOM     11  C   UNL     1       1.657   5.666  20.413  0.00  0.00    +0.000 C 
ENDROOT
BRANCH   7  12
ATOM     12  N   UNL     1       1.544  11.778  19.365  0.00  0.00    +0.000 N 
ATOM     13  C   UNL     1       1.975  12.913  20.032  0.00  0.00    +0.000 C 
ATOM     14  O   UNL     1       2.201  12.995  21.239  0.00  0.00    +0.000 OA
ATOM     15  H   UNL     1       1.487  11.804  18.357  0.00  0.00    +0.000 HD
BRANCH  13  16
ATOM     16  C   UNL     1       2.228  14.151  19.240  0.00  0.00    +0.000 A 
ATOM     17  C   UNL     1       3.232  14.272  18.274  0.00  0.00    +0.000 A 
ATOM     18  C   UNL     1       3.308  15.440  17.502  0.00  0.00    +0.000 A 
ATOM     19  C   UNL     1       2.387  16.468  17.698  0.00  0.00    +0.000 A 
ATOM     20  F   UNL     1       2.450  17.565  16.930  0.00  0.00    +0.000 F 
ATOM     21  C   UNL     1       1.398  16.364  18.661  0.00  0.00    +0.000 A 
ATOM     22  C   UNL     1       1.319  15.211  19.431  0.00  0.00    +0.000 A 
ENDBRANCH  13  16
ENDBRANCH   7  12
BRANCH   1  24
ATOM     23  C   UNL     1       3.584   2.930  20.621  0.00  0.00    +0.000 C 
ATOM     24  N   UNL     1       3.576   4.062  19.676  0.00  0.00    +0.000 NA
BRANCH  24  25
ATOM     25  C   UNL     1       4.195   3.641  18.398  0.00  0.00    +0.000 C 
BRANCH  25  26
ATOM     26  C   UNL     1       5.300   4.545  17.908  0.00  0.00    +0.000 A 
ATOM     27  C   UNL     1       5.423   4.861  16.544  0.00  0.00    +0.000 A 
ATOM     28  C   UNL     1       6.450   5.696  16.100  0.00  0.00    +0.000 A 
ATOM     29  C   UNL     1       7.374   6.204  17.012  0.00  0.00    +0.000 A 
ATOM     30  C   UNL     1       7.274   5.863  18.355  0.00  0.00    +0.000 A 
ATOM     31  F   UNL     1       8.172   6.335  19.228  0.00  0.00    +0.000 F 
ATOM     32  C   UNL     1       6.254   5.035  18.809  0.00  0.00    +0.000 A 
ENDBRANCH  25  26
ENDBRANCH  24  25
ENDBRANCH   1  24
TORSDOF 5
ENDMDL
MODEL 5
REMARK VINA RESULT:      -7.8      1.424      1.755
REMARK  Name = 
REMARK  6 active torsions:
REMARK  status: ('A' for Active; 'I' for Inactive)
REMARK    1  A    between atoms: C_1  and  N_2
REMARK    2  A    between atoms: N_2  and  C_3
REMARK    3  A    between atoms: N_2  and  C_11
REMARK    4  A    between atoms: C_3  and  C_4
REMARK    5  A    between atoms: C_17  and  N_18
REMARK    6  A    between atoms: C_19  and  C_21
REMARK                            x       y       z     vdW  Elec       q    Type
REMARK                         _______ _______ _______ _____ _____    ______ ____
ROOT
ATOM      1  C   UNL     1       2.352   4.812  19.312  0.00  0.00    +0.000 C 
ATOM      2  C   UNL     1       2.111   5.713  18.086  0.00  0.00    +0.000 C 
ATOM      3  C   UNL     1       2.452   7.109  18.586  0.00  0.00    +0.000 C 
ATOM      4  N   UNL     1       1.986   7.098  19.965  0.00  0.00    +0.000 N 
ATOM      5  C   UNL     1       1.311   8.156  20.533  0.00  0.00    +0.000 A 
ATOM      6  C   UNL     1       1.522   9.460  20.085  0.00  0.00    +0.000 A 
ATOM      7  C   UNL     1       0.864  10.548  20.662  0.00  0.00    +0.000 A 
ATOM      8  C   UNL     1      -0.000  10.296  21.718  0.00  0.00    +0.000 A 
ATOM      9  C   UNL     1      -0.163   8.980  22.122  0.00  0.00    +0.000 A 
ATOM     10  N   UNL     1       0.466   7.924  21.558  0.00  0.00    +0.000 NA
ATOM     11  C   UNL     1       1.733   5.731  20.420  0.00  0.00    +0.000 C 
ENDROOT
BRANCH   7  12
ATOM     12  N   UNL     1       1.045  11.893  20.227  0.00  0.00    +0.000 N 
ATOM     13  C   UNL     1       0.274  12.533  19.270  0.00  0.00    +0.000 C 
ATOM     14  O   UNL     1      -0.701  12.052  18.694  0.00  0.00    +0.000 OA
ATOM     15  H   UNL     1       1.760  12.423  20.703  0.00  0.00    +0.000 HD
BRANCH  13  16
ATOM     16  C   UNL     1       0.610  13.940  18.911  0.00  0.00    +0.000 A 
ATOM     17  C   UNL     1      -0.323  14.982  18.863  0.00  0.00    +0.000 A 
ATOM     18  C   UNL     1       0.119  16.291  18.630  0.00  0.00    +0.000 A 
ATOM     19  C   UNL     1       1.477  16.550  18.451  0.00  0.00    +0.000 A 
ATOM     20  F   UNL     1       1.890  17.812  18.262  0.00  0.00    +0.000 F 
ATOM     21  C   UNL     1       2.407  15.525  18.482  0.00  0.00    +0.000 A 
ATOM     22  C   UNL     1       1.976  14.224  18.709  0.00  0.00    +0.000 A 
ENDBRANCH  13  16
ENDBRANCH   7  12
BRANCH   1  24
ATOM     23  C   UNL     1       3.907   3.022  19.898  0.00  0.00    +0.000 C 
ATOM     24  N   UNL     1       3.788   4.431  19.480  0.00  0.00    +0.000 NA
BRANCH  24  25
ATOM     25  C   UNL     1       4.530   4.632  18.214  0.00  0.00    +0.000 C 
BRANCH  25  26
ATOM     26  C   UNL     1       5.807   5.425  18.353  0.00  0.00    +0.000 A 
ATOM     27  C   UNL     1       6.773   5.076  19.312  0.00  0.00    +0.000 A 
ATOM     28  C   UNL     1       7.950   5.817  19.433  0.00  0.00    +0.000 A 
ATOM     29  C   UNL     1       8.161   6.924  18.613  0.00  0.00    +0.000 A 
ATOM     30  C   UNL     1       7.190   7.290  17.689  0.00  0.00    +0.000 A 
ATOM     31  F   UNL     1       7.384   8.364  16.914  0.00  0.00    +0.000 F 
ATOM     32  C   UNL     1       6.016   6.558  17.557  0.00  0.00    +0.000 A 
ENDBRANCH  25  26
ENDBRANCH  24  25
ENDBRANCH   1  24
TORSDOF 5
ENDMDL
MODEL 6
REMARK VINA RESULT:      -7.7      1.062      1.388
REMARK  Name = 
REMARK  6 active torsions:
REMARK  status: ('A' for Active; 'I' for Inactive)
REMARK    1  A    between atoms: C_1  and  N_2
REMARK    2  A    between atoms: N_2  and  C_3
REMARK    3  A    between atoms: N_2  and  C_11
REMARK    4  A    between atoms: C_3  and  C_4
REMARK    5  A    between atoms: C_17  and  N_18
REMARK    6  A    between atoms: C_19  and  C_21
REMARK                            x       y       z     vdW  Elec       q    Type
REMARK                         _______ _______ _______ _____ _____    ______ ____
ROOT
ATOM      1  C   UNL     1       2.218   4.419  19.346  0.00  0.00    +0.000 C 
ATOM      2  C   UNL     1       2.122   5.369  18.138  0.00  0.00    +0.000 C 
ATOM      3  C   UNL     1       2.487   6.730  18.714  0.00  0.00    +0.000 C 
ATOM      4  N   UNL     1       1.910   6.698  20.050  0.00  0.00    +0.000 N 
ATOM      5  C   UNL     1       1.243   7.770  20.599  0.00  0.00    +0.000 A 
ATOM      6  C   UNL     1       1.551   9.076  20.217  0.00  0.00    +0.000 A 
ATOM      7  C   UNL     1       0.901  10.177  20.778  0.00  0.00    +0.000 A 
ATOM      8  C   UNL     1      -0.058   9.935  21.752  0.00  0.00    +0.000 A 
ATOM      9  C   UNL     1      -0.316   8.616  22.094  0.00  0.00    +0.000 A 
ATOM     10  N   UNL     1       0.306   7.549  21.545  0.00  0.00    +0.000 NA
ATOM     11  C   UNL     1       1.555   5.332  20.433  0.00  0.00    +0.000 C 
ENDROOT
BRANCH   7  12
ATOM     12  N   UNL     1       1.181  11.523  20.408  0.00  0.00    +0.000 N 
ATOM     13  C   UNL     1       0.372  12.317  19.611  0.00  0.00    +0.000 C 
ATOM     14  O   UNL     1      -0.720  11.992  19.147  0.00  0.00    +0.000 OA
ATOM     15  H   UNL     1       2.011  11.934  20.812  0.00  0.00    +0.000 HD
BRANCH  13  16
ATOM     16  C   UNL     1       0.822  13.703  19.297  0.00  0.00    +0.000 A 
ATOM     17  C   UNL     1       2.163  14.079  19.154  0.00  0.00    +0.000 A 
ATOM     18  C   UNL     1       2.472  15.382  18.741  0.00  0.00    +0.000 A 
ATOM     19  C   UNL     1       1.450  16.292  18.474  0.00  0.00    +0.000 A 
ATOM     20  F   UNL     1       1.760  17.525  18.048  0.00  0.00    +0.000 F 
ATOM     21  C   UNL     1       0.122  15.935  18.626  0.00  0.00    +0.000 A 
ATOM     22  C   UNL     1      -0.193  14.646  19.038  0.00  0.00    +0.000 A 
ENDBRANCH  13  16
ENDBRANCH   7  12
BRANCH   1  24
ATOM     23  C   UNL     1       3.623   2.861  20.597  0.00  0.00    +0.000 C 
ATOM     24  N   UNL     1       3.616   3.960  19.615  0.00  0.00    +0.000 NA
BRANCH  24  25
ATOM     25  C   UNL     1       4.262   3.505  18.363  0.00  0.00    +0.000 C 
BRANCH  25  26
ATOM     26  C   UNL     1       5.299   4.452  17.810  0.00  0.00    +0.000 A 
ATOM     27  C   UNL     1       5.373   4.718  16.432  0.00  0.00    +0.000 A 
ATOM     28  C   UNL     1       6.338   5.594  15.931  0.00  0.00    +0.000 A 
ATOM     29  C   UNL     1       7.248   6.195  16.799  0.00  0.00    +0.000 A 
ATOM     30  C   UNL     1       7.197   5.904  18.157  0.00  0.00    +0.000 A 
ATOM     31  F   UNL     1       8.083   6.466  18.989  0.00  0.00    +0.000 F 
ATOM     32  C   UNL     1       6.240   5.036  18.668  0.00  0.00    +0.000 A 
ENDBRANCH  25  26
ENDBRANCH  24  25
ENDBRANCH   1  24
TORSDOF 5
ENDMDL
MODEL 7
REMARK VINA RESULT:      -7.7      0.974      1.012
REMARK  Name = 
REMARK  6 active torsions:
REMARK  status: ('A' for Active; 'I' for Inactive)
REMARK    1  A    between atoms: C_1  and  N_2
REMARK    2  A    between atoms: N_2  and  C_3
REMARK    3  A    between atoms: N_2  and  C_11
REMARK    4  A    between atoms: C_3  and  C_4
REMARK    5  A    between atoms: C_17  and  N_18
REMARK    6  A    between atoms: C_19  and  C_21
REMARK                            x       y       z     vdW  Elec       q    Type
REMARK                         _______ _______ _______ _____ _____    ______ ____
ROOT
ATOM      1  C   UNL     1       2.246   4.531  19.117  0.00  0.00    +0.000 C 
ATOM      2  C   UNL     1       1.934   5.443  17.916  0.00  0.00    +0.000 C 
ATOM      3  C   UNL     1       2.357   6.826  18.389  0.00  0.00    +0.000 C 
ATOM      4  N   UNL     1       2.003   6.825  19.800  0.00  0.00    +0.000 N 
ATOM      5  C   UNL     1       1.410   7.900  20.422  0.00  0.00    +0.000 A 
ATOM      6  C   UNL     1       1.623   9.199  19.961  0.00  0.00    +0.000 A 
ATOM      7  C   UNL     1       1.047  10.305  20.590  0.00  0.00    +0.000 A 
ATOM      8  C   UNL     1       0.264  10.074  21.713  0.00  0.00    +0.000 A 
ATOM      9  C   UNL     1       0.094   8.762  22.126  0.00  0.00    +0.000 A 
ATOM     10  N   UNL     1       0.643   7.690  21.512  0.00  0.00    +0.000 NA
ATOM     11  C   UNL     1       1.746   5.464  20.272  0.00  0.00    +0.000 C 
ENDROOT
BRANCH   7  12
ATOM     12  N   UNL     1       1.234  11.644  20.144  0.00  0.00    +0.000 N 
ATOM     13  C   UNL     1       0.344  12.353  19.353  0.00  0.00    +0.000 C 
ATOM     14  O   UNL     1      -0.749  11.948  18.960  0.00  0.00    +0.000 OA
ATOM     15  H   UNL     1       2.058  12.118  20.485  0.00  0.00    +0.000 HD
BRANCH  13  16
ATOM     16  C   UNL     1       0.701  13.744  18.952  0.00  0.00    +0.000 A 
ATOM     17  C   UNL     1      -0.208  14.807  18.915  0.00  0.00    +0.000 A 
ATOM     18  C   UNL     1       0.256  16.101  18.640  0.00  0.00    +0.000 A 
ATOM     19  C   UNL     1       1.613  16.322  18.408  0.00  0.00    +0.000 A 
ATOM     20  F   UNL     1       2.048  17.570  18.178  0.00  0.00    +0.000 F 
ATOM     21  C   UNL     1       2.518  15.276  18.428  0.00  0.00    +0.000 A 
ATOM     22  C   UNL     1       2.065  13.991  18.697  0.00  0.00    +0.000 A 
ENDBRANCH  13  16
ENDBRANCH   7  12
BRANCH   1  24
ATOM     23  C   UNL     1       3.897   3.145  20.265  0.00  0.00    +0.000 C 
ATOM     24  N   UNL     1       3.678   4.106  19.168  0.00  0.00    +0.000 NA
BRANCH  24  25
ATOM     25  C   UNL     1       4.081   3.487  17.884  0.00  0.00    +0.000 C 
BRANCH  25  26
ATOM     26  C   UNL     1       5.220   4.184  17.181  0.00  0.00    +0.000 A 
ATOM     27  C   UNL     1       5.583   3.832  15.870  0.00  0.00    +0.000 A 
ATOM     28  C   UNL     1       6.640   4.482  15.229  0.00  0.00    +0.000 A 
ATOM     29  C   UNL     1       7.353   5.474  15.899  0.00  0.00    +0.000 A 
ATOM     30  C   UNL     1       7.017   5.798  17.207  0.00  0.00    +0.000 A 
ATOM     31  F   UNL     1       7.714   6.737  17.858  0.00  0.00    +0.000 F 
ATOM     32  C   UNL     1       5.965   5.160  17.855  0.00  0.00    +0.000 A 
ENDBRANCH  25  26
ENDBRANCH  24  25
ENDBRANCH   1  24
TORSDOF 5
ENDMDL
MODEL 8
REMARK VINA RESULT:      -7.5      3.825      9.396
REMARK  Name = 
REMARK  6 active torsions:
REMARK  status: ('A' for Active; 'I' for Inactive)
REMARK    1  A    between atoms: C_1  and  N_2
REMARK    2  A    between atoms: N_2  and  C_3
REMARK    3  A    between atoms: N_2  and  C_11
REMARK    4  A    between atoms: C_3  and  C_4
REMARK    5  A    between atoms: C_17  and  N_18
REMARK    6  A    between atoms: C_19  and  C_21
REMARK                            x       y       z     vdW  Elec       q    Type
REMARK                         _______ _______ _______ _____ _____    ______ ____
ROOT
ATOM      1  C   UNL     1       0.344  11.720  20.271  0.00  0.00    +0.000 C 
ATOM      2  C   UNL     1       1.592  11.887  19.384  0.00  0.00    +0.000 C 
ATOM      3  C   UNL     1       1.614  10.618  18.545  0.00  0.00    +0.000 C 
ATOM      4  N   UNL     1       1.131   9.597  19.461  0.00  0.00    +0.000 N 
ATOM      5  C   UNL     1       1.695   8.344  19.547  0.00  0.00    +0.000 A 
ATOM      6  C   UNL     1       2.329   7.769  18.445  0.00  0.00    +0.000 A 
ATOM      7  C   UNL     1       2.889   6.491  18.506  0.00  0.00    +0.000 A 
ATOM      8  C   UNL     1       2.778   5.793  19.700  0.00  0.00    +0.000 A 
ATOM      9  C   UNL     1       2.132   6.414  20.757  0.00  0.00    +0.000 A 
ATOM     10  N   UNL     1       1.598   7.655  20.703  0.00  0.00    +0.000 NA
ATOM     11  C   UNL     1       0.497  10.203  20.632  0.00  0.00    +0.000 C 
ENDROOT
BRANCH   7  12
ATOM     12  N   UNL     1       3.552   5.874  17.407  0.00  0.00    +0.000 N 
ATOM     13  C   UNL     1       4.923   5.862  17.206  0.00  0.00    +0.000 C 
ATOM     14  O   UNL     1       5.765   6.339  17.966  0.00  0.00    +0.000 OA
ATOM     15  H   UNL     1       2.967   5.363  16.762  0.00  0.00    +0.000 HD
BRANCH  13  16
ATOM     16  C   UNL     1       5.458   5.190  15.988  0.00  0.00    +0.000 A 
ATOM     17  C   UNL     1       4.684   4.418  15.114  0.00  0.00    +0.000 A 
ATOM     18  C   UNL     1       5.260   3.929  13.934  0.00  0.00    +0.000 A 
ATOM     19  C   UNL     1       6.592   4.213  13.635  0.00  0.00    +0.000 A 
ATOM     20  F   UNL     1       7.120   3.767  12.486  0.00  0.00    +0.000 F 
ATOM     21  C   UNL     1       7.370   4.963  14.499  0.00  0.00    +0.000 A 
ATOM     22  C   UNL     1       6.807   5.449  15.672  0.00  0.00    +0.000 A 
ENDBRANCH  13  16
ENDBRANCH   7  12
BRANCH   1  24
ATOM     23  C   UNL     1      -0.629  12.671  18.243  0.00  0.00    +0.000 C 
ATOM     24  N   UNL     1      -0.919  12.122  19.580  0.00  0.00    +0.000 NA
BRANCH  24  25
ATOM     25  C   UNL     1      -1.831  10.962  19.449  0.00  0.00    +0.000 C 
BRANCH  25  26
ATOM     26  C   UNL     1      -2.522  10.854  18.111  0.00  0.00    +0.000 A 
ATOM     27  C   UNL     1      -1.949  10.122  17.059  0.00  0.00    +0.000 A 
ATOM     28  C   UNL     1      -2.596  10.030  15.825  0.00  0.00    +0.000 A 
ATOM     29  C   UNL     1      -3.810  10.686  15.627  0.00  0.00    +0.000 A 
ATOM     30  C   UNL     1      -4.359  11.439  16.657  0.00  0.00    +0.000 A 
ATOM     31  F   UNL     1      -5.516  12.085  16.462  0.00  0.00    +0.000 F 
ATOM     32  C   UNL     1      -3.726  11.536  17.891  0.00  0.00    +0.000 A 
ENDBRANCH  25  26
ENDBRANCH  24  25
ENDBRANCH   1  24
TORSDOF 5
ENDMDL
MODEL 9
REMARK VINA RESULT:      -7.4      2.915      9.522
REMARK  Name = 
REMARK  6 active torsions:
REMARK  status: ('A' for Active; 'I' for Inactive)
REMARK    1  A    between atoms: C_1  and  N_2
REMARK    2  A    between atoms: N_2  and  C_3
REMARK    3  A    between atoms: N_2  and  C_11
REMARK    4  A    between atoms: C_3  and  C_4
REMARK    5  A    between atoms: C_17  and  N_18
REMARK    6  A    between atoms: C_19  and  C_21
REMARK                            x       y       z     vdW  Elec       q    Type
REMARK                         _______ _______ _______ _____ _____    ______ ____
ROOT
ATOM      1  C   UNL     1       1.960  15.908  19.292  0.00  0.00    +0.000 C 
ATOM      2  C   UNL     1       2.562  15.073  20.437  0.00  0.00    +0.000 C 
ATOM      3  C   UNL     1       2.740  13.691  19.827  0.00  0.00    +0.000 C 
ATOM      4  N   UNL     1       1.586  13.557  18.949  0.00  0.00    +0.000 N 
ATOM      5  C   UNL     1       0.851  12.396  18.855  0.00  0.00    +0.000 A 
ATOM      6  C   UNL     1       1.440  11.156  19.102  0.00  0.00    +0.000 A 
ATOM      7  C   UNL     1       0.717   9.966  18.991  0.00  0.00    +0.000 A 
ATOM      8  C   UNL     1      -0.613  10.052  18.605  0.00  0.00    +0.000 A 
ATOM      9  C   UNL     1      -1.140  11.312  18.368  0.00  0.00    +0.000 A 
ATOM     10  N   UNL     1      -0.444  12.465  18.484  0.00  0.00    +0.000 NA
ATOM     11  C   UNL     1       0.951  14.854  18.721  0.00  0.00    +0.000 C 
ENDROOT
BRANCH   7  12
ATOM     12  N   UNL     1       1.280   8.682  19.244  0.00  0.00    +0.000 N 
ATOM     13  C   UNL     1       2.141   8.007  18.395  0.00  0.00    +0.000 C 
ATOM     14  O   UNL     1       2.579   8.434  17.327  0.00  0.00    +0.000 OA
ATOM     15  H   UNL     1       1.067   8.271  20.142  0.00  0.00    +0.000 HD
BRANCH  13  16
ATOM     16  C   UNL     1       2.624   6.656  18.799  0.00  0.00    +0.000 A 
ATOM     17  C   UNL     1       2.257   6.014  19.987  0.00  0.00    +0.000 A 
ATOM     18  C   UNL     1       2.673   4.696  20.215  0.00  0.00    +0.000 A 
ATOM     19  C   UNL     1       3.445   4.032  19.262  0.00  0.00    +0.000 A 
ATOM     20  F   UNL     1       3.809   2.759  19.478  0.00  0.00    +0.000 F 
ATOM     21  C   UNL     1       3.826   4.662  18.090  0.00  0.00    +0.000 A 
ATOM     22  C   UNL     1       3.420   5.970  17.859  0.00  0.00    +0.000 A 
ENDBRANCH  13  16
ENDBRANCH   7  12
BRANCH   1  24
ATOM     23  C   UNL     1       2.420  17.460  17.462  0.00  0.00    +0.000 C 
ATOM     24  N   UNL     1       2.995  16.429  18.346  0.00  0.00    +0.000 NA
BRANCH  24  25
ATOM     25  C   UNL     1       4.138  17.003  19.093  0.00  0.00    +0.000 C 
BRANCH  25  26
ATOM     26  C   UNL     1       5.486  16.450  18.702  0.00  0.00    +0.000 A 
ATOM     27  C   UNL     1       6.655  17.212  18.864  0.00  0.00    +0.000 A 
ATOM     28  C   UNL     1       7.897  16.691  18.497  0.00  0.00    +0.000 A 
ATOM     29  C   UNL     1       7.979  15.413  17.947  0.00  0.00    +0.000 A 
ATOM     30  C   UNL     1       6.819  14.673  17.754  0.00  0.00    +0.000 A 
ATOM     31  F   UNL     1       6.895  13.452  17.209  0.00  0.00    +0.000 F 
ATOM     32  C   UNL     1       5.577  15.179  18.118  0.00  0.00    +0.000 A 
ENDBRANCH  25  26
ENDBRANCH  24  25
ENDBRANCH   1  24
TORSDOF 5
ENDMDL
