MODEL 1
REMARK VINA RESULT:      -6.6      0.000      0.000
REMARK  Name = 
REMARK  9 active torsions:
REMARK  status: ('A' for Active; 'I' for Inactive)
REMARK    1  A    between atoms: C_1  and  O_2
REMARK    2  A    between atoms: O_2  and  C_3
REMARK    3  A    between atoms: C_3  and  C_5
REMARK    4  A    between atoms: C_11  and  C_12
REMARK    5  A    between atoms: C_13  and  C_14
REMARK    6  A    between atoms: C_15  and  O_16
REMARK    7  A    between atoms: C_17  and  S_18
REMARK    8  A    between atoms: S_18  and  C_19
REMARK    9  A    between atoms: C_22  and  C_23
REMARK                            x       y       z     vdW  Elec       q    Type
REMARK                         _______ _______ _______ _____ _____    ______ ____
ROOT
ATOM      1  C   UNL     1      -3.421  12.985  22.721  0.00  0.00    +0.000 A 
ATOM      2  C   UNL     1      -4.364  12.946  23.752  0.00  0.00    +0.000 A 
ATOM      3  N   UNL     1      -4.110  13.335  25.071  0.00  0.00    +0.000 N 
ATOM      4  N   UNL     1      -5.621  12.592  23.492  0.00  0.00    +0.000 NA
ATOM      5  N   UNL     1      -5.998  12.314  22.216  0.00  0.00    +0.000 NA
ATOM      6  C   UNL     1      -5.148  12.339  21.181  0.00  0.00    +0.000 A 
ATOM      7  C   UNL     1      -5.693  12.082  19.907  0.00  0.00    +0.000 A 
ATOM      8  C   UNL     1      -7.190  11.869  19.769  0.00  0.00    +0.000 C 
ATOM      9  C   UNL     1      -4.878  12.043  18.755  0.00  0.00    +0.000 A 
ATOM     10  C   UNL     1      -5.455  11.808  17.381  0.00  0.00    +0.000 C 
ATOM     11  C   UNL     1      -3.502  12.234  18.923  0.00  0.00    +0.000 A 
ATOM     12  C   UNL     1      -2.936  12.504  20.195  0.00  0.00    +0.000 A 
ATOM     13  C   UNL     1      -3.775  12.618  21.368  0.00  0.00    +0.000 A 
ATOM     14  H   UNL     1      -3.273  12.887  25.439  0.00  0.00    +0.000 HD
ATOM     15  H   UNL     1      -4.936  13.143  25.632  0.00  0.00    +0.000 HD
ENDROOT
BRANCH   1  16
ATOM     16  C   UNL     1      -2.126  13.593  23.097  0.00  0.00    +0.000 C 
ATOM     17  O   UNL     1      -1.168  12.950  23.496  0.00  0.00    +0.000 OA
BRANCH  16  19
ATOM     18  C   UNL     1      -0.890  15.607  22.897  0.00  0.00    +0.000 C 
ATOM     19  O   UNL     1      -2.148  14.923  22.809  0.00  0.00    +0.000 OA
ENDBRANCH  16  19
ENDBRANCH   1  16
BRANCH  11  20
ATOM     20  O   UNL     1      -2.660  12.165  17.839  0.00  0.00    +0.000 OA
ATOM     21  H   UNL     1      -1.738  12.303  18.099  0.00  0.00    +0.000 HD
ENDBRANCH  11  20
BRANCH  12  22
ATOM     22  S   UNL     1      -1.155  12.772  20.263  0.00  0.00    +0.000 S 
BRANCH  22  23
ATOM     23  C   UNL     1      -0.392  11.164  20.322  0.00  0.00    +0.000 A 
ATOM     24  C   UNL     1       0.333  10.779  19.185  0.00  0.00    +0.000 A 
ATOM     25  C   UNL     1       1.068   9.591  19.164  0.00  0.00    +0.000 A 
ATOM     26  C   UNL     1       1.091   8.760  20.285  0.00  0.00    +0.000 A 
ATOM     27  C   UNL     1       1.927   7.513  20.292  0.00  0.00    +0.000 C 
ATOM     28  C   UNL     1       0.348   9.126  21.415  0.00  0.00    +0.000 A 
ATOM     29  C   UNL     1      -0.387  10.320  21.434  0.00  0.00    +0.000 A 
ENDBRANCH  22  23
ENDBRANCH  12  22
TORSDOF 5
ENDMDL
MODEL 2
REMARK VINA RESULT:      -6.5      1.772      2.223
REMARK  Name = 
REMARK  9 active torsions:
REMARK  status: ('A' for Active; 'I' for Inactive)
REMARK    1  A    between atoms: C_1  and  O_2
REMARK    2  A    between atoms: O_2  and  C_3
REMARK    3  A    between atoms: C_3  and  C_5
REMARK    4  A    between atoms: C_11  and  C_12
REMARK    5  A    between atoms: C_13  and  C_14
REMARK    6  A    between atoms: C_15  and  O_16
REMARK    7  A    between atoms: C_17  and  S_18
REMARK    8  A    between atoms: S_18  and  C_19
REMARK    9  A    between atoms: C_22  and  C_23
REMARK                            x       y       z     vdW  Elec       q    Type
REMARK                         _______ _______ _______ _____ _____    ______ ____
ROOT
ATOM      1  C   UNL     1      -5.298  13.101  22.778  0.00  0.00    +0.000 A 
ATOM      2  C   UNL     1      -6.522  12.767  23.366  0.00  0.00    +0.000 A 
ATOM      3  N   UNL     1      -6.930  13.188  24.635  0.00  0.00    +0.000 N 
ATOM      4  N   UNL     1      -7.421  12.065  22.679  0.00  0.00    +0.000 NA
ATOM      5  N   UNL     1      -7.168  11.714  21.390  0.00  0.00    +0.000 NA
ATOM      6  C   UNL     1      -6.020  12.007  20.764  0.00  0.00    +0.000 A 
ATOM      7  C   UNL     1      -5.921  11.627  19.412  0.00  0.00    +0.000 A 
ATOM      8  C   UNL     1      -7.118  10.987  18.730  0.00  0.00    +0.000 C 
ATOM      9  C   UNL     1      -4.740  11.851  18.671  0.00  0.00    +0.000 A 
ATOM     10  C   UNL     1      -4.635  11.485  17.211  0.00  0.00    +0.000 C 
ATOM     11  C   UNL     1      -3.655  12.434  19.335  0.00  0.00    +0.000 A 
ATOM     12  C   UNL     1      -3.739  12.833  20.694  0.00  0.00    +0.000 A 
ATOM     13  C   UNL     1      -4.970  12.673  21.436  0.00  0.00    +0.000 A 
ATOM     14  H   UNL     1      -6.219  12.998  25.339  0.00  0.00    +0.000 HD
ATOM     15  H   UNL     1      -7.822  12.751  24.852  0.00  0.00    +0.000 HD
ENDROOT
BRANCH   1  16
ATOM     16  C   UNL     1      -4.482  14.054  23.560  0.00  0.00    +0.000 C 
ATOM     17  O   UNL     1      -3.617  13.713  24.351  0.00  0.00    +0.000 OA
BRANCH  16  19
ATOM     18  C   UNL     1      -5.011  16.272  24.214  0.00  0.00    +0.000 C 
ATOM     19  O   UNL     1      -4.764  15.326  23.165  0.00  0.00    +0.000 OA
ENDBRANCH  16  19
ENDBRANCH   1  16
BRANCH  11  20
ATOM     20  O   UNL     1      -2.469  12.636  18.670  0.00  0.00    +0.000 OA
ATOM     21  H   UNL     1      -1.809  13.049  19.245  0.00  0.00    +0.000 HD
ENDBRANCH  11  20
BRANCH  12  22
ATOM     22  S   UNL     1      -2.281  13.610  21.414  0.00  0.00    +0.000 S 
BRANCH  22  23
ATOM     23  C   UNL     1      -1.079  12.321  21.665  0.00  0.00    +0.000 A 
ATOM     24  C   UNL     1      -1.374  11.381  22.664  0.00  0.00    +0.000 A 
ATOM     25  C   UNL     1      -0.563  10.264  22.868  0.00  0.00    +0.000 A 
ATOM     26  C   UNL     1       0.568  10.062  22.076  0.00  0.00    +0.000 A 
ATOM     27  C   UNL     1       1.411   8.833  22.249  0.00  0.00    +0.000 C 
ATOM     28  C   UNL     1       0.884  11.010  21.093  0.00  0.00    +0.000 A 
ATOM     29  C   UNL     1       0.066  12.131  20.888  0.00  0.00    +0.000 A 
ENDBRANCH  22  23
ENDBRANCH  12  22
TORSDOF 5
ENDMDL
MODEL 3
REMARK VINA RESULT:      -6.4      0.541      1.082
REMARK  Name = 
REMARK  9 active torsions:
REMARK  status: ('A' for Active; 'I' for Inactive)
REMARK    1  A    between atoms: C_1  and  O_2
REMARK    2  A    between atoms: O_2  and  C_3
REMARK    3  A    between atoms: C_3  and  C_5
REMARK    4  A    between atoms: C_11  and  C_12
REMARK    5  A    between atoms: C_13  and  C_14
REMARK    6  A    between atoms: C_15  and  O_16
REMARK    7  A    between atoms: C_17  and  S_18
REMARK    8  A    between atoms: S_18  and  C_19
REMARK    9  A    between atoms: C_22  and  C_23
REMARK                            x       y       z     vdW  Elec       q    Type
REMARK                         _______ _______ _______ _____ _____    ______ ____
ROOT
ATOM      1  C   UNL     1      -3.756  13.159  22.460  0.00  0.00    +0.000 A 
ATOM      2  C   UNL     1      -4.766  13.073  23.422  0.00  0.00    +0.000 A 
ATOM      3  N   UNL     1      -4.661  13.568  24.726  0.00  0.00    +0.000 N 
ATOM      4  N   UNL     1      -5.951  12.560  23.099  0.00  0.00    +0.000 NA
ATOM      5  N   UNL     1      -6.194  12.163  21.821  0.00  0.00    +0.000 NA
ATOM      6  C   UNL     1      -5.273  12.224  20.850  0.00  0.00    +0.000 A 
ATOM      7  C   UNL     1      -5.685  11.829  19.562  0.00  0.00    +0.000 A 
ATOM      8  C   UNL     1      -7.133  11.435  19.332  0.00  0.00    +0.000 C 
ATOM      9  C   UNL     1      -4.783  11.816  18.475  0.00  0.00    +0.000 A 
ATOM     10  C   UNL     1      -5.220  11.433  17.083  0.00  0.00    +0.000 C 
ATOM     11  C   UNL     1      -3.454  12.176  18.726  0.00  0.00    +0.000 A 
ATOM     12  C   UNL     1      -3.023  12.587  20.014  0.00  0.00    +0.000 A 
ATOM     13  C   UNL     1      -3.959  12.673  21.114  0.00  0.00    +0.000 A 
ATOM     14  H   UNL     1      -3.811  13.244  25.182  0.00  0.00    +0.000 HD
ATOM     15  H   UNL     1      -5.501  13.316  25.239  0.00  0.00    +0.000 HD
ENDROOT
BRANCH   1  16
ATOM     16  C   UNL     1      -2.570  13.936  22.884  0.00  0.00    +0.000 C 
ATOM     17  O   UNL     1      -1.603  13.442  23.441  0.00  0.00    +0.000 OA
BRANCH  16  19
ATOM     18  C   UNL     1      -1.874  16.191  23.118  0.00  0.00    +0.000 C 
ATOM     19  O   UNL     1      -2.687  15.219  22.446  0.00  0.00    +0.000 OA
ENDBRANCH  16  19
ENDBRANCH   1  16
BRANCH  11  20
ATOM     20  O   UNL     1      -2.528  12.140  17.712  0.00  0.00    +0.000 OA
ATOM     21  H   UNL     1      -2.081  12.993  17.613  0.00  0.00    +0.000 HD
ENDBRANCH  11  20
BRANCH  12  22
ATOM     22  S   UNL     1      -1.294  13.064  20.189  0.00  0.00    +0.000 S 
BRANCH  22  23
ATOM     23  C   UNL     1      -0.354  11.558  20.332  0.00  0.00    +0.000 A 
ATOM     24  C   UNL     1      -0.412  10.906  21.573  0.00  0.00    +0.000 A 
ATOM     25  C   UNL     1       0.190   9.660  21.763  0.00  0.00    +0.000 A 
ATOM     26  C   UNL     1       0.867   9.039  20.712  0.00  0.00    +0.000 A 
ATOM     27  C   UNL     1       1.463   7.674  20.890  0.00  0.00    +0.000 C 
ATOM     28  C   UNL     1       0.950   9.697  19.478  0.00  0.00    +0.000 A 
ATOM     29  C   UNL     1       0.342  10.947  19.288  0.00  0.00    +0.000 A 
ENDBRANCH  22  23
ENDBRANCH  12  22
TORSDOF 5
ENDMDL
MODEL 4
REMARK VINA RESULT:      -6.4      1.877      4.547
REMARK  Name = 
REMARK  9 active torsions:
REMARK  status: ('A' for Active; 'I' for Inactive)
REMARK    1  A    between atoms: C_1  and  O_2
REMARK    2  A    between atoms: O_2  and  C_3
REMARK    3  A    between atoms: C_3  and  C_5
REMARK    4  A    between atoms: C_11  and  C_12
REMARK    5  A    between atoms: C_13  and  C_14
REMARK    6  A    between atoms: C_15  and  O_16
REMARK    7  A    between atoms: C_17  and  S_18
REMARK    8  A    between atoms: S_18  and  C_19
REMARK    9  A    between atoms: C_22  and  C_23
REMARK                            x       y       z     vdW  Elec       q    Type
REMARK                         _______ _______ _______ _____ _____    ______ ____
ROOT
ATOM      1  C   UNL     1      -3.495  11.625  18.599  0.00  0.00    +0.000 A 
ATOM      2  C   UNL     1      -4.893  11.587  18.565  0.00  0.00    +0.000 A 
ATOM      3  N   UNL     1      -5.643  10.948  17.573  0.00  0.00    +0.000 N 
ATOM      4  N   UNL     1      -5.597  12.118  19.561  0.00  0.00    +0.000 NA
ATOM      5  N   UNL     1      -4.958  12.655  20.635  0.00  0.00    +0.000 NA
ATOM      6  C   UNL     1      -3.623  12.717  20.735  0.00  0.00    +0.000 A 
ATOM      7  C   UNL     1      -3.101  13.251  21.929  0.00  0.00    +0.000 A 
ATOM      8  C   UNL     1      -4.053  13.649  23.043  0.00  0.00    +0.000 C 
ATOM      9  C   UNL     1      -1.711  13.400  22.120  0.00  0.00    +0.000 A 
ATOM     10  C   UNL     1      -1.137  13.934  23.410  0.00  0.00    +0.000 C 
ATOM     11  C   UNL     1      -0.865  13.032  21.068  0.00  0.00    +0.000 A 
ATOM     12  C   UNL     1      -1.370  12.483  19.862  0.00  0.00    +0.000 A 
ATOM     13  C   UNL     1      -2.789  12.259  19.689  0.00  0.00    +0.000 A 
ATOM     14  H   UNL     1      -5.346  11.229  16.640  0.00  0.00    +0.000 HD
ATOM     15  H   UNL     1      -6.628  11.129  17.742  0.00  0.00    +0.000 HD
ENDROOT
BRANCH   1  16
ATOM     16  C   UNL     1      -2.835  10.821  17.547  0.00  0.00    +0.000 C 
ATOM     17  O   UNL     1      -2.498   9.657  17.698  0.00  0.00    +0.000 OA
BRANCH  16  19
ATOM     18  C   UNL     1      -3.016  10.797  15.182  0.00  0.00    +0.000 C 
ATOM     19  O   UNL     1      -2.788  11.537  16.390  0.00  0.00    +0.000 OA
ENDBRANCH  16  19
ENDBRANCH   1  16
BRANCH  11  20
ATOM     20  O   UNL     1       0.494  13.196  21.188  0.00  0.00    +0.000 OA
ATOM     21  H   UNL     1       0.931  13.156  20.325  0.00  0.00    +0.000 HD
ENDBRANCH  11  20
BRANCH  12  22
ATOM     22  S   UNL     1      -0.168  12.011  18.605  0.00  0.00    +0.000 S 
BRANCH  22  23
ATOM     23  C   UNL     1       0.461  10.410  19.066  0.00  0.00    +0.000 A 
ATOM     24  C   UNL     1       1.232   9.744  18.102  0.00  0.00    +0.000 A 
ATOM     25  C   UNL     1       1.872   8.538  18.395  0.00  0.00    +0.000 A 
ATOM     26  C   UNL     1       1.752   7.969  19.663  0.00  0.00    +0.000 A 
ATOM     27  C   UNL     1       2.485   6.705  20.004  0.00  0.00    +0.000 C 
ATOM     28  C   UNL     1       0.962   8.616  20.623  0.00  0.00    +0.000 A 
ATOM     29  C   UNL     1       0.322   9.829  20.328  0.00  0.00    +0.000 A 
ENDBRANCH  22  23
ENDBRANCH  12  22
TORSDOF 5
ENDMDL
MODEL 5
REMARK VINA RESULT:      -6.3      2.007      2.423
REMARK  Name = 
REMARK  9 active torsions:
REMARK  status: ('A' for Active; 'I' for Inactive)
REMARK    1  A    between atoms: C_1  and  O_2
REMARK    2  A    between atoms: O_2  and  C_3
REMARK    3  A    between atoms: C_3  and  C_5
REMARK    4  A    between atoms: C_11  and  C_12
REMARK    5  A    between atoms: C_13  and  C_14
REMARK    6  A    between atoms: C_15  and  O_16
REMARK    7  A    between atoms: C_17  and  S_18
REMARK    8  A    between atoms: S_18  and  C_19
REMARK    9  A    between atoms: C_22  and  C_23
REMARK                            x       y       z     vdW  Elec       q    Type
REMARK                         _______ _______ _______ _____ _____    ______ ____
ROOT
ATOM      1  C   UNL     1      -0.994  13.177  21.282  0.00  0.00    +0.000 A 
ATOM      2  C   UNL     1      -1.638  13.603  22.447  0.00  0.00    +0.000 A 
ATOM      3  N   UNL     1      -0.999  14.236  23.518  0.00  0.00    +0.000 N 
ATOM      4  N   UNL     1      -2.960  13.487  22.558  0.00  0.00    +0.000 NA
ATOM      5  N   UNL     1      -3.688  12.997  21.520  0.00  0.00    +0.000 NA
ATOM      6  C   UNL     1      -3.136  12.577  20.373  0.00  0.00    +0.000 A 
ATOM      7  C   UNL     1      -4.020  12.145  19.365  0.00  0.00    +0.000 A 
ATOM      8  C   UNL     1      -5.517  12.246  19.596  0.00  0.00    +0.000 C 
ATOM      9  C   UNL     1      -3.541  11.645  18.135  0.00  0.00    +0.000 A 
ATOM     10  C   UNL     1      -4.478  11.217  17.032  0.00  0.00    +0.000 C 
ATOM     11  C   UNL     1      -2.156  11.558  17.961  0.00  0.00    +0.000 A 
ATOM     12  C   UNL     1      -1.249  11.997  18.960  0.00  0.00    +0.000 A 
ATOM     13  C   UNL     1      -1.734  12.579  20.193  0.00  0.00    +0.000 A 
ATOM     14  H   UNL     1      -0.179  13.715  23.824  0.00  0.00    +0.000 HD
ATOM     15  H   UNL     1      -1.674  14.376  24.263  0.00  0.00    +0.000 HD
ENDROOT
BRANCH   1  16
ATOM     16  C   UNL     1       0.434  13.552  21.198  0.00  0.00    +0.000 C 
ATOM     17  O   UNL     1       1.345  12.830  21.571  0.00  0.00    +0.000 OA
BRANCH  16  19
ATOM     18  C   UNL     1       1.756  15.480  20.795  0.00  0.00    +0.000 C 
ATOM     19  O   UNL     1       0.554  14.739  20.542  0.00  0.00    +0.000 OA
ENDBRANCH  16  19
ENDBRANCH   1  16
BRANCH  11  20
ATOM     20  O   UNL     1      -1.639  11.039  16.798  0.00  0.00    +0.000 OA
ATOM     21  H   UNL     1      -1.771  11.644  16.054  0.00  0.00    +0.000 HD
ENDBRANCH  11  20
BRANCH  12  22
ATOM     22  S   UNL     1       0.509  11.868  18.589  0.00  0.00    +0.000 S 
BRANCH  22  23
ATOM     23  C   UNL     1       0.998  10.199  18.976  0.00  0.00    +0.000 A 
ATOM     24  C   UNL     1       1.642   9.488  17.954  0.00  0.00    +0.000 A 
ATOM     25  C   UNL     1       2.172   8.216  18.181  0.00  0.00    +0.000 A 
ATOM     26  C   UNL     1       2.066   7.625  19.441  0.00  0.00    +0.000 A 
ATOM     27  C   UNL     1       2.685   6.285  19.710  0.00  0.00    +0.000 C 
ATOM     28  C   UNL     1       1.400   8.320  20.460  0.00  0.00    +0.000 A 
ATOM     29  C   UNL     1       0.871   9.598  20.230  0.00  0.00    +0.000 A 
ENDBRANCH  22  23
ENDBRANCH  12  22
TORSDOF 5
ENDMDL
MODEL 6
REMARK VINA RESULT:      -6.3      3.475      6.631
REMARK  Name = 
REMARK  9 active torsions:
REMARK  status: ('A' for Active; 'I' for Inactive)
REMARK    1  A    between atoms: C_1  and  O_2
REMARK    2  A    between atoms: O_2  and  C_3
REMARK    3  A    between atoms: C_3  and  C_5
REMARK    4  A    between atoms: C_11  and  C_12
REMARK    5  A    between atoms: C_13  and  C_14
REMARK    6  A    between atoms: C_15  and  O_16
REMARK    7  A    between atoms: C_17  and  S_18
REMARK    8  A    between atoms: S_18  and  C_19
REMARK    9  A    between atoms: C_22  and  C_23
REMARK                            x       y       z     vdW  Elec       q    Type
REMARK                         _______ _______ _______ _____ _____    ______ ____
ROOT
ATOM      1  C   UNL     1      -4.563  12.814  21.081  0.00  0.00    +0.000 A 
ATOM      2  C   UNL     1      -3.609  13.010  22.084  0.00  0.00    +0.000 A 
ATOM      3  N   UNL     1      -3.905  13.425  23.386  0.00  0.00    +0.000 N 
ATOM      4  N   UNL     1      -2.330  12.724  21.852  0.00  0.00    +0.000 NA
ATOM      5  N   UNL     1      -1.958  12.197  20.655  0.00  0.00    +0.000 NA
ATOM      6  C   UNL     1      -2.821  11.977  19.654  0.00  0.00    +0.000 A 
ATOM      7  C   UNL     1      -2.302  11.376  18.491  0.00  0.00    +0.000 A 
ATOM      8  C   UNL     1      -0.845  10.950  18.461  0.00  0.00    +0.000 C 
ATOM      9  C   UNL     1      -3.115  11.139  17.361  0.00  0.00    +0.000 A 
ATOM     10  C   UNL     1      -2.581  10.459  16.125  0.00  0.00    +0.000 C 
ATOM     11  C   UNL     1      -4.450  11.554  17.421  0.00  0.00    +0.000 A 
ATOM     12  C   UNL     1      -4.994  12.152  18.587  0.00  0.00    +0.000 A 
ATOM     13  C   UNL     1      -4.185  12.330  19.772  0.00  0.00    +0.000 A 
ATOM     14  H   UNL     1      -4.491  14.258  23.390  0.00  0.00    +0.000 HD
ATOM     15  H   UNL     1      -3.034  13.558  23.892  0.00  0.00    +0.000 HD
ENDROOT
BRANCH   1  16
ATOM     16  C   UNL     1      -5.964  12.967  21.529  0.00  0.00    +0.000 C 
ATOM     17  O   UNL     1      -6.529  14.045  21.627  0.00  0.00    +0.000 OA
BRANCH  16  19
ATOM     18  C   UNL     1      -7.900  11.723  22.104  0.00  0.00    +0.000 C 
ATOM     19  O   UNL     1      -6.529  11.738  21.681  0.00  0.00    +0.000 OA
ENDBRANCH  16  19
ENDBRANCH   1  16
BRANCH  11  20
ATOM     20  O   UNL     1      -5.273  11.383  16.334  0.00  0.00    +0.000 OA
ATOM     21  H   UNL     1      -4.830  10.885  15.632  0.00  0.00    +0.000 HD
ENDBRANCH  11  20
BRANCH  12  22
ATOM     22  S   UNL     1      -6.739  12.600  18.543  0.00  0.00    +0.000 S 
BRANCH  22  23
ATOM     23  C   UNL     1      -6.834  14.244  17.865  0.00  0.00    +0.000 A 
ATOM     24  C   UNL     1      -7.281  14.344  16.540  0.00  0.00    +0.000 A 
ATOM     25  C   UNL     1      -7.506  15.588  15.945  0.00  0.00    +0.000 A 
ATOM     26  C   UNL     1      -7.284  16.762  16.666  0.00  0.00    +0.000 A 
ATOM     27  C   UNL     1      -7.581  18.099  16.054  0.00  0.00    +0.000 C 
ATOM     28  C   UNL     1      -6.813  16.669  17.982  0.00  0.00    +0.000 A 
ATOM     29  C   UNL     1      -6.591  15.419  18.579  0.00  0.00    +0.000 A 
ENDBRANCH  22  23
ENDBRANCH  12  22
TORSDOF 5
ENDMDL
MODEL 7
REMARK VINA RESULT:      -6.2      0.975      1.510
REMARK  Name = 
REMARK  9 active torsions:
REMARK  status: ('A' for Active; 'I' for Inactive)
REMARK    1  A    between atoms: C_1  and  O_2
REMARK    2  A    between atoms: O_2  and  C_3
REMARK    3  A    between atoms: C_3  and  C_5
REMARK    4  A    between atoms: C_11  and  C_12
REMARK    5  A    between atoms: C_13  and  C_14
REMARK    6  A    between atoms: C_15  and  O_16
REMARK    7  A    between atoms: C_17  and  S_18
REMARK    8  A    between atoms: S_18  and  C_19
REMARK    9  A    between atoms: C_22  and  C_23
REMARK                            x       y       z     vdW  Elec       q    Type
REMARK                         _______ _______ _______ _____ _____    ______ ____
ROOT
ATOM      1  C   UNL     1      -3.833  13.802  22.608  0.00  0.00    +0.000 A 
ATOM      2  C   UNL     1      -4.621  13.896  23.760  0.00  0.00    +0.000 A 
ATOM      3  N   UNL     1      -4.277  14.638  24.894  0.00  0.00    +0.000 N 
ATOM      4  N   UNL     1      -5.819  13.317  23.796  0.00  0.00    +0.000 NA
ATOM      5  N   UNL     1      -6.297  12.675  22.697  0.00  0.00    +0.000 NA
ATOM      6  C   UNL     1      -5.598  12.554  21.560  0.00  0.00    +0.000 A 
ATOM      7  C   UNL     1      -6.243  11.910  20.486  0.00  0.00    +0.000 A 
ATOM      8  C   UNL     1      -7.686  11.464  20.644  0.00  0.00    +0.000 C 
ATOM      9  C   UNL     1      -5.582  11.694  19.257  0.00  0.00    +0.000 A 
ATOM     10  C   UNL     1      -6.275  11.041  18.086  0.00  0.00    +0.000 C 
ATOM     11  C   UNL     1      -4.251  12.109  19.150  0.00  0.00    +0.000 A 
ATOM     12  C   UNL     1      -3.587  12.769  20.217  0.00  0.00    +0.000 A 
ATOM     13  C   UNL     1      -4.282  13.059  21.452  0.00  0.00    +0.000 A 
ATOM     14  H   UNL     1      -3.336  14.418  25.214  0.00  0.00    +0.000 HD
ATOM     15  H   UNL     1      -4.981  14.482  25.610  0.00  0.00    +0.000 HD
ENDROOT
BRANCH   1  16
ATOM     16  C   UNL     1      -2.628  14.658  22.619  0.00  0.00    +0.000 C 
ATOM     17  O   UNL     1      -2.569  15.750  22.076  0.00  0.00    +0.000 OA
BRANCH  16  19
ATOM     18  C   UNL     1      -0.827  15.009  24.123  0.00  0.00    +0.000 C 
ATOM     19  O   UNL     1      -1.677  14.096  23.415  0.00  0.00    +0.000 OA
ENDBRANCH  16  19
ENDBRANCH   1  16
BRANCH  11  20
ATOM     20  O   UNL     1      -3.550  11.884  17.990  0.00  0.00    +0.000 OA
ATOM     21  H   UNL     1      -3.431  10.937  17.828  0.00  0.00    +0.000 HD
ENDBRANCH  11  20
BRANCH  12  22
ATOM     22  S   UNL     1      -1.886  13.289  19.931  0.00  0.00    +0.000 S 
BRANCH  22  23
ATOM     23  C   UNL     1      -0.855  11.866  20.225  0.00  0.00    +0.000 A 
ATOM     24  C   UNL     1      -0.702  11.476  21.563  0.00  0.00    +0.000 A 
ATOM     25  C   UNL     1      -0.013  10.309  21.901  0.00  0.00    +0.000 A 
ATOM     26  C   UNL     1       0.542   9.506  20.904  0.00  0.00    +0.000 A 
ATOM     27  C   UNL     1       1.231   8.221  21.255  0.00  0.00    +0.000 C 
ATOM     28  C   UNL     1       0.415   9.904  19.566  0.00  0.00    +0.000 A 
ATOM     29  C   UNL     1      -0.279  11.075  19.229  0.00  0.00    +0.000 A 
ENDBRANCH  22  23
ENDBRANCH  12  22
TORSDOF 5
ENDMDL
MODEL 8
REMARK VINA RESULT:      -6.2      3.569      5.703
REMARK  Name = 
REMARK  9 active torsions:
REMARK  status: ('A' for Active; 'I' for Inactive)
REMARK    1  A    between atoms: C_1  and  O_2
REMARK    2  A    between atoms: O_2  and  C_3
REMARK    3  A    between atoms: C_3  and  C_5
REMARK    4  A    between atoms: C_11  and  C_12
REMARK    5  A    between atoms: C_13  and  C_14
REMARK    6  A    between atoms: C_15  and  O_16
REMARK    7  A    between atoms: C_17  and  S_18
REMARK    8  A    between atoms: S_18  and  C_19
REMARK    9  A    between atoms: C_22  and  C_23
REMARK                            x       y       z     vdW  Elec       q    Type
REMARK                         _______ _______ _______ _____ _____    ______ ____
ROOT
ATOM      1  C   UNL     1      -0.729  11.566  21.429  0.00  0.00    +0.000 A 
ATOM      2  C   UNL     1      -1.150  11.071  22.667  0.00  0.00    +0.000 A 
ATOM      3  N   UNL     1      -2.041  11.729  23.520  0.00  0.00    +0.000 N 
ATOM      4  N   UNL     1      -0.762   9.862  23.067  0.00  0.00    +0.000 NA
ATOM      5  N   UNL     1       0.007   9.091  22.252  0.00  0.00    +0.000 NA
ATOM      6  C   UNL     1       0.439   9.501  21.052  0.00  0.00    +0.000 A 
ATOM      7  C   UNL     1       1.182   8.573  20.296  0.00  0.00    +0.000 A 
ATOM      8  C   UNL     1       1.383   7.168  20.833  0.00  0.00    +0.000 C 
ATOM      9  C   UNL     1       1.720   8.917  19.037  0.00  0.00    +0.000 A 
ATOM     10  C   UNL     1       2.483   7.921  18.199  0.00  0.00    +0.000 C 
ATOM     11  C   UNL     1       1.522  10.224  18.578  0.00  0.00    +0.000 A 
ATOM     12  C   UNL     1       0.769  11.170  19.321  0.00  0.00    +0.000 A 
ATOM     13  C   UNL     1       0.153  10.801  20.576  0.00  0.00    +0.000 A 
ATOM     14  H   UNL     1      -1.758  12.693  23.686  0.00  0.00    +0.000 HD
ATOM     15  H   UNL     1      -2.125  11.192  24.379  0.00  0.00    +0.000 HD
ENDROOT
BRANCH   1  16
ATOM     16  C   UNL     1      -1.394  12.819  21.012  0.00  0.00    +0.000 C 
ATOM     17  O   UNL     1      -2.398  12.852  20.317  0.00  0.00    +0.000 OA
BRANCH  16  19
ATOM     18  C   UNL     1      -1.125  15.174  21.102  0.00  0.00    +0.000 C 
ATOM     19  O   UNL     1      -0.793  13.878  21.620  0.00  0.00    +0.000 OA
ENDBRANCH  16  19
ENDBRANCH   1  16
BRANCH  11  20
ATOM     20  O   UNL     1       2.061  10.621  17.378  0.00  0.00    +0.000 OA
ATOM     21  H   UNL     1       3.003  10.404  17.325  0.00  0.00    +0.000 HD
ENDBRANCH  11  20
BRANCH  12  22
ATOM     22  S   UNL     1       0.555  12.805  18.594  0.00  0.00    +0.000 S 
BRANCH  22  23
ATOM     23  C   UNL     1       2.023  13.738  18.980  0.00  0.00    +0.000 A 
ATOM     24  C   UNL     1       2.434  13.722  20.321  0.00  0.00    +0.000 A 
ATOM     25  C   UNL     1       3.632  14.320  20.717  0.00  0.00    +0.000 A 
ATOM     26  C   UNL     1       4.446  14.952  19.776  0.00  0.00    +0.000 A 
ATOM     27  C   UNL     1       5.764  15.544  20.183  0.00  0.00    +0.000 C 
ATOM     28  C   UNL     1       4.029  14.993  18.439  0.00  0.00    +0.000 A 
ATOM     29  C   UNL     1       2.827  14.389  18.043  0.00  0.00    +0.000 A 
ENDBRANCH  22  23
ENDBRANCH  12  22
TORSDOF 5
ENDMDL
MODEL 9
REMARK VINA RESULT:      -6.1      1.045      1.239
REMARK  Name = 
REMARK  9 active torsions:
REMARK  status: ('A' for Active; 'I' for Inactive)
REMARK    1  A    between atoms: C_1  and  O_2
REMARK    2  A    between atoms: O_2  and  C_3
REMARK    3  A    between atoms: C_3  and  C_5
REMARK    4  A    between atoms: C_11  and  C_12
REMARK    5  A    between atoms: C_13  and  C_14
REMARK    6  A    between atoms: C_15  and  O_16
REMARK    7  A    between atoms: C_17  and  S_18
REMARK    8  A    between atoms: S_18  and  C_19
REMARK    9  A    between atoms: C_22  and  C_23
REMARK                            x       y       z     vdW  Elec       q    Type
REMARK                         _______ _______ _______ _____ _____    ______ ____
ROOT
ATOM      1  C   UNL     1      -3.234  12.767  21.575  0.00  0.00    +0.000 A 
ATOM      2  C   UNL     1      -4.335  12.818  22.434  0.00  0.00    +0.000 A 
ATOM      3  N   UNL     1      -4.290  13.289  23.750  0.00  0.00    +0.000 N 
ATOM      4  N   UNL     1      -5.542  12.474  21.991  0.00  0.00    +0.000 NA
ATOM      5  N   UNL     1      -5.712  12.119  20.689  0.00  0.00    +0.000 NA
ATOM      6  C   UNL     1      -4.702  12.057  19.811  0.00  0.00    +0.000 A 
ATOM      7  C   UNL     1      -5.036  11.727  18.483  0.00  0.00    +0.000 A 
ATOM      8  C   UNL     1      -6.496  11.538  18.109  0.00  0.00    +0.000 C 
ATOM      9  C   UNL     1      -4.044  11.593  17.488  0.00  0.00    +0.000 A 
ATOM     10  C   UNL     1      -4.392  11.280  16.054  0.00  0.00    +0.000 C 
ATOM     11  C   UNL     1      -2.709  11.765  17.871  0.00  0.00    +0.000 A 
ATOM     12  C   UNL     1      -2.353  12.108  19.201  0.00  0.00    +0.000 A 
ATOM     13  C   UNL     1      -3.370  12.318  20.207  0.00  0.00    +0.000 A 
ATOM     14  H   UNL     1      -3.541  12.849  24.280  0.00  0.00    +0.000 HD
ATOM     15  H   UNL     1      -5.203  13.153  24.176  0.00  0.00    +0.000 HD
ENDROOT
BRANCH   1  16
ATOM     16  C   UNL     1      -2.000  13.371  22.123  0.00  0.00    +0.000 C 
ATOM     17  O   UNL     1      -1.147  12.737  22.725  0.00  0.00    +0.000 OA
BRANCH  16  19
ATOM     18  C   UNL     1      -0.678  15.337  22.005  0.00  0.00    +0.000 C 
ATOM     19  O   UNL     1      -1.924  14.676  21.743  0.00  0.00    +0.000 OA
ENDBRANCH  16  19
ENDBRANCH   1  16
BRANCH  11  20
ATOM     20  O   UNL     1      -1.702  11.605  16.949  0.00  0.00    +0.000 OA
ATOM     21  H   UNL     1      -1.981  11.897  16.069  0.00  0.00    +0.000 HD
ENDBRANCH  11  20
BRANCH  12  22
ATOM     22  S   UNL     1      -0.600  12.341  19.549  0.00  0.00    +0.000 S 
BRANCH  22  23
ATOM     23  C   UNL     1       0.111  10.719  19.731  0.00  0.00    +0.000 A 
ATOM     24  C   UNL     1       0.852  10.239  18.641  0.00  0.00    +0.000 A 
ATOM     25  C   UNL     1       1.551   9.032  18.717  0.00  0.00    +0.000 A 
ATOM     26  C   UNL     1       1.520   8.275  19.889  0.00  0.00    +0.000 A 
ATOM     27  C   UNL     1       2.317   7.008  19.999  0.00  0.00    +0.000 C 
ATOM     28  C   UNL     1       0.761   8.736  20.972  0.00  0.00    +0.000 A 
ATOM     29  C   UNL     1       0.063   9.949  20.895  0.00  0.00    +0.000 A 
ENDBRANCH  22  23
ENDBRANCH  12  22
TORSDOF 5
ENDMDL
