MODEL 1
REMARK VINA RESULT:      -7.0      0.000      0.000
REMARK  Name = 
REMARK  7 active torsions:
REMARK  status: ('A' for Active; 'I' for Inactive)
REMARK    1  A    between atoms: C_1  and  C_2
REMARK    2  A    between atoms: C_6  and  C_7
REMARK    3  A    between atoms: C_7  and  C_8
REMARK    4  A    between atoms: C_8  and  S_9
REMARK    5  A    between atoms: S_9  and  C_10
REMARK    6  A    between atoms: C_13  and  O_14
REMARK    7  A    between atoms: N_15  and  C_16
REMARK                            x       y       z     vdW  Elec       q    Type
REMARK                         _______ _______ _______ _____ _____    ______ ____
ROOT
ATOM      1  C   UNL     1       5.457   3.979  15.890  0.00  0.00    +0.000 A 
ATOM      2  N   UNL     1       5.246   3.489  14.683  0.00  0.00    +0.000 NA
ATOM      3  N   UNL     1       6.138   4.070  13.824  0.00  0.00    +0.000 NA
ATOM      4  C   UNL     1       6.862   4.905  14.525  0.00  0.00    +0.000 A 
ATOM      5  N   UNL     1       6.506   4.896  15.866  0.00  0.00    +0.000 N 
ENDROOT
BRANCH   5   6
ATOM      6  C   UNL     1       7.172   5.609  16.911  0.00  0.00    +0.000 A 
ATOM      7  C   UNL     1       7.630   4.921  18.048  0.00  0.00    +0.000 A 
ATOM      8  C   UNL     1       8.160   5.614  19.140  0.00  0.00    +0.000 A 
ATOM      9  C   UNL     1       8.249   7.001  19.107  0.00  0.00    +0.000 A 
ATOM     10  C   UNL     1       7.829   7.692  17.972  0.00  0.00    +0.000 A 
ATOM     11  C   UNL     1       7.297   7.002  16.877  0.00  0.00    +0.000 A 
ENDBRANCH   5   6
BRANCH   4  12
ATOM     12  O   UNL     1       7.880   5.560  13.987  0.00  0.00    +0.000 OA
ATOM     13  H   UNL     1       7.890   5.224  13.073  0.00  0.00    +0.000 HD
ENDBRANCH   4  12
BRANCH   1  14
ATOM     14  S   UNL     1       4.427   3.632  17.244  0.00  0.00    +0.000 S 
BRANCH  14  15
ATOM     15  C   UNL     1       3.532   5.209  17.483  0.00  0.00    +0.000 C 
BRANCH  15  16
ATOM     16  C   UNL     1       2.066   4.995  17.872  0.00  0.00    +0.000 C 
BRANCH  16  22
ATOM     17  C   UNL     1       0.690   2.145  18.625  0.00  0.00    +0.000 C 
ATOM     18  C   UNL     1       1.351   3.108  19.545  0.00  0.00    +0.000 A 
ATOM     19  N   UNL     1       1.427   2.776  20.889  0.00  0.00    +0.000 NA
ATOM     20  C   UNL     1       2.042   3.727  21.553  0.00  0.00    +0.000 A 
ATOM     21  S   UNL     1       2.554   5.074  20.629  0.00  0.00    +0.000 S 
ATOM     22  C   UNL     1       1.923   4.329  19.214  0.00  0.00    +0.000 A 
ENDBRANCH  16  22
ENDBRANCH  15  16
ENDBRANCH  14  15
ENDBRANCH   1  14
TORSDOF 6
ENDMDL
MODEL 2
REMARK VINA RESULT:      -7.0      2.095      3.692
REMARK  Name = 
REMARK  7 active torsions:
REMARK  status: ('A' for Active; 'I' for Inactive)
REMARK    1  A    between atoms: C_1  and  C_2
REMARK    2  A    between atoms: C_6  and  C_7
REMARK    3  A    between atoms: C_7  and  C_8
REMARK    4  A    between atoms: C_8  and  S_9
REMARK    5  A    between atoms: S_9  and  C_10
REMARK    6  A    between atoms: C_13  and  O_14
REMARK    7  A    between atoms: N_15  and  C_16
REMARK                            x       y       z     vdW  Elec       q    Type
REMARK                         _______ _______ _______ _____ _____    ______ ____
ROOT
ATOM      1  C   UNL     1       5.668   5.869  17.662  0.00  0.00    +0.000 A 
ATOM      2  N   UNL     1       6.048   5.961  18.922  0.00  0.00    +0.000 NA
ATOM      3  N   UNL     1       7.158   5.179  19.092  0.00  0.00    +0.000 NA
ATOM      4  C   UNL     1       7.419   4.624  17.935  0.00  0.00    +0.000 A 
ATOM      5  N   UNL     1       6.523   5.027  16.955  0.00  0.00    +0.000 N 
ENDROOT
BRANCH   5   6
ATOM      6  C   UNL     1       6.598   4.690  15.568  0.00  0.00    +0.000 A 
ATOM      7  C   UNL     1       7.573   5.289  14.752  0.00  0.00    +0.000 A 
ATOM      8  C   UNL     1       7.578   5.081  13.370  0.00  0.00    +0.000 A 
ATOM      9  C   UNL     1       6.615   4.265  12.786  0.00  0.00    +0.000 A 
ATOM     10  C   UNL     1       5.663   3.639  13.588  0.00  0.00    +0.000 A 
ATOM     11  C   UNL     1       5.654   3.845  14.972  0.00  0.00    +0.000 A 
ENDBRANCH   5   6
BRANCH   4  12
ATOM     12  O   UNL     1       8.496   3.873  17.755  0.00  0.00    +0.000 OA
ATOM     13  H   UNL     1       8.674   3.537  18.651  0.00  0.00    +0.000 HD
ENDBRANCH   4  12
BRANCH   1  14
ATOM     14  S   UNL     1       4.197   6.574  17.067  0.00  0.00    +0.000 S 
BRANCH  14  15
ATOM     15  C   UNL     1       2.938   5.909  18.215  0.00  0.00    +0.000 C 
BRANCH  15  16
ATOM     16  C   UNL     1       2.795   4.388  18.108  0.00  0.00    +0.000 C 
BRANCH  16  22
ATOM     17  C   UNL     1       4.649   2.367  19.858  0.00  0.00    +0.000 C 
ATOM     18  C   UNL     1       3.302   2.894  20.201  0.00  0.00    +0.000 A 
ATOM     19  N   UNL     1       2.746   2.516  21.414  0.00  0.00    +0.000 NA
ATOM     20  C   UNL     1       1.565   3.072  21.558  0.00  0.00    +0.000 A 
ATOM     21  S   UNL     1       1.040   4.061  20.265  0.00  0.00    +0.000 S 
ATOM     22  C   UNL     1       2.514   3.745  19.439  0.00  0.00    +0.000 A 
ENDBRANCH  16  22
ENDBRANCH  15  16
ENDBRANCH  14  15
ENDBRANCH   1  14
TORSDOF 6
ENDMDL
MODEL 3
REMARK VINA RESULT:      -6.9      2.085      3.737
REMARK  Name = 
REMARK  7 active torsions:
REMARK  status: ('A' for Active; 'I' for Inactive)
REMARK    1  A    between atoms: C_1  and  C_2
REMARK    2  A    between atoms: C_6  and  C_7
REMARK    3  A    between atoms: C_7  and  C_8
REMARK    4  A    between atoms: C_8  and  S_9
REMARK    5  A    between atoms: S_9  and  C_10
REMARK    6  A    between atoms: C_13  and  O_14
REMARK    7  A    between atoms: N_15  and  C_16
REMARK                            x       y       z     vdW  Elec       q    Type
REMARK                         _______ _______ _______ _____ _____    ______ ____
ROOT
ATOM      1  C   UNL     1       5.863   6.020  17.491  0.00  0.00    +0.000 A 
ATOM      2  N   UNL     1       6.256   6.126  18.745  0.00  0.00    +0.000 NA
ATOM      3  N   UNL     1       7.317   5.282  18.935  0.00  0.00    +0.000 NA
ATOM      4  C   UNL     1       7.537   4.678  17.794  0.00  0.00    +0.000 A 
ATOM      5  N   UNL     1       6.662   5.106  16.806  0.00  0.00    +0.000 N 
ENDROOT
BRANCH   5   6
ATOM      6  C   UNL     1       6.707   4.724  15.429  0.00  0.00    +0.000 A 
ATOM      7  C   UNL     1       7.650   5.312  14.569  0.00  0.00    +0.000 A 
ATOM      8  C   UNL     1       7.624   5.058  13.195  0.00  0.00    +0.000 A 
ATOM      9  C   UNL     1       6.663   4.205  12.664  0.00  0.00    +0.000 A 
ATOM     10  C   UNL     1       5.743   3.589  13.511  0.00  0.00    +0.000 A 
ATOM     11  C   UNL     1       5.765   3.842  14.887  0.00  0.00    +0.000 A 
ENDBRANCH   5   6
BRANCH   4  12
ATOM     12  O   UNL     1       8.564   3.857  17.633  0.00  0.00    +0.000 OA
ATOM     13  H   UNL     1       9.045   3.949  18.474  0.00  0.00    +0.000 HD
ENDBRANCH   4  12
BRANCH   1  14
ATOM     14  S   UNL     1       4.436   6.797  16.879  0.00  0.00    +0.000 S 
BRANCH  14  15
ATOM     15  C   UNL     1       3.150   6.269  18.069  0.00  0.00    +0.000 C 
BRANCH  15  16
ATOM     16  C   UNL     1       2.663   4.841  17.806  0.00  0.00    +0.000 C 
BRANCH  16  22
ATOM     17  C   UNL     1       0.997   4.324  20.553  0.00  0.00    +0.000 C 
ATOM     18  C   UNL     1       2.262   3.674  20.119  0.00  0.00    +0.000 A 
ATOM     19  N   UNL     1       2.816   2.713  20.950  0.00  0.00    +0.000 NA
ATOM     20  C   UNL     1       3.919   2.241  20.416  0.00  0.00    +0.000 A 
ATOM     21  S   UNL     1       4.370   2.915  18.910  0.00  0.00    +0.000 S 
ATOM     22  C   UNL     1       2.971   3.913  18.950  0.00  0.00    +0.000 A 
ENDBRANCH  16  22
ENDBRANCH  15  16
ENDBRANCH  14  15
ENDBRANCH   1  14
TORSDOF 6
ENDMDL
MODEL 4
REMARK VINA RESULT:      -6.9      2.172      3.665
REMARK  Name = 
REMARK  7 active torsions:
REMARK  status: ('A' for Active; 'I' for Inactive)
REMARK    1  A    between atoms: C_1  and  C_2
REMARK    2  A    between atoms: C_6  and  C_7
REMARK    3  A    between atoms: C_7  and  C_8
REMARK    4  A    between atoms: C_8  and  S_9
REMARK    5  A    between atoms: S_9  and  C_10
REMARK    6  A    between atoms: C_13  and  O_14
REMARK    7  A    between atoms: N_15  and  C_16
REMARK                            x       y       z     vdW  Elec       q    Type
REMARK                         _______ _______ _______ _____ _____    ______ ____
ROOT
ATOM      1  C   UNL     1       5.257   5.478  18.005  0.00  0.00    +0.000 A 
ATOM      2  N   UNL     1       5.670   5.473  19.258  0.00  0.00    +0.000 NA
ATOM      3  N   UNL     1       6.904   4.883  19.300  0.00  0.00    +0.000 NA
ATOM      4  C   UNL     1       7.207   4.535  18.075  0.00  0.00    +0.000 A 
ATOM      5  N   UNL     1       6.214   4.896  17.175  0.00  0.00    +0.000 N 
ENDROOT
BRANCH   5   6
ATOM      6  C   UNL     1       6.285   4.759  15.754  0.00  0.00    +0.000 A 
ATOM      7  C   UNL     1       5.354   3.951  15.079  0.00  0.00    +0.000 A 
ATOM      8  C   UNL     1       5.487   3.693  13.712  0.00  0.00    +0.000 A 
ATOM      9  C   UNL     1       6.545   4.245  13.000  0.00  0.00    +0.000 A 
ATOM     10  C   UNL     1       7.456   5.075  13.650  0.00  0.00    +0.000 A 
ATOM     11  C   UNL     1       7.327   5.335  15.019  0.00  0.00    +0.000 A 
ENDBRANCH   5   6
BRANCH   4  12
ATOM     12  O   UNL     1       8.388   4.016  17.774  0.00  0.00    +0.000 OA
ATOM     13  H   UNL     1       8.431   3.236  18.356  0.00  0.00    +0.000 HD
ENDBRANCH   4  12
BRANCH   1  14
ATOM     14  S   UNL     1       3.663   5.983  17.538  0.00  0.00    +0.000 S 
BRANCH  14  15
ATOM     15  C   UNL     1       2.757   4.398  17.422  0.00  0.00    +0.000 C 
BRANCH  15  16
ATOM     16  C   UNL     1       3.458   3.268  18.181  0.00  0.00    +0.000 C 
BRANCH  16  22
ATOM     17  C   UNL     1       4.801   1.795  20.752  0.00  0.00    +0.000 C 
ATOM     18  C   UNL     1       3.482   2.478  20.680  0.00  0.00    +0.000 A 
ATOM     19  N   UNL     1       2.714   2.530  21.834  0.00  0.00    +0.000 NA
ATOM     20  C   UNL     1       1.591   3.169  21.596  0.00  0.00    +0.000 A 
ATOM     21  S   UNL     1       1.375   3.732  19.995  0.00  0.00    +0.000 S 
ATOM     22  C   UNL     1       2.913   3.091  19.573  0.00  0.00    +0.000 A 
ENDBRANCH  16  22
ENDBRANCH  15  16
ENDBRANCH  14  15
ENDBRANCH   1  14
TORSDOF 6
ENDMDL
MODEL 5
REMARK VINA RESULT:      -6.9      1.997      3.544
REMARK  Name = 
REMARK  7 active torsions:
REMARK  status: ('A' for Active; 'I' for Inactive)
REMARK    1  A    between atoms: C_1  and  C_2
REMARK    2  A    between atoms: C_6  and  C_7
REMARK    3  A    between atoms: C_7  and  C_8
REMARK    4  A    between atoms: C_8  and  S_9
REMARK    5  A    between atoms: S_9  and  C_10
REMARK    6  A    between atoms: C_13  and  O_14
REMARK    7  A    between atoms: N_15  and  C_16
REMARK                            x       y       z     vdW  Elec       q    Type
REMARK                         _______ _______ _______ _____ _____    ______ ____
ROOT
ATOM      1  C   UNL     1       5.877   6.146  17.648  0.00  0.00    +0.000 A 
ATOM      2  N   UNL     1       6.329   6.156  18.887  0.00  0.00    +0.000 NA
ATOM      3  N   UNL     1       7.342   5.241  18.981  0.00  0.00    +0.000 NA
ATOM      4  C   UNL     1       7.474   4.690  17.801  0.00  0.00    +0.000 A 
ATOM      5  N   UNL     1       6.585   5.225  16.879  0.00  0.00    +0.000 N 
ENDROOT
BRANCH   5   6
ATOM      6  C   UNL     1       6.548   4.920  15.483  0.00  0.00    +0.000 A 
ATOM      7  C   UNL     1       5.538   4.085  14.974  0.00  0.00    +0.000 A 
ATOM      8  C   UNL     1       5.560   3.664  13.642  0.00  0.00    +0.000 A 
ATOM      9  C   UNL     1       6.585   4.078  12.798  0.00  0.00    +0.000 A 
ATOM     10  C   UNL     1       7.573   4.933  13.281  0.00  0.00    +0.000 A 
ATOM     11  C   UNL     1       7.555   5.356  14.615  0.00  0.00    +0.000 A 
ENDBRANCH   5   6
BRANCH   4  12
ATOM     12  O   UNL     1       8.440   3.819  17.547  0.00  0.00    +0.000 OA
ATOM     13  H   UNL     1       7.956   3.076  17.146  0.00  0.00    +0.000 HD
ENDBRANCH   4  12
BRANCH   1  14
ATOM     14  S   UNL     1       4.475   7.040  17.147  0.00  0.00    +0.000 S 
BRANCH  14  15
ATOM     15  C   UNL     1       3.120   6.201  18.045  0.00  0.00    +0.000 C 
BRANCH  15  16
ATOM     16  C   UNL     1       3.176   4.678  17.896  0.00  0.00    +0.000 C 
BRANCH  16  22
ATOM     17  C   UNL     1       3.170   1.501  18.596  0.00  0.00    +0.000 C 
ATOM     18  C   UNL     1       2.618   2.615  19.413  0.00  0.00    +0.000 A 
ATOM     19  N   UNL     1       2.042   2.301  20.635  0.00  0.00    +0.000 NA
ATOM     20  C   UNL     1       1.615   3.394  21.223  0.00  0.00    +0.000 A 
ATOM     21  S   UNL     1       1.857   4.852  20.360  0.00  0.00    +0.000 S 
ATOM     22  C   UNL     1       2.614   3.966  19.097  0.00  0.00    +0.000 A 
ENDBRANCH  16  22
ENDBRANCH  15  16
ENDBRANCH  14  15
ENDBRANCH   1  14
TORSDOF 6
ENDMDL
MODEL 6
REMARK VINA RESULT:      -6.8      3.816      5.272
REMARK  Name = 
REMARK  7 active torsions:
REMARK  status: ('A' for Active; 'I' for Inactive)
REMARK    1  A    between atoms: C_1  and  C_2
REMARK    2  A    between atoms: C_6  and  C_7
REMARK    3  A    between atoms: C_7  and  C_8
REMARK    4  A    between atoms: C_8  and  S_9
REMARK    5  A    between atoms: S_9  and  C_10
REMARK    6  A    between atoms: C_13  and  O_14
REMARK    7  A    between atoms: N_15  and  C_16
REMARK                            x       y       z     vdW  Elec       q    Type
REMARK                         _______ _______ _______ _____ _____    ______ ____
ROOT
ATOM      1  C   UNL     1       2.689   3.977  19.050  0.00  0.00    +0.000 A 
ATOM      2  N   UNL     1       2.146   3.352  20.078  0.00  0.00    +0.000 NA
ATOM      3  N   UNL     1       3.067   2.472  20.578  0.00  0.00    +0.000 NA
ATOM      4  C   UNL     1       4.142   2.576  19.839  0.00  0.00    +0.000 A 
ATOM      5  N   UNL     1       3.994   3.534  18.845  0.00  0.00    +0.000 N 
ENDROOT
BRANCH   5   6
ATOM      6  C   UNL     1       5.016   3.965  17.944  0.00  0.00    +0.000 A 
ATOM      7  C   UNL     1       4.921   3.658  16.575  0.00  0.00    +0.000 A 
ATOM      8  C   UNL     1       5.971   3.949  15.700  0.00  0.00    +0.000 A 
ATOM      9  C   UNL     1       7.126   4.558  16.178  0.00  0.00    +0.000 A 
ATOM     10  C   UNL     1       7.219   4.898  17.526  0.00  0.00    +0.000 A 
ATOM     11  C   UNL     1       6.170   4.608  18.406  0.00  0.00    +0.000 A 
ENDBRANCH   5   6
BRANCH   4  12
ATOM     12  O   UNL     1       5.250   1.910  20.129  0.00  0.00    +0.000 OA
ATOM     13  H   UNL     1       4.955   1.304  20.832  0.00  0.00    +0.000 HD
ENDBRANCH   4  12
BRANCH   1  14
ATOM     14  S   UNL     1       1.797   5.056  18.023  0.00  0.00    +0.000 S 
BRANCH  14  15
ATOM     15  C   UNL     1       2.655   6.652  18.276  0.00  0.00    +0.000 C 
BRANCH  15  16
ATOM     16  C   UNL     1       2.339   7.276  19.638  0.00  0.00    +0.000 C 
BRANCH  16  22
ATOM     17  C   UNL     1       0.558   8.870  21.844  0.00  0.00    +0.000 C 
ATOM     18  C   UNL     1       0.860   9.282  20.448  0.00  0.00    +0.000 A 
ATOM     19  N   UNL     1       0.355  10.495  20.005  0.00  0.00    +0.000 NA
ATOM     20  C   UNL     1       0.719  10.705  18.761  0.00  0.00    +0.000 A 
ATOM     21  S   UNL     1       1.667   9.476  18.041  0.00  0.00    +0.000 S 
ATOM     22  C   UNL     1       1.611   8.586  19.511  0.00  0.00    +0.000 A 
ENDBRANCH  16  22
ENDBRANCH  15  16
ENDBRANCH  14  15
ENDBRANCH   1  14
TORSDOF 6
ENDMDL
MODEL 7
REMARK VINA RESULT:      -6.8      1.138      1.461
REMARK  Name = 
REMARK  7 active torsions:
REMARK  status: ('A' for Active; 'I' for Inactive)
REMARK    1  A    between atoms: C_1  and  C_2
REMARK    2  A    between atoms: C_6  and  C_7
REMARK    3  A    between atoms: C_7  and  C_8
REMARK    4  A    between atoms: C_8  and  S_9
REMARK    5  A    between atoms: S_9  and  C_10
REMARK    6  A    between atoms: C_13  and  O_14
REMARK    7  A    between atoms: N_15  and  C_16
REMARK                            x       y       z     vdW  Elec       q    Type
REMARK                         _______ _______ _______ _____ _____    ______ ____
ROOT
ATOM      1  C   UNL     1       5.277   4.366  16.287  0.00  0.00    +0.000 A 
ATOM      2  N   UNL     1       4.999   3.717  15.172  0.00  0.00    +0.000 NA
ATOM      3  N   UNL     1       5.922   4.073  14.228  0.00  0.00    +0.000 NA
ATOM      4  C   UNL     1       6.733   4.936  14.787  0.00  0.00    +0.000 A 
ATOM      5  N   UNL     1       6.404   5.168  16.115  0.00  0.00    +0.000 N 
ENDROOT
BRANCH   5   6
ATOM      6  C   UNL     1       7.152   5.968  17.033  0.00  0.00    +0.000 A 
ATOM      7  C   UNL     1       7.643   5.400  18.221  0.00  0.00    +0.000 A 
ATOM      8  C   UNL     1       8.257   6.193  19.194  0.00  0.00    +0.000 A 
ATOM      9  C   UNL     1       8.398   7.561  18.990  0.00  0.00    +0.000 A 
ATOM     10  C   UNL     1       7.946   8.131  17.801  0.00  0.00    +0.000 A 
ATOM     11  C   UNL     1       7.330   7.341  16.825  0.00  0.00    +0.000 A 
ENDBRANCH   5   6
BRANCH   4  12
ATOM     12  O   UNL     1       7.796   5.403  14.148  0.00  0.00    +0.000 OA
ATOM     13  H   UNL     1       8.534   5.047  14.673  0.00  0.00    +0.000 HD
ENDBRANCH   4  12
BRANCH   1  14
ATOM     14  S   UNL     1       4.246   4.329  17.683  0.00  0.00    +0.000 S 
BRANCH  14  15
ATOM     15  C   UNL     1       2.657   3.738  16.995  0.00  0.00    +0.000 C 
BRANCH  15  16
ATOM     16  C   UNL     1       1.467   4.086  17.893  0.00  0.00    +0.000 C 
BRANCH  16  22
ATOM     17  C   UNL     1       1.847   6.073  20.441  0.00  0.00    +0.000 C 
ATOM     18  C   UNL     1       1.873   4.586  20.434  0.00  0.00    +0.000 A 
ATOM     19  N   UNL     1       2.060   3.934  21.644  0.00  0.00    +0.000 NA
ATOM     20  C   UNL     1       2.052   2.634  21.458  0.00  0.00    +0.000 A 
ATOM     21  S   UNL     1       1.836   2.110  19.843  0.00  0.00    +0.000 S 
ATOM     22  C   UNL     1       1.724   3.749  19.338  0.00  0.00    +0.000 A 
ENDBRANCH  16  22
ENDBRANCH  15  16
ENDBRANCH  14  15
ENDBRANCH   1  14
TORSDOF 6
ENDMDL
MODEL 8
REMARK VINA RESULT:      -6.8      4.089      5.482
REMARK  Name = 
REMARK  7 active torsions:
REMARK  status: ('A' for Active; 'I' for Inactive)
REMARK    1  A    between atoms: C_1  and  C_2
REMARK    2  A    between atoms: C_6  and  C_7
REMARK    3  A    between atoms: C_7  and  C_8
REMARK    4  A    between atoms: C_8  and  S_9
REMARK    5  A    between atoms: S_9  and  C_10
REMARK    6  A    between atoms: C_13  and  O_14
REMARK    7  A    between atoms: N_15  and  C_16
REMARK                            x       y       z     vdW  Elec       q    Type
REMARK                         _______ _______ _______ _____ _____    ______ ____
ROOT
ATOM      1  C   UNL     1       2.943   4.373  19.348  0.00  0.00    +0.000 A 
ATOM      2  N   UNL     1       2.396   3.778  20.390  0.00  0.00    +0.000 NA
ATOM      3  N   UNL     1       3.163   2.693  20.714  0.00  0.00    +0.000 NA
ATOM      4  C   UNL     1       4.151   2.648  19.857  0.00  0.00    +0.000 A 
ATOM      5  N   UNL     1       4.099   3.701  18.955  0.00  0.00    +0.000 N 
ENDROOT
BRANCH   5   6
ATOM      6  C   UNL     1       5.086   4.002  17.965  0.00  0.00    +0.000 A 
ATOM      7  C   UNL     1       6.299   4.603  18.344  0.00  0.00    +0.000 A 
ATOM      8  C   UNL     1       7.218   5.030  17.382  0.00  0.00    +0.000 A 
ATOM      9  C   UNL     1       6.944   4.853  16.030  0.00  0.00    +0.000 A 
ATOM     10  C   UNL     1       5.760   4.228  15.643  0.00  0.00    +0.000 A 
ATOM     11  C   UNL     1       4.837   3.800  16.603  0.00  0.00    +0.000 A 
ENDBRANCH   5   6
BRANCH   4  12
ATOM     12  O   UNL     1       5.122   1.753  19.965  0.00  0.00    +0.000 OA
ATOM     13  H   UNL     1       5.067   1.491  20.900  0.00  0.00    +0.000 HD
ENDBRANCH   4  12
BRANCH   1  14
ATOM     14  S   UNL     1       2.190   5.695  18.511  0.00  0.00    +0.000 S 
BRANCH  14  15
ATOM     15  C   UNL     1       2.642   7.135  19.545  0.00  0.00    +0.000 C 
BRANCH  15  16
ATOM     16  C   UNL     1       1.574   7.459  20.594  0.00  0.00    +0.000 C 
BRANCH  16  22
ATOM     17  C   UNL     1       0.321   9.415  22.872  0.00  0.00    +0.000 C 
ATOM     18  C   UNL     1       0.531   9.713  21.431  0.00  0.00    +0.000 A 
ATOM     19  N   UNL     1       0.181  10.974  20.971  0.00  0.00    +0.000 NA
ATOM     20  C   UNL     1       0.436  11.069  19.686  0.00  0.00    +0.000 A 
ATOM     21  S   UNL     1       1.091   9.671  18.947  0.00  0.00    +0.000 S 
ATOM     22  C   UNL     1       1.054   8.865  20.465  0.00  0.00    +0.000 A 
ENDBRANCH  16  22
ENDBRANCH  15  16
ENDBRANCH  14  15
ENDBRANCH   1  14
TORSDOF 6
ENDMDL
MODEL 9
REMARK VINA RESULT:      -6.7      3.770      5.193
REMARK  Name = 
REMARK  7 active torsions:
REMARK  status: ('A' for Active; 'I' for Inactive)
REMARK    1  A    between atoms: C_1  and  C_2
REMARK    2  A    between atoms: C_6  and  C_7
REMARK    3  A    between atoms: C_7  and  C_8
REMARK    4  A    between atoms: C_8  and  S_9
REMARK    5  A    between atoms: S_9  and  C_10
REMARK    6  A    between atoms: C_13  and  O_14
REMARK    7  A    between atoms: N_15  and  C_16
REMARK                            x       y       z     vdW  Elec       q    Type
REMARK                         _______ _______ _______ _____ _____    ______ ____
ROOT
ATOM      1  C   UNL     1       2.840   4.341  19.162  0.00  0.00    +0.000 A 
ATOM      2  N   UNL     1       2.299   3.748  20.208  0.00  0.00    +0.000 NA
ATOM      3  N   UNL     1       3.137   2.745  20.613  0.00  0.00    +0.000 NA
ATOM      4  C   UNL     1       4.162   2.746  19.797  0.00  0.00    +0.000 A 
ATOM      5  N   UNL     1       4.063   3.752  18.846  0.00  0.00    +0.000 N 
ENDROOT
BRANCH   5   6
ATOM      6  C   UNL     1       5.064   4.091  17.884  0.00  0.00    +0.000 A 
ATOM      7  C   UNL     1       4.883   3.748  16.533  0.00  0.00    +0.000 A 
ATOM      8  C   UNL     1       5.905   3.946  15.600  0.00  0.00    +0.000 A 
ATOM      9  C   UNL     1       7.117   4.496  16.002  0.00  0.00    +0.000 A 
ATOM     10  C   UNL     1       7.297   4.871  17.332  0.00  0.00    +0.000 A 
ATOM     11  C   UNL     1       6.277   4.674  18.269  0.00  0.00    +0.000 A 
ENDBRANCH   5   6
BRANCH   4  12
ATOM     12  O   UNL     1       5.196   1.940  19.985  0.00  0.00    +0.000 OA
ATOM     13  H   UNL     1       5.485   1.750  19.075  0.00  0.00    +0.000 HD
ENDBRANCH   4  12
BRANCH   1  14
ATOM     14  S   UNL     1       2.019   5.559  18.237  0.00  0.00    +0.000 S 
BRANCH  14  15
ATOM     15  C   UNL     1       2.880   7.094  18.736  0.00  0.00    +0.000 C 
BRANCH  15  16
ATOM     16  C   UNL     1       2.080   8.352  18.389  0.00  0.00    +0.000 C 
BRANCH  16  22
ATOM     17  C   UNL     1      -0.196  10.676  18.465  0.00  0.00    +0.000 C 
ATOM     18  C   UNL     1       0.262   9.813  19.586  0.00  0.00    +0.000 A 
ATOM     19  N   UNL     1      -0.345   9.977  20.822  0.00  0.00    +0.000 NA
ATOM     20  C   UNL     1       0.172   9.138  21.690  0.00  0.00    +0.000 A 
ATOM     21  S   UNL     1       1.412   8.119  21.099  0.00  0.00    +0.000 S 
ATOM     22  C   UNL     1       1.245   8.834  19.545  0.00  0.00    +0.000 A 
ENDBRANCH  16  22
ENDBRANCH  15  16
ENDBRANCH  14  15
ENDBRANCH   1  14
TORSDOF 6
ENDMDL
