MODEL 1
REMARK VINA RESULT:      -8.6      0.000      0.000
REMARK  Name = 
REMARK  11 active torsions:
REMARK  status: ('A' for Active; 'I' for Inactive)
REMARK    1  A    between atoms: C_1  and  C_2
REMARK    2  A    between atoms: C_2  and  C_20
REMARK    3  A    between atoms: N_3  and  O_4
REMARK    4  A    between atoms: O_4  and  C_5
REMARK    5  A    between atoms: C_5  and  C_6
REMARK    6  A    between atoms: C_5  and  C_12
REMARK    7  A    between atoms: C_6  and  N_7
REMARK    8  A    between atoms: C_23  and  O_24
REMARK    9  A    between atoms: O_24  and  C_25
REMARK   10  A    between atoms: C_25  and  C_26
REMARK   11  A    between atoms: C_26  and  N_27
REMARK                            x       y       z     vdW  Elec       q    Type
REMARK                         _______ _______ _______ _____ _____    ______ ____
ROOT
ATOM      1  C   UNL     1       1.329   9.062  17.473  0.00  0.00    +0.000 C 
ATOM      2  C   UNL     1       1.676   8.467  18.824  0.00  0.00    +0.000 C 
ATOM      3  N   UNL     1       2.463   7.445  19.000  0.00  0.00    +0.000 NA
ENDROOT
BRANCH   2   4
ATOM      4  C   UNL     1       1.045   9.105  20.014  0.00  0.00    +0.000 A 
ATOM      5  C   UNL     1       1.187   8.519  21.275  0.00  0.00    +0.000 A 
ATOM      6  C   UNL     1       0.629   9.127  22.400  0.00  0.00    +0.000 A 
ATOM      7  C   UNL     1      -0.052  10.341  22.283  0.00  0.00    +0.000 A 
ATOM      8  C   UNL     1      -0.218  10.915  21.017  0.00  0.00    +0.000 A 
ATOM      9  C   UNL     1       0.348  10.307  19.884  0.00  0.00    +0.000 A 
BRANCH   7  10
ATOM     10  O   UNL     1      -0.581  11.041  23.338  0.00  0.00    +0.000 OA
BRANCH  10  11
ATOM     11  C   UNL     1      -1.211  12.277  22.973  0.00  0.00    +0.000 C 
BRANCH  11  12
ATOM     12  C   UNL     1      -2.707  12.236  23.313  0.00  0.00    +0.000 C 
BRANCH  12  13
ATOM     13  N   UNL     1      -3.397  13.511  23.029  0.00  0.00    +0.000 NA
ATOM     14  C   UNL     1      -4.460  13.850  24.000  0.00  0.00    +0.000 C 
ATOM     15  C   UNL     1      -5.713  12.971  23.877  0.00  0.00    +0.000 C 
ATOM     16  O   UNL     1      -6.257  13.032  22.552  0.00  0.00    +0.000 OA
ATOM     17  C   UNL     1      -5.280  12.646  21.578  0.00  0.00    +0.000 C 
ATOM     18  C   UNL     1      -4.005  13.504  21.679  0.00  0.00    +0.000 C 
ENDBRANCH  12  13
ENDBRANCH  11  12
ENDBRANCH  10  11
ENDBRANCH   7  10
ENDBRANCH   2   4
BRANCH   3  19
ATOM     19  O   UNL     1       2.842   6.864  17.780  0.00  0.00    +0.000 OA
BRANCH  19  20
ATOM     20  C   UNL     1       3.566   5.631  17.996  0.00  0.00    +0.000 C 
BRANCH  20  21
ATOM     21  C   UNL     1       2.791   4.786  19.003  0.00  0.00    +0.000 A 
ATOM     22  C   UNL     1       3.240   4.687  20.338  0.00  0.00    +0.000 A 
ATOM     23  C   UNL     1       2.531   3.950  21.290  0.00  0.00    +0.000 A 
ATOM     24  C   UNL     1       1.357   3.308  20.923  0.00  0.00    +0.000 A 
ATOM     25  F   UNL     1       0.678   2.602  21.836  0.00  0.00    +0.000 F 
ATOM     26  C   UNL     1       0.870   3.407  19.631  0.00  0.00    +0.000 A 
ATOM     27  C   UNL     1       1.578   4.155  18.691  0.00  0.00    +0.000 A 
ATOM     28  F   UNL     1       1.035   4.278  17.474  0.00  0.00    +0.000 F 
ENDBRANCH  20  21
BRANCH  20  29
ATOM     29  C   UNL     1       5.057   5.912  18.291  0.00  0.00    +0.000 C 
BRANCH  29  30
ATOM     30  N   UNL     1       6.031   5.160  17.524  0.00  0.00    +0.000 N 
ATOM     31  C   UNL     1       5.953   4.885  16.184  0.00  0.00    +0.000 A 
ATOM     32  C   UNL     1       7.192   4.393  15.846  0.00  0.00    +0.000 A 
ATOM     33  N   UNL     1       8.004   4.324  16.947  0.00  0.00    +0.000 NA
ATOM     34  C   UNL     1       7.281   4.794  17.939  0.00  0.00    +0.000 A 
ENDBRANCH  29  30
ENDBRANCH  20  29
ENDBRANCH  19  20
ENDBRANCH   3  19
TORSDOF 10
ENDMDL
MODEL 2
REMARK VINA RESULT:      -8.5      3.529      5.392
REMARK  Name = 
REMARK  11 active torsions:
REMARK  status: ('A' for Active; 'I' for Inactive)
REMARK    1  A    between atoms: C_1  and  C_2
REMARK    2  A    between atoms: C_2  and  C_20
REMARK    3  A    between atoms: N_3  and  O_4
REMARK    4  A    between atoms: O_4  and  C_5
REMARK    5  A    between atoms: C_5  and  C_6
REMARK    6  A    between atoms: C_5  and  C_12
REMARK    7  A    between atoms: C_6  and  N_7
REMARK    8  A    between atoms: C_23  and  O_24
REMARK    9  A    between atoms: O_24  and  C_25
REMARK   10  A    between atoms: C_25  and  C_26
REMARK   11  A    between atoms: C_26  and  N_27
REMARK                            x       y       z     vdW  Elec       q    Type
REMARK                         _______ _______ _______ _____ _____    ______ ____
ROOT
ATOM      1  C   UNL     1       1.632   5.358  20.752  0.00  0.00    +0.000 C 
ATOM      2  C   UNL     1       2.482   6.293  19.913  0.00  0.00    +0.000 C 
ATOM      3  N   UNL     1       3.628   5.974  19.384  0.00  0.00    +0.000 NA
ENDROOT
BRANCH   2   4
ATOM      4  C   UNL     1       1.953   7.671  19.710  0.00  0.00    +0.000 A 
ATOM      5  C   UNL     1       2.059   8.280  18.457  0.00  0.00    +0.000 A 
ATOM      6  C   UNL     1       1.535   9.556  18.248  0.00  0.00    +0.000 A 
ATOM      7  C   UNL     1       0.874  10.227  19.279  0.00  0.00    +0.000 A 
ATOM      8  C   UNL     1       0.791   9.629  20.543  0.00  0.00    +0.000 A 
ATOM      9  C   UNL     1       1.313   8.342  20.753  0.00  0.00    +0.000 A 
BRANCH   7  10
ATOM     10  O   UNL     1       0.277  11.456  19.152  0.00  0.00    +0.000 OA
BRANCH  10  11
ATOM     11  C   UNL     1      -1.099  11.492  19.554  0.00  0.00    +0.000 C 
BRANCH  11  12
ATOM     12  C   UNL     1      -1.984  11.960  18.391  0.00  0.00    +0.000 C 
BRANCH  12  13
ATOM     13  N   UNL     1      -3.130  11.061  18.142  0.00  0.00    +0.000 NA
ATOM     14  C   UNL     1      -2.747   9.658  17.872  0.00  0.00    +0.000 C 
ATOM     15  C   UNL     1      -2.090   9.449  16.500  0.00  0.00    +0.000 C 
ATOM     16  O   UNL     1      -2.944   9.908  15.445  0.00  0.00    +0.000 OA
ATOM     17  C   UNL     1      -3.289  11.287  15.627  0.00  0.00    +0.000 C 
ATOM     18  C   UNL     1      -3.944  11.533  16.999  0.00  0.00    +0.000 C 
ENDBRANCH  12  13
ENDBRANCH  11  12
ENDBRANCH  10  11
ENDBRANCH   7  10
ENDBRANCH   2   4
BRANCH   3  19
ATOM     19  O   UNL     1       4.058   4.705  19.801  0.00  0.00    +0.000 OA
BRANCH  19  20
ATOM     20  C   UNL     1       5.084   4.190  18.921  0.00  0.00    +0.000 C 
BRANCH  20  21
ATOM     21  C   UNL     1       5.954   5.357  18.461  0.00  0.00    +0.000 A 
ATOM     22  C   UNL     1       7.153   5.657  19.145  0.00  0.00    +0.000 A 
ATOM     23  C   UNL     1       7.988   6.696  18.724  0.00  0.00    +0.000 A 
ATOM     24  C   UNL     1       7.640   7.444  17.610  0.00  0.00    +0.000 A 
ATOM     25  F   UNL     1       8.442   8.439  17.208  0.00  0.00    +0.000 F 
ATOM     26  C   UNL     1       6.488   7.159  16.896  0.00  0.00    +0.000 A 
ATOM     27  C   UNL     1       5.668   6.114  17.316  0.00  0.00    +0.000 A 
ATOM     28  F   UNL     1       4.601   5.832  16.558  0.00  0.00    +0.000 F 
ENDBRANCH  20  21
BRANCH  20  29
ATOM     29  C   UNL     1       4.471   3.279  17.834  0.00  0.00    +0.000 C 
BRANCH  29  30
ATOM     30  N   UNL     1       3.077   2.912  17.994  0.00  0.00    +0.000 N 
ATOM     31  C   UNL     1       2.585   2.017  18.907  0.00  0.00    +0.000 A 
ATOM     32  C   UNL     1       1.221   2.184  18.874  0.00  0.00    +0.000 A 
ATOM     33  N   UNL     1       0.869   3.122  17.941  0.00  0.00    +0.000 NA
ATOM     34  C   UNL     1       2.004   3.545  17.431  0.00  0.00    +0.000 A 
ENDBRANCH  29  30
ENDBRANCH  20  29
ENDBRANCH  19  20
ENDBRANCH   3  19
TORSDOF 10
ENDMDL
MODEL 3
REMARK VINA RESULT:      -8.4      2.181      4.228
REMARK  Name = 
REMARK  11 active torsions:
REMARK  status: ('A' for Active; 'I' for Inactive)
REMARK    1  A    between atoms: C_1  and  C_2
REMARK    2  A    between atoms: C_2  and  C_20
REMARK    3  A    between atoms: N_3  and  O_4
REMARK    4  A    between atoms: O_4  and  C_5
REMARK    5  A    between atoms: C_5  and  C_6
REMARK    6  A    between atoms: C_5  and  C_12
REMARK    7  A    between atoms: C_6  and  N_7
REMARK    8  A    between atoms: C_23  and  O_24
REMARK    9  A    between atoms: O_24  and  C_25
REMARK   10  A    between atoms: C_25  and  C_26
REMARK   11  A    between atoms: C_26  and  N_27
REMARK                            x       y       z     vdW  Elec       q    Type
REMARK                         _______ _______ _______ _____ _____    ______ ____
ROOT
ATOM      1  C   UNL     1       1.862   9.238  17.863  0.00  0.00    +0.000 C 
ATOM      2  C   UNL     1       1.775   8.514  19.194  0.00  0.00    +0.000 C 
ATOM      3  N   UNL     1       2.266   7.330  19.422  0.00  0.00    +0.000 NA
ENDROOT
BRANCH   2   4
ATOM      4  C   UNL     1       1.058   9.222  20.291  0.00  0.00    +0.000 A 
ATOM      5  C   UNL     1       0.342  10.390  20.014  0.00  0.00    +0.000 A 
ATOM      6  C   UNL     1      -0.362  11.041  21.027  0.00  0.00    +0.000 A 
ATOM      7  C   UNL     1      -0.383  10.518  22.322  0.00  0.00    +0.000 A 
ATOM      8  C   UNL     1       0.357   9.363  22.607  0.00  0.00    +0.000 A 
ATOM      9  C   UNL     1       1.061   8.703  21.586  0.00  0.00    +0.000 A 
BRANCH   7  10
ATOM     10  O   UNL     1      -1.092  11.054  23.368  0.00  0.00    +0.000 OA
BRANCH  10  11
ATOM     11  C   UNL     1      -1.635  12.357  23.110  0.00  0.00    +0.000 C 
BRANCH  11  12
ATOM     12  C   UNL     1      -3.168  12.303  23.091  0.00  0.00    +0.000 C 
BRANCH  12  13
ATOM     13  N   UNL     1      -3.775  12.728  24.369  0.00  0.00    +0.000 NA
ATOM     14  C   UNL     1      -5.246  12.573  24.419  0.00  0.00    +0.000 C 
ATOM     15  C   UNL     1      -6.005  13.585  23.549  0.00  0.00    +0.000 C 
ATOM     16  O   UNL     1      -5.667  14.930  23.909  0.00  0.00    +0.000 OA
ATOM     17  C   UNL     1      -4.254  15.149  23.811  0.00  0.00    +0.000 C 
ATOM     18  C   UNL     1      -3.462  14.144  24.667  0.00  0.00    +0.000 C 
ENDBRANCH  12  13
ENDBRANCH  11  12
ENDBRANCH  10  11
ENDBRANCH   7  10
ENDBRANCH   2   4
BRANCH   3  19
ATOM     19  O   UNL     1       2.762   6.737  18.251  0.00  0.00    +0.000 OA
BRANCH  19  20
ATOM     20  C   UNL     1       3.360   5.451  18.534  0.00  0.00    +0.000 C 
BRANCH  20  21
ATOM     21  C   UNL     1       4.545   5.252  17.594  0.00  0.00    +0.000 A 
ATOM     22  C   UNL     1       4.532   5.835  16.307  0.00  0.00    +0.000 A 
ATOM     23  C   UNL     1       5.617   5.700  15.438  0.00  0.00    +0.000 A 
ATOM     24  C   UNL     1       6.735   4.988  15.846  0.00  0.00    +0.000 A 
ATOM     25  F   UNL     1       7.776   4.860  15.011  0.00  0.00    +0.000 F 
ATOM     26  C   UNL     1       6.797   4.429  17.111  0.00  0.00    +0.000 A 
ATOM     27  C   UNL     1       5.714   4.579  17.975  0.00  0.00    +0.000 A 
ATOM     28  F   UNL     1       5.845   4.080  19.210  0.00  0.00    +0.000 F 
ENDBRANCH  20  21
BRANCH  20  29
ATOM     29  C   UNL     1       2.285   4.342  18.580  0.00  0.00    +0.000 C 
BRANCH  29  30
ATOM     30  N   UNL     1       2.196   3.564  19.801  0.00  0.00    +0.000 N 
ATOM     31  C   UNL     1       3.166   2.728  20.289  0.00  0.00    +0.000 A 
ATOM     32  C   UNL     1       2.765   2.421  21.567  0.00  0.00    +0.000 A 
ATOM     33  N   UNL     1       1.563   3.011  21.854  0.00  0.00    +0.000 NA
ATOM     34  C   UNL     1       1.248   3.693  20.776  0.00  0.00    +0.000 A 
ENDBRANCH  29  30
ENDBRANCH  20  29
ENDBRANCH  19  20
ENDBRANCH   3  19
TORSDOF 10
ENDMDL
MODEL 4
REMARK VINA RESULT:      -8.4      2.337      4.195
REMARK  Name = 
REMARK  11 active torsions:
REMARK  status: ('A' for Active; 'I' for Inactive)
REMARK    1  A    between atoms: C_1  and  C_2
REMARK    2  A    between atoms: C_2  and  C_20
REMARK    3  A    between atoms: N_3  and  O_4
REMARK    4  A    between atoms: O_4  and  C_5
REMARK    5  A    between atoms: C_5  and  C_6
REMARK    6  A    between atoms: C_5  and  C_12
REMARK    7  A    between atoms: C_6  and  N_7
REMARK    8  A    between atoms: C_23  and  O_24
REMARK    9  A    between atoms: O_24  and  C_25
REMARK   10  A    between atoms: C_25  and  C_26
REMARK   11  A    between atoms: C_26  and  N_27
REMARK                            x       y       z     vdW  Elec       q    Type
REMARK                         _______ _______ _______ _____ _____    ______ ____
ROOT
ATOM      1  C   UNL     1       2.075   8.726  18.117  0.00  0.00    +0.000 C 
ATOM      2  C   UNL     1       1.875   8.162  19.511  0.00  0.00    +0.000 C 
ATOM      3  N   UNL     1       2.341   7.016  19.917  0.00  0.00    +0.000 NA
ENDROOT
BRANCH   2   4
ATOM      4  C   UNL     1       1.073   8.990  20.455  0.00  0.00    +0.000 A 
ATOM      5  C   UNL     1       0.229   9.989  19.960  0.00  0.00    +0.000 A 
ATOM      6  C   UNL     1      -0.552  10.745  20.833  0.00  0.00    +0.000 A 
ATOM      7  C   UNL     1      -0.523  10.495  22.207  0.00  0.00    +0.000 A 
ATOM      8  C   UNL     1       0.342   9.514  22.706  0.00  0.00    +0.000 A 
ATOM      9  C   UNL     1       1.125   8.746  21.828  0.00  0.00    +0.000 A 
BRANCH   7  10
ATOM     10  O   UNL     1      -1.298  11.146  23.134  0.00  0.00    +0.000 OA
BRANCH  10  11
ATOM     11  C   UNL     1      -1.325  12.573  22.988  0.00  0.00    +0.000 C 
BRANCH  11  12
ATOM     12  C   UNL     1      -2.772  13.074  22.900  0.00  0.00    +0.000 C 
BRANCH  12  13
ATOM     13  N   UNL     1      -3.368  13.347  24.223  0.00  0.00    +0.000 NA
ATOM     14  C   UNL     1      -4.566  12.533  24.524  0.00  0.00    +0.000 C 
ATOM     15  C   UNL     1      -5.807  12.936  23.715  0.00  0.00    +0.000 C 
ATOM     16  O   UNL     1      -6.124  14.319  23.913  0.00  0.00    +0.000 OA
ATOM     17  C   UNL     1      -5.012  15.155  23.569  0.00  0.00    +0.000 C 
ATOM     18  C   UNL     1      -3.747  14.772  24.359  0.00  0.00    +0.000 C 
ENDBRANCH  12  13
ENDBRANCH  11  12
ENDBRANCH  10  11
ENDBRANCH   7  10
ENDBRANCH   2   4
BRANCH   3  19
ATOM     19  O   UNL     1       2.929   6.293  18.868  0.00  0.00    +0.000 OA
BRANCH  19  20
ATOM     20  C   UNL     1       4.018   5.472  19.352  0.00  0.00    +0.000 C 
BRANCH  20  21
ATOM     21  C   UNL     1       4.980   5.219  18.195  0.00  0.00    +0.000 A 
ATOM     22  C   UNL     1       4.491   5.139  16.872  0.00  0.00    +0.000 A 
ATOM     23  C   UNL     1       5.353   4.943  15.790  0.00  0.00    +0.000 A 
ATOM     24  C   UNL     1       6.718   4.833  16.014  0.00  0.00    +0.000 A 
ATOM     25  F   UNL     1       7.543   4.646  14.975  0.00  0.00    +0.000 F 
ATOM     26  C   UNL     1       7.237   4.936  17.293  0.00  0.00    +0.000 A 
ATOM     27  C   UNL     1       6.371   5.143  18.364  0.00  0.00    +0.000 A 
ATOM     28  F   UNL     1       6.922   5.304  19.573  0.00  0.00    +0.000 F 
ENDBRANCH  20  21
BRANCH  20  29
ATOM     29  C   UNL     1       3.483   4.245  20.124  0.00  0.00    +0.000 C 
BRANCH  29  30
ATOM     30  N   UNL     1       2.329   3.569  19.564  0.00  0.00    +0.000 N 
ATOM     31  C   UNL     1       2.359   2.624  18.572  0.00  0.00    +0.000 A 
ATOM     32  C   UNL     1       1.095   2.085  18.552  0.00  0.00    +0.000 A 
ATOM     33  N   UNL     1       0.289   2.701  19.472  0.00  0.00    +0.000 NA
ATOM     34  C   UNL     1       1.058   3.585  20.067  0.00  0.00    +0.000 A 
ENDBRANCH  29  30
ENDBRANCH  20  29
ENDBRANCH  19  20
ENDBRANCH   3  19
TORSDOF 10
ENDMDL
MODEL 5
REMARK VINA RESULT:      -8.4      2.383      4.126
REMARK  Name = 
REMARK  11 active torsions:
REMARK  status: ('A' for Active; 'I' for Inactive)
REMARK    1  A    between atoms: C_1  and  C_2
REMARK    2  A    between atoms: C_2  and  C_20
REMARK    3  A    between atoms: N_3  and  O_4
REMARK    4  A    between atoms: O_4  and  C_5
REMARK    5  A    between atoms: C_5  and  C_6
REMARK    6  A    between atoms: C_5  and  C_12
REMARK    7  A    between atoms: C_6  and  N_7
REMARK    8  A    between atoms: C_23  and  O_24
REMARK    9  A    between atoms: O_24  and  C_25
REMARK   10  A    between atoms: C_25  and  C_26
REMARK   11  A    between atoms: C_26  and  N_27
REMARK                            x       y       z     vdW  Elec       q    Type
REMARK                         _______ _______ _______ _____ _____    ______ ____
ROOT
ATOM      1  C   UNL     1       2.002   9.366  17.969  0.00  0.00    +0.000 C 
ATOM      2  C   UNL     1       1.726   8.536  19.208  0.00  0.00    +0.000 C 
ATOM      3  N   UNL     1       2.089   7.296  19.362  0.00  0.00    +0.000 NA
ENDROOT
BRANCH   2   4
ATOM      4  C   UNL     1       0.969   9.208  20.303  0.00  0.00    +0.000 A 
ATOM      5  C   UNL     1       1.178   8.823  21.630  0.00  0.00    +0.000 A 
ATOM      6  C   UNL     1       0.500   9.469  22.664  0.00  0.00    +0.000 A 
ATOM      7  C   UNL     1      -0.371  10.526  22.388  0.00  0.00    +0.000 A 
ATOM      8  C   UNL     1      -0.602  10.893  21.056  0.00  0.00    +0.000 A 
ATOM      9  C   UNL     1       0.085  10.248  20.014  0.00  0.00    +0.000 A 
BRANCH   7  10
ATOM     10  O   UNL     1      -1.035  11.258  23.340  0.00  0.00    +0.000 OA
BRANCH  10  11
ATOM     11  C   UNL     1      -1.659  12.450  22.844  0.00  0.00    +0.000 C 
BRANCH  11  12
ATOM     12  C   UNL     1      -3.182  12.364  23.006  0.00  0.00    +0.000 C 
BRANCH  12  13
ATOM     13  N   UNL     1      -3.653  12.879  24.307  0.00  0.00    +0.000 NA
ATOM     14  C   UNL     1      -4.936  12.297  24.758  0.00  0.00    +0.000 C 
ATOM     15  C   UNL     1      -6.152  12.784  23.956  0.00  0.00    +0.000 C 
ATOM     16  O   UNL     1      -6.252  14.213  23.990  0.00  0.00    +0.000 OA
ATOM     17  C   UNL     1      -5.053  14.824  23.498  0.00  0.00    +0.000 C 
ATOM     18  C   UNL     1      -3.812  14.350  24.277  0.00  0.00    +0.000 C 
ENDBRANCH  12  13
ENDBRANCH  11  12
ENDBRANCH  10  11
ENDBRANCH   7  10
ENDBRANCH   2   4
BRANCH   3  19
ATOM     19  O   UNL     1       2.643   6.767  18.187  0.00  0.00    +0.000 OA
BRANCH  19  20
ATOM     20  C   UNL     1       3.234   5.469  18.431  0.00  0.00    +0.000 C 
BRANCH  20  21
ATOM     21  C   UNL     1       4.330   5.236  17.395  0.00  0.00    +0.000 A 
ATOM     22  C   UNL     1       4.435   3.986  16.745  0.00  0.00    +0.000 A 
ATOM     23  C   UNL     1       5.406   3.755  15.767  0.00  0.00    +0.000 A 
ATOM     24  C   UNL     1       6.280   4.774  15.418  0.00  0.00    +0.000 A 
ATOM     25  F   UNL     1       7.210   4.551  14.480  0.00  0.00    +0.000 F 
ATOM     26  C   UNL     1       6.188   6.021  16.011  0.00  0.00    +0.000 A 
ATOM     27  C   UNL     1       5.209   6.246  16.977  0.00  0.00    +0.000 A 
ATOM     28  F   UNL     1       5.114   7.485  17.474  0.00  0.00    +0.000 F 
ENDBRANCH  20  21
BRANCH  20  29
ATOM     29  C   UNL     1       2.143   4.385  18.579  0.00  0.00    +0.000 C 
BRANCH  29  30
ATOM     30  N   UNL     1       1.927   3.848  19.908  0.00  0.00    +0.000 N 
ATOM     31  C   UNL     1       1.105   2.798  20.222  0.00  0.00    +0.000 A 
ATOM     32  C   UNL     1       1.412   2.479  21.524  0.00  0.00    +0.000 A 
ATOM     33  N   UNL     1       2.365   3.328  22.020  0.00  0.00    +0.000 NA
ATOM     34  C   UNL     1       2.657   4.137  21.027  0.00  0.00    +0.000 A 
ENDBRANCH  29  30
ENDBRANCH  20  29
ENDBRANCH  19  20
ENDBRANCH   3  19
TORSDOF 10
ENDMDL
MODEL 6
REMARK VINA RESULT:      -8.3      0.891      1.406
REMARK  Name = 
REMARK  11 active torsions:
REMARK  status: ('A' for Active; 'I' for Inactive)
REMARK    1  A    between atoms: C_1  and  C_2
REMARK    2  A    between atoms: C_2  and  C_20
REMARK    3  A    between atoms: N_3  and  O_4
REMARK    4  A    between atoms: O_4  and  C_5
REMARK    5  A    between atoms: C_5  and  C_6
REMARK    6  A    between atoms: C_5  and  C_12
REMARK    7  A    between atoms: C_6  and  N_7
REMARK    8  A    between atoms: C_23  and  O_24
REMARK    9  A    between atoms: O_24  and  C_25
REMARK   10  A    between atoms: C_25  and  C_26
REMARK   11  A    between atoms: C_26  and  N_27
REMARK                            x       y       z     vdW  Elec       q    Type
REMARK                         _______ _______ _______ _____ _____    ______ ____
ROOT
ATOM      1  C   UNL     1       1.466   8.969  17.616  0.00  0.00    +0.000 C 
ATOM      2  C   UNL     1       1.710   8.418  19.009  0.00  0.00    +0.000 C 
ATOM      3  N   UNL     1       2.371   7.326  19.265  0.00  0.00    +0.000 NA
ENDROOT
BRANCH   2   4
ATOM      4  C   UNL     1       1.128   9.192  20.142  0.00  0.00    +0.000 A 
ATOM      5  C   UNL     1       0.665  10.494  19.930  0.00  0.00    +0.000 A 
ATOM      6  C   UNL     1       0.087  11.213  20.975  0.00  0.00    +0.000 A 
ATOM      7  C   UNL     1      -0.062  10.632  22.236  0.00  0.00    +0.000 A 
ATOM      8  C   UNL     1       0.426   9.338  22.457  0.00  0.00    +0.000 A 
ATOM      9  C   UNL     1       1.003   8.610  21.403  0.00  0.00    +0.000 A 
BRANCH   7  10
ATOM     10  O   UNL     1      -0.670  11.239  23.307  0.00  0.00    +0.000 OA
BRANCH  10  11
ATOM     11  C   UNL     1      -2.023  11.651  23.066  0.00  0.00    +0.000 C 
BRANCH  11  12
ATOM     12  C   UNL     1      -2.168  13.163  23.283  0.00  0.00    +0.000 C 
BRANCH  12  13
ATOM     13  N   UNL     1      -3.081  13.500  24.395  0.00  0.00    +0.000 NA
ATOM     14  C   UNL     1      -4.324  12.697  24.418  0.00  0.00    +0.000 C 
ATOM     15  C   UNL     1      -5.312  13.056  23.298  0.00  0.00    +0.000 C 
ATOM     16  O   UNL     1      -5.655  14.447  23.341  0.00  0.00    +0.000 OA
ATOM     17  C   UNL     1      -4.484  15.268  23.254  0.00  0.00    +0.000 C 
ATOM     18  C   UNL     1      -3.468  14.928  24.359  0.00  0.00    +0.000 C 
ENDBRANCH  12  13
ENDBRANCH  11  12
ENDBRANCH  10  11
ENDBRANCH   7  10
ENDBRANCH   2   4
BRANCH   3  19
ATOM     19  O   UNL     1       2.710   6.636  18.091  0.00  0.00    +0.000 OA
BRANCH  19  20
ATOM     20  C   UNL     1       3.511   5.469  18.389  0.00  0.00    +0.000 C 
BRANCH  20  21
ATOM     21  C   UNL     1       2.725   4.576  19.346  0.00  0.00    +0.000 A 
ATOM     22  C   UNL     1       3.118   4.471  20.699  0.00  0.00    +0.000 A 
ATOM     23  C   UNL     1       2.397   3.690  21.606  0.00  0.00    +0.000 A 
ATOM     24  C   UNL     1       1.268   3.009  21.176  0.00  0.00    +0.000 A 
ATOM     25  F   UNL     1       0.578   2.262  22.047  0.00  0.00    +0.000 F 
ATOM     26  C   UNL     1       0.835   3.113  19.865  0.00  0.00    +0.000 A 
ATOM     27  C   UNL     1       1.554   3.903  18.971  0.00  0.00    +0.000 A 
ATOM     28  F   UNL     1       1.061   4.026  17.732  0.00  0.00    +0.000 F 
ENDBRANCH  20  21
BRANCH  20  29
ATOM     29  C   UNL     1       4.945   5.874  18.798  0.00  0.00    +0.000 C 
BRANCH  29  30
ATOM     30  N   UNL     1       5.993   5.655  17.820  0.00  0.00    +0.000 N 
ATOM     31  C   UNL     1       6.634   4.466  17.589  0.00  0.00    +0.000 A 
ATOM     32  C   UNL     1       7.341   4.661  16.426  0.00  0.00    +0.000 A 
ATOM     33  N   UNL     1       7.180   5.941  15.968  0.00  0.00    +0.000 NA
ATOM     34  C   UNL     1       6.363   6.513  16.824  0.00  0.00    +0.000 A 
ENDBRANCH  29  30
ENDBRANCH  20  29
ENDBRANCH  19  20
ENDBRANCH   3  19
TORSDOF 10
ENDMDL
MODEL 7
REMARK VINA RESULT:      -8.2      2.303      4.272
REMARK  Name = 
REMARK  11 active torsions:
REMARK  status: ('A' for Active; 'I' for Inactive)
REMARK    1  A    between atoms: C_1  and  C_2
REMARK    2  A    between atoms: C_2  and  C_20
REMARK    3  A    between atoms: N_3  and  O_4
REMARK    4  A    between atoms: O_4  and  C_5
REMARK    5  A    between atoms: C_5  and  C_6
REMARK    6  A    between atoms: C_5  and  C_12
REMARK    7  A    between atoms: C_6  and  N_7
REMARK    8  A    between atoms: C_23  and  O_24
REMARK    9  A    between atoms: O_24  and  C_25
REMARK   10  A    between atoms: C_25  and  C_26
REMARK   11  A    between atoms: C_26  and  N_27
REMARK                            x       y       z     vdW  Elec       q    Type
REMARK                         _______ _______ _______ _____ _____    ______ ____
ROOT
ATOM      1  C   UNL     1       2.198   8.386  17.852  0.00  0.00    +0.000 C 
ATOM      2  C   UNL     1       2.039   7.883  19.275  0.00  0.00    +0.000 C 
ATOM      3  N   UNL     1       2.491   6.742  19.709  0.00  0.00    +0.000 NA
ENDROOT
BRANCH   2   4
ATOM      4  C   UNL     1       1.295   8.769  20.214  0.00  0.00    +0.000 A 
ATOM      5  C   UNL     1       0.731   9.960  19.747  0.00  0.00    +0.000 A 
ATOM      6  C   UNL     1       0.003  10.778  20.610  0.00  0.00    +0.000 A 
ATOM      7  C   UNL     1      -0.196  10.404  21.941  0.00  0.00    +0.000 A 
ATOM      8  C   UNL     1       0.391   9.225  22.416  0.00  0.00    +0.000 A 
ATOM      9  C   UNL     1       1.120   8.396  21.547  0.00  0.00    +0.000 A 
BRANCH   7  10
ATOM     10  O   UNL     1      -0.945  11.113  22.847  0.00  0.00    +0.000 OA
BRANCH  10  11
ATOM     11  C   UNL     1      -1.221  12.466  22.458  0.00  0.00    +0.000 C 
BRANCH  11  12
ATOM     12  C   UNL     1      -2.346  13.052  23.322  0.00  0.00    +0.000 C 
BRANCH  12  13
ATOM     13  N   UNL     1      -3.647  12.389  23.099  0.00  0.00    +0.000 NA
ATOM     14  C   UNL     1      -4.203  12.593  21.743  0.00  0.00    +0.000 C 
ATOM     15  C   UNL     1      -4.717  14.018  21.493  0.00  0.00    +0.000 C 
ATOM     16  O   UNL     1      -5.707  14.386  22.462  0.00  0.00    +0.000 OA
ATOM     17  C   UNL     1      -5.191  14.268  23.794  0.00  0.00    +0.000 C 
ATOM     18  C   UNL     1      -4.659  12.850  24.075  0.00  0.00    +0.000 C 
ENDBRANCH  12  13
ENDBRANCH  11  12
ENDBRANCH  10  11
ENDBRANCH   7  10
ENDBRANCH   2   4
BRANCH   3  19
ATOM     19  O   UNL     1       3.020   5.962  18.669  0.00  0.00    +0.000 OA
BRANCH  19  20
ATOM     20  C   UNL     1       4.214   5.268  19.097  0.00  0.00    +0.000 C 
BRANCH  20  21
ATOM     21  C   UNL     1       5.150   5.135  17.899  0.00  0.00    +0.000 A 
ATOM     22  C   UNL     1       4.626   5.141  16.588  0.00  0.00    +0.000 A 
ATOM     23  C   UNL     1       5.462   5.057  15.472  0.00  0.00    +0.000 A 
ATOM     24  C   UNL     1       6.835   4.974  15.650  0.00  0.00    +0.000 A 
ATOM     25  F   UNL     1       7.635   4.894  14.579  0.00  0.00    +0.000 F 
ATOM     26  C   UNL     1       7.387   4.995  16.919  0.00  0.00    +0.000 A 
ATOM     27  C   UNL     1       6.546   5.092  18.026  0.00  0.00    +0.000 A 
ATOM     28  F   UNL     1       7.127   5.176  19.229  0.00  0.00    +0.000 F 
ENDBRANCH  20  21
BRANCH  20  29
ATOM     29  C   UNL     1       3.855   3.982  19.875  0.00  0.00    +0.000 C 
BRANCH  29  30
ATOM     30  N   UNL     1       2.645   3.289  19.476  0.00  0.00    +0.000 N 
ATOM     31  C   UNL     1       1.452   3.312  20.149  0.00  0.00    +0.000 A 
ATOM     32  C   UNL     1       0.543   2.748  19.286  0.00  0.00    +0.000 A 
ATOM     33  N   UNL     1       1.155   2.348  18.129  0.00  0.00    +0.000 NA
ATOM     34  C   UNL     1       2.416   2.689  18.270  0.00  0.00    +0.000 A 
ENDBRANCH  29  30
ENDBRANCH  20  29
ENDBRANCH  19  20
ENDBRANCH   3  19
TORSDOF 10
ENDMDL
MODEL 8
REMARK VINA RESULT:      -8.2      2.362      4.437
REMARK  Name = 
REMARK  11 active torsions:
REMARK  status: ('A' for Active; 'I' for Inactive)
REMARK    1  A    between atoms: C_1  and  C_2
REMARK    2  A    between atoms: C_2  and  C_20
REMARK    3  A    between atoms: N_3  and  O_4
REMARK    4  A    between atoms: O_4  and  C_5
REMARK    5  A    between atoms: C_5  and  C_6
REMARK    6  A    between atoms: C_5  and  C_12
REMARK    7  A    between atoms: C_6  and  N_7
REMARK    8  A    between atoms: C_23  and  O_24
REMARK    9  A    between atoms: O_24  and  C_25
REMARK   10  A    between atoms: C_25  and  C_26
REMARK   11  A    between atoms: C_26  and  N_27
REMARK                            x       y       z     vdW  Elec       q    Type
REMARK                         _______ _______ _______ _____ _____    ______ ____
ROOT
ATOM      1  C   UNL     1       3.015   8.197  17.608  0.00  0.00    +0.000 C 
ATOM      2  C   UNL     1       2.271   7.470  18.712  0.00  0.00    +0.000 C 
ATOM      3  N   UNL     1       2.153   6.176  18.795  0.00  0.00    +0.000 NA
ENDROOT
BRANCH   2   4
ATOM      4  C   UNL     1       1.625   8.321  19.751  0.00  0.00    +0.000 A 
ATOM      5  C   UNL     1       1.598   7.894  21.082  0.00  0.00    +0.000 A 
ATOM      6  C   UNL     1       1.027   8.700  22.067  0.00  0.00    +0.000 A 
ATOM      7  C   UNL     1       0.504   9.953  21.742  0.00  0.00    +0.000 A 
ATOM      8  C   UNL     1       0.507  10.370  20.404  0.00  0.00    +0.000 A 
ATOM      9  C   UNL     1       1.087   9.563  19.412  0.00  0.00    +0.000 A 
BRANCH   7  10
ATOM     10  O   UNL     1      -0.023  10.838  22.649  0.00  0.00    +0.000 OA
BRANCH  10  11
ATOM     11  C   UNL     1      -1.130  11.605  22.156  0.00  0.00    +0.000 C 
BRANCH  11  12
ATOM     12  C   UNL     1      -1.873  12.278  23.317  0.00  0.00    +0.000 C 
BRANCH  12  13
ATOM     13  N   UNL     1      -3.341  12.148  23.214  0.00  0.00    +0.000 NA
ATOM     14  C   UNL     1      -3.909  12.702  21.965  0.00  0.00    +0.000 C 
ATOM     15  C   UNL     1      -3.891  14.236  21.906  0.00  0.00    +0.000 C 
ATOM     16  O   UNL     1      -4.585  14.803  23.024  0.00  0.00    +0.000 OA
ATOM     17  C   UNL     1      -4.025  14.346  24.261  0.00  0.00    +0.000 C 
ATOM     18  C   UNL     1      -4.020  12.809  24.351  0.00  0.00    +0.000 C 
ENDBRANCH  12  13
ENDBRANCH  11  12
ENDBRANCH  10  11
ENDBRANCH   7  10
ENDBRANCH   2   4
BRANCH   3  19
ATOM     19  O   UNL     1       2.673   5.533  17.662  0.00  0.00    +0.000 OA
BRANCH  19  20
ATOM     20  C   UNL     1       3.697   4.581  18.031  0.00  0.00    +0.000 C 
BRANCH  20  21
ATOM     21  C   UNL     1       4.859   4.718  17.050  0.00  0.00    +0.000 A 
ATOM     22  C   UNL     1       4.876   3.952  15.863  0.00  0.00    +0.000 A 
ATOM     23  C   UNL     1       5.908   4.082  14.930  0.00  0.00    +0.000 A 
ATOM     24  C   UNL     1       6.933   4.987  15.165  0.00  0.00    +0.000 A 
ATOM     25  F   UNL     1       7.921   5.111  14.270  0.00  0.00    +0.000 F 
ATOM     26  C   UNL     1       6.933   5.777  16.302  0.00  0.00    +0.000 A 
ATOM     27  C   UNL     1       5.894   5.648  17.221  0.00  0.00    +0.000 A 
ATOM     28  F   UNL     1       5.901   6.479  18.271  0.00  0.00    +0.000 F 
ENDBRANCH  20  21
BRANCH  20  29
ATOM     29  C   UNL     1       3.094   3.174  18.237  0.00  0.00    +0.000 C 
BRANCH  29  30
ATOM     30  N   UNL     1       2.558   2.876  19.552  0.00  0.00    +0.000 N 
ATOM     31  C   UNL     1       3.285   2.792  20.711  0.00  0.00    +0.000 A 
ATOM     32  C   UNL     1       2.350   2.755  21.718  0.00  0.00    +0.000 A 
ATOM     33  N   UNL     1       1.081   2.773  21.204  0.00  0.00    +0.000 NA
ATOM     34  C   UNL     1       1.238   2.849  19.901  0.00  0.00    +0.000 A 
ENDBRANCH  29  30
ENDBRANCH  20  29
ENDBRANCH  19  20
ENDBRANCH   3  19
TORSDOF 10
ENDMDL
MODEL 9
REMARK VINA RESULT:      -8.1      2.402      4.215
REMARK  Name = 
REMARK  11 active torsions:
REMARK  status: ('A' for Active; 'I' for Inactive)
REMARK    1  A    between atoms: C_1  and  C_2
REMARK    2  A    between atoms: C_2  and  C_20
REMARK    3  A    between atoms: N_3  and  O_4
REMARK    4  A    between atoms: O_4  and  C_5
REMARK    5  A    between atoms: C_5  and  C_6
REMARK    6  A    between atoms: C_5  and  C_12
REMARK    7  A    between atoms: C_6  and  N_7
REMARK    8  A    between atoms: C_23  and  O_24
REMARK    9  A    between atoms: O_24  and  C_25
REMARK   10  A    between atoms: C_25  and  C_26
REMARK   11  A    between atoms: C_26  and  N_27
REMARK                            x       y       z     vdW  Elec       q    Type
REMARK                         _______ _______ _______ _____ _____    ______ ____
ROOT
ATOM      1  C   UNL     1       1.843   8.633  17.974  0.00  0.00    +0.000 C 
ATOM      2  C   UNL     1       1.849   8.245  19.441  0.00  0.00    +0.000 C 
ATOM      3  N   UNL     1       2.420   7.177  19.919  0.00  0.00    +0.000 NA
ENDROOT
BRANCH   2   4
ATOM      4  C   UNL     1       1.129   9.157  20.373  0.00  0.00    +0.000 A 
ATOM      5  C   UNL     1       0.738   8.697  21.634  0.00  0.00    +0.000 A 
ATOM      6  C   UNL     1       0.096   9.554  22.527  0.00  0.00    +0.000 A 
ATOM      7  C   UNL     1      -0.139  10.887  22.184  0.00  0.00    +0.000 A 
ATOM      8  C   UNL     1       0.228  11.342  20.911  0.00  0.00    +0.000 A 
ATOM      9  C   UNL     1       0.881  10.482  20.013  0.00  0.00    +0.000 A 
BRANCH   7  10
ATOM     10  O   UNL     1      -0.710  11.817  23.017  0.00  0.00    +0.000 OA
BRANCH  10  11
ATOM     11  C   UNL     1      -2.106  11.610  23.268  0.00  0.00    +0.000 C 
BRANCH  11  12
ATOM     12  C   UNL     1      -2.949  12.600  22.453  0.00  0.00    +0.000 C 
BRANCH  12  13
ATOM     13  N   UNL     1      -4.221  12.955  23.115  0.00  0.00    +0.000 NA
ATOM     14  C   UNL     1      -4.941  14.078  22.475  0.00  0.00    +0.000 C 
ATOM     15  C   UNL     1      -4.272  15.444  22.692  0.00  0.00    +0.000 C 
ATOM     16  O   UNL     1      -4.118  15.726  24.088  0.00  0.00    +0.000 OA
ATOM     17  C   UNL     1      -3.366  14.695  24.740  0.00  0.00    +0.000 C 
ATOM     18  C   UNL     1      -4.006  13.309  24.536  0.00  0.00    +0.000 C 
ENDBRANCH  12  13
ENDBRANCH  11  12
ENDBRANCH  10  11
ENDBRANCH   7  10
ENDBRANCH   2   4
BRANCH   3  19
ATOM     19  O   UNL     1       2.909   6.348  18.898  0.00  0.00    +0.000 OA
BRANCH  19  20
ATOM     20  C   UNL     1       3.993   5.519  19.378  0.00  0.00    +0.000 C 
BRANCH  20  21
ATOM     21  C   UNL     1       4.955   5.266  18.221  0.00  0.00    +0.000 A 
ATOM     22  C   UNL     1       4.470   5.219  16.895  0.00  0.00    +0.000 A 
ATOM     23  C   UNL     1       5.332   5.024  15.813  0.00  0.00    +0.000 A 
ATOM     24  C   UNL     1       6.693   4.882  16.040  0.00  0.00    +0.000 A 
ATOM     25  F   UNL     1       7.518   4.696  15.001  0.00  0.00    +0.000 F 
ATOM     26  C   UNL     1       7.209   4.953  17.323  0.00  0.00    +0.000 A 
ATOM     27  C   UNL     1       6.343   5.159  18.394  0.00  0.00    +0.000 A 
ATOM     28  F   UNL     1       6.892   5.287  19.608  0.00  0.00    +0.000 F 
ENDBRANCH  20  21
BRANCH  20  29
ATOM     29  C   UNL     1       3.451   4.291  20.144  0.00  0.00    +0.000 C 
BRANCH  29  30
ATOM     30  N   UNL     1       2.293   3.625  19.581  0.00  0.00    +0.000 N 
ATOM     31  C   UNL     1       2.318   2.678  18.591  0.00  0.00    +0.000 A 
ATOM     32  C   UNL     1       1.049   2.150  18.567  0.00  0.00    +0.000 A 
ATOM     33  N   UNL     1       0.246   2.775  19.484  0.00  0.00    +0.000 NA
ATOM     34  C   UNL     1       1.021   3.653  20.080  0.00  0.00    +0.000 A 
ENDBRANCH  29  30
ENDBRANCH  20  29
ENDBRANCH  19  20
ENDBRANCH   3  19
TORSDOF 10
ENDMDL
