MODEL 1
REMARK VINA RESULT:      -8.0      0.000      0.000
REMARK  Name = 
REMARK  4 active torsions:
REMARK  status: ('A' for Active; 'I' for Inactive)
REMARK    1  A    between atoms: N_1  and  S_2
REMARK    2  A    between atoms: S_2  and  C_5
REMARK    3  A    between atoms: C_7  and  C_8
REMARK    4  A    between atoms: N_10  and  C_11
REMARK                            x       y       z     vdW  Elec       q    Type
REMARK                         _______ _______ _______ _____ _____    ______ ____
ROOT
ATOM      1  C   UNL     1       2.009   8.591  18.454  0.00  0.00    +0.000 C 
ATOM      2  O   UNL     1       2.491   8.919  17.376  0.00  0.00    +0.000 OA
ATOM      3  N   UNL     1       1.169   9.401  19.184  0.00  0.00    +0.000 N 
ATOM      4  H   UNL     1       0.776   9.087  20.063  0.00  0.00    +0.000 HD
ENDROOT
BRANCH   3   5
ATOM      5  C   UNL     1       0.780  10.734  18.724  0.00  0.00    +0.000 C 
ATOM      6  C   UNL     1       1.126  11.771  19.794  0.00  0.00    +0.000 C 
ATOM      7  C   UNL     1       0.318  13.030  19.544  0.00  0.00    +0.000 C 
ATOM      8  O   UNL     1      -1.077  12.764  19.725  0.00  0.00    +0.000 OA
ATOM      9  C   UNL     1      -1.533  11.739  18.939  0.00  0.00    +0.000 A 
ATOM     10  C   UNL     1      -2.911  11.696  18.721  0.00  0.00    +0.000 A 
ATOM     11  C   UNL     1      -3.454  10.725  17.882  0.00  0.00    +0.000 A 
ATOM     12  C   UNL     1      -2.617   9.813  17.242  0.00  0.00    +0.000 A 
ATOM     13  C   UNL     1      -1.244   9.834  17.489  0.00  0.00    +0.000 A 
ATOM     14  C   UNL     1      -0.692  10.768  18.383  0.00  0.00    +0.000 A 
ENDBRANCH   3   5
BRANCH   1  17
ATOM     15  C   UNL     1       3.374   5.067  18.722  0.00  0.00    +0.000 A 
ATOM     16  C   UNL     1       3.122   6.375  18.272  0.00  0.00    +0.000 A 
ATOM     17  C   UNL     1       2.282   7.230  19.002  0.00  0.00    +0.000 A 
ATOM     18  C   UNL     1       1.730   6.783  20.206  0.00  0.00    +0.000 A 
ATOM     19  C   UNL     1       2.000   5.486  20.660  0.00  0.00    +0.000 A 
ATOM     20  C   UNL     1       2.814   4.618  19.918  0.00  0.00    +0.000 A 
ATOM     21 CL   UNL     1       3.060   3.039  20.574  0.00  0.00    +0.000 Cl
BRANCH  15  22
ATOM     22  S   UNL     1       4.320   3.991  17.690  0.00  0.00    +0.000 S 
ATOM     23  O   UNL     1       4.767   4.727  16.529  0.00  0.00    +0.000 OA
ATOM     24  O   UNL     1       3.629   2.730  17.564  0.00  0.00    +0.000 OA
BRANCH  22  25
ATOM     25  N   UNL     1       5.716   3.704  18.577  0.00  0.00    +0.000 NA
ATOM     26  H   UNL     1       5.540   2.966  19.260  0.00  0.00    +0.000 HD
ATOM     27  H   UNL     1       6.048   4.574  18.995  0.00  0.00    +0.000 HD
ENDBRANCH  22  25
ENDBRANCH  15  22
ENDBRANCH   1  17
TORSDOF 4
ENDMDL
MODEL 2
REMARK VINA RESULT:      -7.7      1.274      1.455
REMARK  Name = 
REMARK  4 active torsions:
REMARK  status: ('A' for Active; 'I' for Inactive)
REMARK    1  A    between atoms: N_1  and  S_2
REMARK    2  A    between atoms: S_2  and  C_5
REMARK    3  A    between atoms: C_7  and  C_8
REMARK    4  A    between atoms: N_10  and  C_11
REMARK                            x       y       z     vdW  Elec       q    Type
REMARK                         _______ _______ _______ _____ _____    ______ ____
ROOT
ATOM      1  C   UNL     1       1.832   9.357  18.273  0.00  0.00    +0.000 C 
ATOM      2  O   UNL     1       2.375   9.985  17.372  0.00  0.00    +0.000 OA
ATOM      3  N   UNL     1       0.727   9.815  18.955  0.00  0.00    +0.000 N 
ATOM      4  H   UNL     1       0.296   9.259  19.683  0.00  0.00    +0.000 HD
ENDROOT
BRANCH   3   5
ATOM      5  C   UNL     1       0.107  11.105  18.653  0.00  0.00    +0.000 C 
ATOM      6  C   UNL     1       0.217  12.028  19.869  0.00  0.00    +0.000 C 
ATOM      7  C   UNL     1      -0.807  13.139  19.741  0.00  0.00    +0.000 C 
ATOM      8  O   UNL     1      -2.132  12.600  19.805  0.00  0.00    +0.000 OA
ATOM      9  C   UNL     1      -2.360  11.629  18.866  0.00  0.00    +0.000 A 
ATOM     10  C   UNL     1      -3.696  11.364  18.565  0.00  0.00    +0.000 A 
ATOM     11  C   UNL     1      -4.019  10.438  17.576  0.00  0.00    +0.000 A 
ATOM     12  C   UNL     1      -3.004   9.794  16.870  0.00  0.00    +0.000 A 
ATOM     13  C   UNL     1      -1.668  10.031  17.196  0.00  0.00    +0.000 A 
ATOM     14  C   UNL     1      -1.333  10.916  18.236  0.00  0.00    +0.000 A 
ENDBRANCH   3   5
BRANCH   1  17
ATOM     15  C   UNL     1       3.820   6.136  18.112  0.00  0.00    +0.000 A 
ATOM     16  C   UNL     1       3.345   7.431  17.842  0.00  0.00    +0.000 A 
ATOM     17  C   UNL     1       2.334   7.998  18.634  0.00  0.00    +0.000 A 
ATOM     18  C   UNL     1       1.833   7.280  19.723  0.00  0.00    +0.000 A 
ATOM     19  C   UNL     1       2.324   5.998  20.000  0.00  0.00    +0.000 A 
ATOM     20  C   UNL     1       3.311   5.414  19.193  0.00  0.00    +0.000 A 
ATOM     21 CL   UNL     1       3.824   3.823  19.628  0.00  0.00    +0.000 Cl
BRANCH  15  22
ATOM     22  S   UNL     1       4.986   5.418  16.997  0.00  0.00    +0.000 S 
ATOM     23  O   UNL     1       4.365   4.300  16.324  0.00  0.00    +0.000 OA
ATOM     24  O   UNL     1       6.257   5.284  17.667  0.00  0.00    +0.000 OA
BRANCH  22  25
ATOM     25  N   UNL     1       5.175   6.584  15.805  0.00  0.00    +0.000 NA
ATOM     26  H   UNL     1       6.108   6.505  15.396  0.00  0.00    +0.000 HD
ATOM     27  H   UNL     1       4.976   7.509  16.187  0.00  0.00    +0.000 HD
ENDBRANCH  22  25
ENDBRANCH  15  22
ENDBRANCH   1  17
TORSDOF 4
ENDMDL
MODEL 3
REMARK VINA RESULT:      -7.5      3.577      7.689
REMARK  Name = 
REMARK  4 active torsions:
REMARK  status: ('A' for Active; 'I' for Inactive)
REMARK    1  A    between atoms: N_1  and  S_2
REMARK    2  A    between atoms: S_2  and  C_5
REMARK    3  A    between atoms: C_7  and  C_8
REMARK    4  A    between atoms: N_10  and  C_11
REMARK                            x       y       z     vdW  Elec       q    Type
REMARK                         _______ _______ _______ _____ _____    ______ ____
ROOT
ATOM      1  C   UNL     1       2.442   7.185  18.955  0.00  0.00    +0.000 C 
ATOM      2  O   UNL     1       2.408   6.795  17.795  0.00  0.00    +0.000 OA
ATOM      3  N   UNL     1       3.127   6.530  19.954  0.00  0.00    +0.000 N 
ATOM      4  H   UNL     1       3.146   6.894  20.898  0.00  0.00    +0.000 HD
ENDROOT
BRANCH   3   5
ATOM      5  C   UNL     1       3.876   5.299  19.703  0.00  0.00    +0.000 C 
ATOM      6  C   UNL     1       4.864   5.521  18.556  0.00  0.00    +0.000 C 
ATOM      7  C   UNL     1       5.278   4.176  17.991  0.00  0.00    +0.000 C 
ATOM      8  O   UNL     1       4.152   3.527  17.389  0.00  0.00    +0.000 OA
ATOM      9  C   UNL     1       3.096   3.380  18.249  0.00  0.00    +0.000 A 
ATOM     10  C   UNL     1       2.156   2.407  17.910  0.00  0.00    +0.000 A 
ATOM     11  C   UNL     1       1.084   2.146  18.761  0.00  0.00    +0.000 A 
ATOM     12  C   UNL     1       0.965   2.842  19.962  0.00  0.00    +0.000 A 
ATOM     13  C   UNL     1       1.885   3.842  20.283  0.00  0.00    +0.000 A 
ATOM     14  C   UNL     1       2.934   4.157  19.403  0.00  0.00    +0.000 A 
ENDBRANCH   3   5
BRANCH   1  17
ATOM     15  C   UNL     1       0.612   9.779  21.023  0.00  0.00    +0.000 A 
ATOM     16  C   UNL     1       1.296   8.613  20.638  0.00  0.00    +0.000 A 
ATOM     17  C   UNL     1       1.766   8.464  19.324  0.00  0.00    +0.000 A 
ATOM     18  C   UNL     1       1.589   9.507  18.411  0.00  0.00    +0.000 A 
ATOM     19  C   UNL     1       0.925  10.676  18.805  0.00  0.00    +0.000 A 
ATOM     20  C   UNL     1       0.424  10.816  20.108  0.00  0.00    +0.000 A 
ATOM     21 CL   UNL     1      -0.388  12.296  20.469  0.00  0.00    +0.000 Cl
BRANCH  15  22
ATOM     22  S   UNL     1      -0.083   9.849  22.645  0.00  0.00    +0.000 S 
ATOM     23  O   UNL     1      -1.044  10.928  22.697  0.00  0.00    +0.000 OA
ATOM     24  O   UNL     1       0.976   9.735  23.617  0.00  0.00    +0.000 OA
BRANCH  22  25
ATOM     25  N   UNL     1      -1.005   8.451  22.750  0.00  0.00    +0.000 NA
ATOM     26  H   UNL     1      -1.995   8.688  22.657  0.00  0.00    +0.000 HD
ATOM     27  H   UNL     1      -0.786   7.953  23.613  0.00  0.00    +0.000 HD
ENDBRANCH  22  25
ENDBRANCH  15  22
ENDBRANCH   1  17
TORSDOF 4
ENDMDL
MODEL 4
REMARK VINA RESULT:      -7.5      4.009      8.203
REMARK  Name = 
REMARK  4 active torsions:
REMARK  status: ('A' for Active; 'I' for Inactive)
REMARK    1  A    between atoms: N_1  and  S_2
REMARK    2  A    between atoms: S_2  and  C_5
REMARK    3  A    between atoms: C_7  and  C_8
REMARK    4  A    between atoms: N_10  and  C_11
REMARK                            x       y       z     vdW  Elec       q    Type
REMARK                         _______ _______ _______ _____ _____    ______ ____
ROOT
ATOM      1  C   UNL     1       3.390   6.304  19.068  0.00  0.00    +0.000 C 
ATOM      2  O   UNL     1       3.137   5.386  19.838  0.00  0.00    +0.000 OA
ATOM      3  N   UNL     1       4.458   6.289  18.198  0.00  0.00    +0.000 N 
ATOM      4  H   UNL     1       4.624   7.061  17.564  0.00  0.00    +0.000 HD
ENDROOT
BRANCH   3   5
ATOM      5  C   UNL     1       5.385   5.161  18.126  0.00  0.00    +0.000 C 
ATOM      6  C   UNL     1       6.680   5.508  18.865  0.00  0.00    +0.000 C 
ATOM      7  C   UNL     1       7.782   4.577  18.398  0.00  0.00    +0.000 C 
ATOM      8  O   UNL     1       8.072   4.811  17.015  0.00  0.00    +0.000 OA
ATOM      9  C   UNL     1       6.970   4.690  16.210  0.00  0.00    +0.000 A 
ATOM     10  C   UNL     1       7.219   4.470  14.855  0.00  0.00    +0.000 A 
ATOM     11  C   UNL     1       6.158   4.270  13.974  0.00  0.00    +0.000 A 
ATOM     12  C   UNL     1       4.850   4.268  14.452  0.00  0.00    +0.000 A 
ATOM     13  C   UNL     1       4.599   4.526  15.801  0.00  0.00    +0.000 A 
ATOM     14  C   UNL     1       5.658   4.791  16.686  0.00  0.00    +0.000 A 
ENDBRANCH   3   5
BRANCH   1  17
ATOM     15  C   UNL     1       0.969   9.000  20.173  0.00  0.00    +0.000 A 
ATOM     16  C   UNL     1       1.869   7.920  20.189  0.00  0.00    +0.000 A 
ATOM     17  C   UNL     1       2.481   7.486  19.003  0.00  0.00    +0.000 A 
ATOM     18  C   UNL     1       2.222   8.167  17.810  0.00  0.00    +0.000 A 
ATOM     19  C   UNL     1       1.341   9.255  17.804  0.00  0.00    +0.000 A 
ATOM     20  C   UNL     1       0.702   9.672  18.980  0.00  0.00    +0.000 A 
ATOM     21 CL   UNL     1      -0.374  11.016  18.841  0.00  0.00    +0.000 Cl
BRANCH  15  22
ATOM     22  S   UNL     1       0.119   9.408  21.667  0.00  0.00    +0.000 S 
ATOM     23  O   UNL     1      -0.783   8.330  22.003  0.00  0.00    +0.000 OA
ATOM     24  O   UNL     1      -0.334  10.776  21.592  0.00  0.00    +0.000 OA
BRANCH  22  25
ATOM     25  N   UNL     1       1.315   9.345  22.842  0.00  0.00    +0.000 NA
ATOM     26  H   UNL     1       1.639   8.382  22.949  0.00  0.00    +0.000 HD
ATOM     27  H   UNL     1       0.971   9.757  23.711  0.00  0.00    +0.000 HD
ENDBRANCH  22  25
ENDBRANCH  15  22
ENDBRANCH   1  17
TORSDOF 4
ENDMDL
MODEL 5
REMARK VINA RESULT:      -7.4      3.675      7.562
REMARK  Name = 
REMARK  4 active torsions:
REMARK  status: ('A' for Active; 'I' for Inactive)
REMARK    1  A    between atoms: N_1  and  S_2
REMARK    2  A    between atoms: S_2  and  C_5
REMARK    3  A    between atoms: C_7  and  C_8
REMARK    4  A    between atoms: N_10  and  C_11
REMARK                            x       y       z     vdW  Elec       q    Type
REMARK                         _______ _______ _______ _____ _____    ______ ____
ROOT
ATOM      1  C   UNL     1       2.192   7.444  19.250  0.00  0.00    +0.000 C 
ATOM      2  O   UNL     1       2.079   7.210  18.053  0.00  0.00    +0.000 OA
ATOM      3  N   UNL     1       2.956   6.678  20.101  0.00  0.00    +0.000 N 
ATOM      4  H   UNL     1       3.039   6.913  21.082  0.00  0.00    +0.000 HD
ENDROOT
BRANCH   3   5
ATOM      5  C   UNL     1       3.703   5.509  19.636  0.00  0.00    +0.000 C 
ATOM      6  C   UNL     1       4.500   5.872  18.380  0.00  0.00    +0.000 C 
ATOM      7  C   UNL     1       4.871   4.600  17.644  0.00  0.00    +0.000 C 
ATOM      8  O   UNL     1       3.692   3.949  17.158  0.00  0.00    +0.000 OA
ATOM      9  C   UNL     1       2.783   3.681  18.147  0.00  0.00    +0.000 A 
ATOM     10  C   UNL     1       1.837   2.695  17.864  0.00  0.00    +0.000 A 
ATOM     11  C   UNL     1       0.915   2.313  18.835  0.00  0.00    +0.000 A 
ATOM     12  C   UNL     1       0.952   2.902  20.098  0.00  0.00    +0.000 A 
ATOM     13  C   UNL     1       1.874   3.915  20.369  0.00  0.00    +0.000 A 
ATOM     14  C   UNL     1       2.767   4.351  19.376  0.00  0.00    +0.000 A 
ENDBRANCH   3   5
BRANCH   1  17
ATOM     15  C   UNL     1       1.045  11.031  19.666  0.00  0.00    +0.000 A 
ATOM     16  C   UNL     1       1.615   9.860  19.136  0.00  0.00    +0.000 A 
ATOM     17  C   UNL     1       1.527   8.646  19.834  0.00  0.00    +0.000 A 
ATOM     18  C   UNL     1       0.827   8.600  21.043  0.00  0.00    +0.000 A 
ATOM     19  C   UNL     1       0.243   9.764  21.556  0.00  0.00    +0.000 A 
ATOM     20  C   UNL     1       0.357  10.987  20.879  0.00  0.00    +0.000 A 
ATOM     21 CL   UNL     1      -0.393  12.355  21.621  0.00  0.00    +0.000 Cl
BRANCH  15  22
ATOM     22  S   UNL     1       1.313  12.555  18.817  0.00  0.00    +0.000 S 
ATOM     23  O   UNL     1       2.111  13.424  19.652  0.00  0.00    +0.000 OA
ATOM     24  O   UNL     1       0.066  12.999  18.241  0.00  0.00    +0.000 OA
BRANCH  22  25
ATOM     25  N   UNL     1       2.325  12.137  17.545  0.00  0.00    +0.000 NA
ATOM     26  H   UNL     1       1.788  11.644  16.830  0.00  0.00    +0.000 HD
ATOM     27  H   UNL     1       3.122  11.604  17.895  0.00  0.00    +0.000 HD
ENDBRANCH  22  25
ENDBRANCH  15  22
ENDBRANCH   1  17
TORSDOF 4
ENDMDL
MODEL 6
REMARK VINA RESULT:      -7.4      3.768      7.783
REMARK  Name = 
REMARK  4 active torsions:
REMARK  status: ('A' for Active; 'I' for Inactive)
REMARK    1  A    between atoms: N_1  and  S_2
REMARK    2  A    between atoms: S_2  and  C_5
REMARK    3  A    between atoms: C_7  and  C_8
REMARK    4  A    between atoms: N_10  and  C_11
REMARK                            x       y       z     vdW  Elec       q    Type
REMARK                         _______ _______ _______ _____ _____    ______ ____
ROOT
ATOM      1  C   UNL     1       1.701   8.194  19.780  0.00  0.00    +0.000 C 
ATOM      2  O   UNL     1       2.006   8.487  18.631  0.00  0.00    +0.000 OA
ATOM      3  N   UNL     1       2.137   7.050  20.410  0.00  0.00    +0.000 N 
ATOM      4  H   UNL     1       1.876   6.851  21.368  0.00  0.00    +0.000 HD
ENDROOT
BRANCH   3   5
ATOM      5  C   UNL     1       3.011   6.083  19.747  0.00  0.00    +0.000 C 
ATOM      6  C   UNL     1       3.370   6.586  18.347  0.00  0.00    +0.000 C 
ATOM      7  C   UNL     1       3.852   5.418  17.509  0.00  0.00    +0.000 C 
ATOM      8  O   UNL     1       2.785   4.485  17.304  0.00  0.00    +0.000 OA
ATOM      9  C   UNL     1       2.233   4.038  18.475  0.00  0.00    +0.000 A 
ATOM     10  C   UNL     1       1.517   2.843  18.401  0.00  0.00    +0.000 A 
ATOM     11  C   UNL     1       0.976   2.281  19.556  0.00  0.00    +0.000 A 
ATOM     12  C   UNL     1       1.171   2.903  20.788  0.00  0.00    +0.000 A 
ATOM     13  C   UNL     1       1.856   4.117  20.856  0.00  0.00    +0.000 A 
ATOM     14  C   UNL     1       2.351   4.724  19.689  0.00  0.00    +0.000 A 
ENDBRANCH   3   5
BRANCH   1  17
ATOM     15  C   UNL     1      -0.596  11.086  20.625  0.00  0.00    +0.000 A 
ATOM     16  C   UNL     1       0.171  10.150  19.910  0.00  0.00    +0.000 A 
ATOM     17  C   UNL     1       0.862   9.131  20.584  0.00  0.00    +0.000 A 
ATOM     18  C   UNL     1       0.746   9.028  21.973  0.00  0.00    +0.000 A 
ATOM     19  C   UNL     1      -0.036   9.951  22.679  0.00  0.00    +0.000 A 
ATOM     20  C   UNL     1      -0.702  10.990  22.013  0.00  0.00    +0.000 A 
ATOM     21 CL   UNL     1      -1.622  12.073  22.995  0.00  0.00    +0.000 Cl
BRANCH  15  22
ATOM     22  S   UNL     1      -1.323  12.430  19.740  0.00  0.00    +0.000 S 
ATOM     23  O   UNL     1      -0.670  13.658  20.131  0.00  0.00    +0.000 OA
ATOM     24  O   UNL     1      -2.759  12.295  19.775  0.00  0.00    +0.000 OA
BRANCH  22  25
ATOM     25  N   UNL     1      -0.840  12.177  18.153  0.00  0.00    +0.000 NA
ATOM     26  H   UNL     1       0.116  12.515  18.029  0.00  0.00    +0.000 HD
ATOM     27  H   UNL     1      -1.509  12.606  17.513  0.00  0.00    +0.000 HD
ENDBRANCH  22  25
ENDBRANCH  15  22
ENDBRANCH   1  17
TORSDOF 4
ENDMDL
MODEL 7
REMARK VINA RESULT:      -7.3      3.803      8.120
REMARK  Name = 
REMARK  4 active torsions:
REMARK  status: ('A' for Active; 'I' for Inactive)
REMARK    1  A    between atoms: N_1  and  S_2
REMARK    2  A    between atoms: S_2  and  C_5
REMARK    3  A    between atoms: C_7  and  C_8
REMARK    4  A    between atoms: N_10  and  C_11
REMARK                            x       y       z     vdW  Elec       q    Type
REMARK                         _______ _______ _______ _____ _____    ______ ____
ROOT
ATOM      1  C   UNL     1       2.629   7.194  18.917  0.00  0.00    +0.000 C 
ATOM      2  O   UNL     1       2.871   6.592  19.956  0.00  0.00    +0.000 OA
ATOM      3  N   UNL     1       3.114   6.807  17.688  0.00  0.00    +0.000 N 
ATOM      4  H   UNL     1       2.876   7.321  16.848  0.00  0.00    +0.000 HD
ENDROOT
BRANCH   3   5
ATOM      5  C   UNL     1       3.968   5.631  17.525  0.00  0.00    +0.000 C 
ATOM      6  C   UNL     1       3.460   4.496  18.417  0.00  0.00    +0.000 C 
ATOM      7  C   UNL     1       4.574   3.486  18.616  0.00  0.00    +0.000 C 
ATOM      8  O   UNL     1       5.652   4.078  19.349  0.00  0.00    +0.000 OA
ATOM      9  C   UNL     1       6.138   5.216  18.760  0.00  0.00    +0.000 A 
ATOM     10  C   UNL     1       7.423   5.605  19.140  0.00  0.00    +0.000 A 
ATOM     11  C   UNL     1       8.021   6.714  18.543  0.00  0.00    +0.000 A 
ATOM     12  C   UNL     1       7.342   7.418  17.551  0.00  0.00    +0.000 A 
ATOM     13  C   UNL     1       6.043   7.051  17.198  0.00  0.00    +0.000 A 
ATOM     14  C   UNL     1       5.406   5.974  17.838  0.00  0.00    +0.000 A 
ENDBRANCH   3   5
BRANCH   1  17
ATOM     15  C   UNL     1       0.562  10.069  20.265  0.00  0.00    +0.000 A 
ATOM     16  C   UNL     1       1.449   8.982  20.180  0.00  0.00    +0.000 A 
ATOM     17  C   UNL     1       1.717   8.376  18.943  0.00  0.00    +0.000 A 
ATOM     18  C   UNL     1       1.128   8.892  17.786  0.00  0.00    +0.000 A 
ATOM     19  C   UNL     1       0.261   9.988  17.873  0.00  0.00    +0.000 A 
ATOM     20  C   UNL     1      -0.036  10.577  19.111  0.00  0.00    +0.000 A 
ATOM     21 CL   UNL     1      -1.131  11.912  19.090  0.00  0.00    +0.000 Cl
BRANCH  15  22
ATOM     22  S   UNL     1       0.151  10.696  21.864  0.00  0.00    +0.000 S 
ATOM     23  O   UNL     1      -1.214  10.335  22.173  0.00  0.00    +0.000 OA
ATOM     24  O   UNL     1       0.612  12.059  21.968  0.00  0.00    +0.000 OA
BRANCH  22  25
ATOM     25  N   UNL     1       1.084   9.776  22.911  0.00  0.00    +0.000 NA
ATOM     26  H   UNL     1       1.618  10.394  23.525  0.00  0.00    +0.000 HD
ATOM     27  H   UNL     1       1.666   9.127  22.381  0.00  0.00    +0.000 HD
ENDBRANCH  22  25
ENDBRANCH  15  22
ENDBRANCH   1  17
TORSDOF 4
ENDMDL
MODEL 8
REMARK VINA RESULT:      -7.3      0.864      1.071
REMARK  Name = 
REMARK  4 active torsions:
REMARK  status: ('A' for Active; 'I' for Inactive)
REMARK    1  A    between atoms: N_1  and  S_2
REMARK    2  A    between atoms: S_2  and  C_5
REMARK    3  A    between atoms: C_7  and  C_8
REMARK    4  A    between atoms: N_10  and  C_11
REMARK                            x       y       z     vdW  Elec       q    Type
REMARK                         _______ _______ _______ _____ _____    ______ ____
ROOT
ATOM      1  C   UNL     1       1.873   8.665  18.722  0.00  0.00    +0.000 C 
ATOM      2  O   UNL     1       2.502   9.044  17.742  0.00  0.00    +0.000 OA
ATOM      3  N   UNL     1       0.918   9.432  19.351  0.00  0.00    +0.000 N 
ATOM      4  H   UNL     1       0.406   9.075  20.149  0.00  0.00    +0.000 HD
ENDROOT
BRANCH   3   5
ATOM      5  C   UNL     1       0.576  10.778  18.893  0.00  0.00    +0.000 C 
ATOM      6  C   UNL     1       0.882  11.792  19.997  0.00  0.00    +0.000 C 
ATOM      7  C   UNL     1       0.109  13.068  19.725  0.00  0.00    +0.000 C 
ATOM      8  O   UNL     1      -1.298  12.824  19.827  0.00  0.00    +0.000 OA
ATOM      9  C   UNL     1      -1.728  11.819  19.001  0.00  0.00    +0.000 A 
ATOM     10  C   UNL     1      -3.092  11.803  18.709  0.00  0.00    +0.000 A 
ATOM     11  C   UNL     1      -3.605  10.855  17.825  0.00  0.00    +0.000 A 
ATOM     12  C   UNL     1      -2.750   9.939  17.217  0.00  0.00    +0.000 A 
ATOM     13  C   UNL     1      -1.392   9.932  17.537  0.00  0.00    +0.000 A 
ATOM     14  C   UNL     1      -0.875  10.842  18.474  0.00  0.00    +0.000 A 
ENDBRANCH   3   5
BRANCH   1  17
ATOM     15  C   UNL     1       2.950   5.035  18.867  0.00  0.00    +0.000 A 
ATOM     16  C   UNL     1       2.763   6.361  18.436  0.00  0.00    +0.000 A 
ATOM     17  C   UNL     1       2.087   7.284  19.248  0.00  0.00    +0.000 A 
ATOM     18  C   UNL     1       1.639   6.887  20.511  0.00  0.00    +0.000 A 
ATOM     19  C   UNL     1       1.846   5.572  20.944  0.00  0.00    +0.000 A 
ATOM     20  C   UNL     1       2.492   4.636  20.123  0.00  0.00    +0.000 A 
ATOM     21 CL   UNL     1       2.675   3.042  20.763  0.00  0.00    +0.000 Cl
BRANCH  15  22
ATOM     22  S   UNL     1       3.677   3.882  17.745  0.00  0.00    +0.000 S 
ATOM     23  O   UNL     1       4.520   2.972  18.488  0.00  0.00    +0.000 OA
ATOM     24  O   UNL     1       4.170   4.593  16.591  0.00  0.00    +0.000 OA
BRANCH  22  25
ATOM     25  N   UNL     1       2.383   2.944  17.234  0.00  0.00    +0.000 NA
ATOM     26  H   UNL     1       2.680   1.970  17.150  0.00  0.00    +0.000 HD
ATOM     27  H   UNL     1       1.995   3.326  16.372  0.00  0.00    +0.000 HD
ENDBRANCH  22  25
ENDBRANCH  15  22
ENDBRANCH   1  17
TORSDOF 4
ENDMDL
MODEL 9
REMARK VINA RESULT:      -7.3      3.761      8.054
REMARK  Name = 
REMARK  4 active torsions:
REMARK  status: ('A' for Active; 'I' for Inactive)
REMARK    1  A    between atoms: N_1  and  S_2
REMARK    2  A    between atoms: S_2  and  C_5
REMARK    3  A    between atoms: C_7  and  C_8
REMARK    4  A    between atoms: N_10  and  C_11
REMARK                            x       y       z     vdW  Elec       q    Type
REMARK                         _______ _______ _______ _____ _____    ______ ____
ROOT
ATOM      1  C   UNL     1       2.108   7.643  18.613  0.00  0.00    +0.000 C 
ATOM      2  O   UNL     1       1.901   7.563  17.409  0.00  0.00    +0.000 OA
ATOM      3  N   UNL     1       2.851   6.721  19.316  0.00  0.00    +0.000 N 
ATOM      4  H   UNL     1       3.014   6.831  20.309  0.00  0.00    +0.000 HD
ENDROOT
BRANCH   3   5
ATOM      5  C   UNL     1       3.460   5.559  18.670  0.00  0.00    +0.000 C 
ATOM      6  C   UNL     1       3.334   4.336  19.582  0.00  0.00    +0.000 C 
ATOM      7  C   UNL     1       4.348   3.293  19.154  0.00  0.00    +0.000 C 
ATOM      8  O   UNL     1       5.678   3.779  19.370  0.00  0.00    +0.000 OA
ATOM      9  C   UNL     1       5.921   4.970  18.737  0.00  0.00    +0.000 A 
ATOM     10  C   UNL     1       7.262   5.293  18.527  0.00  0.00    +0.000 A 
ATOM     11  C   UNL     1       7.599   6.454  17.833  0.00  0.00    +0.000 A 
ATOM     12  C   UNL     1       6.595   7.279  17.331  0.00  0.00    +0.000 A 
ATOM     13  C   UNL     1       5.255   6.975  17.574  0.00  0.00    +0.000 A 
ATOM     14  C   UNL     1       4.905   5.841  18.326  0.00  0.00    +0.000 A 
ENDBRANCH   3   5
BRANCH   1  17
ATOM     15  C   UNL     1       1.215  11.226  19.462  0.00  0.00    +0.000 A 
ATOM     16  C   UNL     1       1.647  10.081  18.769  0.00  0.00    +0.000 A 
ATOM     17  C   UNL     1       1.590   8.817  19.375  0.00  0.00    +0.000 A 
ATOM     18  C   UNL     1       1.056   8.698  20.662  0.00  0.00    +0.000 A 
ATOM     19  C   UNL     1       0.607   9.838  21.340  0.00  0.00    +0.000 A 
ATOM     20  C   UNL     1       0.693  11.108  20.751  0.00  0.00    +0.000 A 
ATOM     21 CL   UNL     1       0.122  12.438  21.693  0.00  0.00    +0.000 Cl
BRANCH  15  22
ATOM     22  S   UNL     1       1.446  12.804  18.705  0.00  0.00    +0.000 S 
ATOM     23  O   UNL     1       2.288  13.614  19.556  0.00  0.00    +0.000 OA
ATOM     24  O   UNL     1       0.174  13.287  18.224  0.00  0.00    +0.000 OA
BRANCH  22  25
ATOM     25  N   UNL     1       2.392  12.473  17.360  0.00  0.00    +0.000 NA
ATOM     26  H   UNL     1       1.992  12.935  16.540  0.00  0.00    +0.000 HD
ATOM     27  H   UNL     1       2.497  11.464  17.247  0.00  0.00    +0.000 HD
ENDBRANCH  22  25
ENDBRANCH  15  22
ENDBRANCH   1  17
TORSDOF 4
ENDMDL
