MODEL 1
REMARK VINA RESULT:      -7.4      0.000      0.000
REMARK  Name = 
REMARK  2 active torsions:
REMARK  status: ('A' for Active; 'I' for Inactive)
REMARK    1  A    between atoms: N_1  and  C_2
REMARK    2  A    between atoms: N_5  and  C_6
REMARK                            x       y       z     vdW  Elec       q    Type
REMARK                         _______ _______ _______ _____ _____    ______ ____
ROOT
ATOM      1  C   UNL     1       5.211   4.130  18.054  0.00  0.00    +0.000 A 
ATOM      2  N   UNL     1       5.681   4.719  19.195  0.00  0.00    +0.000 NA
ATOM      3  C   UNL     1       6.795   5.477  19.144  0.00  0.00    +0.000 A 
ATOM      4  N   UNL     1       7.542   5.793  18.069  0.00  0.00    +0.000 NA
ATOM      5  C   UNL     1       7.031   5.228  16.967  0.00  0.00    +0.000 A 
ATOM      6  N   UNL     1       7.509   5.362  15.696  0.00  0.00    +0.000 N 
ATOM      7  C   UNL     1       6.688   4.648  14.869  0.00  0.00    +0.000 A 
ATOM      8  N   UNL     1       5.727   4.046  15.534  0.00  0.00    +0.000 NA
ATOM      9  C   UNL     1       5.921   4.406  16.859  0.00  0.00    +0.000 A 
ATOM     10  H   UNL     1       8.313   5.909  15.432  0.00  0.00    +0.000 HD
ENDROOT
BRANCH   1  14
ATOM     11  C   UNL     1       1.578   2.867  19.394  0.00  0.00    +0.000 C 
ATOM     12  C   UNL     1       1.733   3.922  18.293  0.00  0.00    +0.000 C 
ATOM     13  C   UNL     1       2.897   3.564  17.374  0.00  0.00    +0.000 C 
ATOM     14  N   UNL     1       4.103   3.313  18.148  0.00  0.00    +0.000 N 
ATOM     15  C   UNL     1       4.037   2.343  19.232  0.00  0.00    +0.000 C 
ATOM     16  C   UNL     1       2.887   2.707  20.175  0.00  0.00    +0.000 C 
BRANCH  11  17
ATOM     17  N   UNL     1       0.483   3.226  20.304  0.00  0.00    +0.000 NA
ATOM     18  H   UNL     1       0.617   2.755  21.198  0.00  0.00    +0.000 HD
ATOM     19  H   UNL     1      -0.397   2.867  19.931  0.00  0.00    +0.000 HD
ENDBRANCH  11  17
ENDBRANCH   1  14
TORSDOF 2
ENDMDL
MODEL 2
REMARK VINA RESULT:      -7.3      1.128      1.612
REMARK  Name = 
REMARK  2 active torsions:
REMARK  status: ('A' for Active; 'I' for Inactive)
REMARK    1  A    between atoms: N_1  and  C_2
REMARK    2  A    between atoms: N_5  and  C_6
REMARK                            x       y       z     vdW  Elec       q    Type
REMARK                         _______ _______ _______ _____ _____    ______ ____
ROOT
ATOM      1  C   UNL     1       5.526   4.531  18.865  0.00  0.00    +0.000 A 
ATOM      2  N   UNL     1       6.385   5.271  19.630  0.00  0.00    +0.000 NA
ATOM      3  C   UNL     1       7.511   5.769  19.079  0.00  0.00    +0.000 A 
ATOM      4  N   UNL     1       7.927   5.674  17.802  0.00  0.00    +0.000 NA
ATOM      5  C   UNL     1       7.045   4.975  17.076  0.00  0.00    +0.000 A 
ATOM      6  N   UNL     1       7.127   4.712  15.740  0.00  0.00    +0.000 N 
ATOM      7  C   UNL     1       6.016   3.994  15.391  0.00  0.00    +0.000 A 
ATOM      8  N   UNL     1       5.240   3.761  16.427  0.00  0.00    +0.000 NA
ATOM      9  C   UNL     1       5.867   4.378  17.498  0.00  0.00    +0.000 A 
ATOM     10  H   UNL     1       7.870   5.018  15.132  0.00  0.00    +0.000 HD
ENDROOT
BRANCH   1  14
ATOM     11  C   UNL     1       1.917   2.659  19.105  0.00  0.00    +0.000 C 
ATOM     12  C   UNL     1       3.239   1.894  18.970  0.00  0.00    +0.000 C 
ATOM     13  C   UNL     1       4.331   2.570  19.793  0.00  0.00    +0.000 C 
ATOM     14  N   UNL     1       4.412   3.987  19.472  0.00  0.00    +0.000 N 
ATOM     15  C   UNL     1       3.197   4.784  19.549  0.00  0.00    +0.000 C 
ATOM     16  C   UNL     1       2.100   4.127  18.705  0.00  0.00    +0.000 C 
BRANCH  11  17
ATOM     17  N   UNL     1       0.872   2.034  18.285  0.00  0.00    +0.000 NA
ATOM     18  H   UNL     1       1.159   1.088  18.034  0.00  0.00    +0.000 HD
ATOM     19  H   UNL     1       0.788   2.541  17.403  0.00  0.00    +0.000 HD
ENDBRANCH  11  17
ENDBRANCH   1  14
TORSDOF 2
ENDMDL
MODEL 3
REMARK VINA RESULT:      -7.2      1.655      2.658
REMARK  Name = 
REMARK  2 active torsions:
REMARK  status: ('A' for Active; 'I' for Inactive)
REMARK    1  A    between atoms: N_1  and  C_2
REMARK    2  A    between atoms: N_5  and  C_6
REMARK                            x       y       z     vdW  Elec       q    Type
REMARK                         _______ _______ _______ _____ _____    ______ ____
ROOT
ATOM      1  C   UNL     1       4.711   5.005  18.256  0.00  0.00    +0.000 A 
ATOM      2  N   UNL     1       4.221   5.474  17.069  0.00  0.00    +0.000 NA
ATOM      3  C   UNL     1       4.947   6.352  16.347  0.00  0.00    +0.000 A 
ATOM      4  N   UNL     1       6.173   6.840  16.615  0.00  0.00    +0.000 NA
ATOM      5  C   UNL     1       6.634   6.333  17.765  0.00  0.00    +0.000 A 
ATOM      6  N   UNL     1       7.854   6.580  18.325  0.00  0.00    +0.000 N 
ATOM      7  C   UNL     1       7.935   5.849  19.478  0.00  0.00    +0.000 A 
ATOM      8  N   UNL     1       6.834   5.166  19.702  0.00  0.00    +0.000 NA
ATOM      9  C   UNL     1       6.004   5.452  18.629  0.00  0.00    +0.000 A 
ATOM     10  H   UNL     1       8.562   7.181  17.934  0.00  0.00    +0.000 HD
ENDROOT
BRANCH   1  14
ATOM     11  C   UNL     1       1.588   2.515  19.053  0.00  0.00    +0.000 C 
ATOM     12  C   UNL     1       2.861   2.045  18.338  0.00  0.00    +0.000 C 
ATOM     13  C   UNL     1       4.090   2.710  18.949  0.00  0.00    +0.000 C 
ATOM     14  N   UNL     1       3.920   4.154  19.000  0.00  0.00    +0.000 N 
ATOM     15  C   UNL     1       2.725   4.686  19.639  0.00  0.00    +0.000 C 
ATOM     16  C   UNL     1       1.483   4.043  19.014  0.00  0.00    +0.000 C 
BRANCH  11  17
ATOM     17  N   UNL     1       0.399   1.907  18.443  0.00  0.00    +0.000 NA
ATOM     18  H   UNL     1      -0.115   2.616  17.922  0.00  0.00    +0.000 HD
ATOM     19  H   UNL     1      -0.234   1.593  19.180  0.00  0.00    +0.000 HD
ENDBRANCH  11  17
ENDBRANCH   1  14
TORSDOF 2
ENDMDL
MODEL 4
REMARK VINA RESULT:      -7.0      1.111      2.452
REMARK  Name = 
REMARK  2 active torsions:
REMARK  status: ('A' for Active; 'I' for Inactive)
REMARK    1  A    between atoms: N_1  and  C_2
REMARK    2  A    between atoms: N_5  and  C_6
REMARK                            x       y       z     vdW  Elec       q    Type
REMARK                         _______ _______ _______ _____ _____    ______ ____
ROOT
ATOM      1  C   UNL     1       5.004   4.080  17.542  0.00  0.00    +0.000 A 
ATOM      2  N   UNL     1       5.190   3.797  16.217  0.00  0.00    +0.000 NA
ATOM      3  C   UNL     1       6.328   4.184  15.606  0.00  0.00    +0.000 A 
ATOM      4  N   UNL     1       7.391   4.811  16.143  0.00  0.00    +0.000 NA
ATOM      5  C   UNL     1       7.188   5.039  17.446  0.00  0.00    +0.000 A 
ATOM      6  N   UNL     1       8.067   5.623  18.311  0.00  0.00    +0.000 N 
ATOM      7  C   UNL     1       7.481   5.642  19.546  0.00  0.00    +0.000 A 
ATOM      8  N   UNL     1       6.271   5.127  19.521  0.00  0.00    +0.000 NA
ATOM      9  C   UNL     1       6.071   4.733  18.207  0.00  0.00    +0.000 A 
ATOM     10  H   UNL     1       8.987   5.957  18.068  0.00  0.00    +0.000 HD
ENDROOT
BRANCH   1  14
ATOM     11  C   UNL     1       2.362   3.342  20.554  0.00  0.00    +0.000 C 
ATOM     12  C   UNL     1       2.630   4.752  20.015  0.00  0.00    +0.000 C 
ATOM     13  C   UNL     1       2.810   4.717  18.501  0.00  0.00    +0.000 C 
ATOM     14  N   UNL     1       3.804   3.723  18.125  0.00  0.00    +0.000 N 
ATOM     15  C   UNL     1       3.640   2.363  18.616  0.00  0.00    +0.000 C 
ATOM     16  C   UNL     1       3.485   2.384  20.139  0.00  0.00    +0.000 C 
BRANCH  11  17
ATOM     17  N   UNL     1       2.226   3.365  22.016  0.00  0.00    +0.000 NA
ATOM     18  H   UNL     1       2.581   2.491  22.403  0.00  0.00    +0.000 HD
ATOM     19  H   UNL     1       1.236   3.396  22.262  0.00  0.00    +0.000 HD
ENDBRANCH  11  17
ENDBRANCH   1  14
TORSDOF 2
ENDMDL
MODEL 5
REMARK VINA RESULT:      -7.0      1.756      5.176
REMARK  Name = 
REMARK  2 active torsions:
REMARK  status: ('A' for Active; 'I' for Inactive)
REMARK    1  A    between atoms: N_1  and  C_2
REMARK    2  A    between atoms: N_5  and  C_6
REMARK                            x       y       z     vdW  Elec       q    Type
REMARK                         _______ _______ _______ _____ _____    ______ ____
ROOT
ATOM      1  C   UNL     1       3.545   4.999  19.115  0.00  0.00    +0.000 A 
ATOM      2  N   UNL     1       2.717   5.593  20.027  0.00  0.00    +0.000 NA
ATOM      3  C   UNL     1       1.652   4.916  20.502  0.00  0.00    +0.000 A 
ATOM      4  N   UNL     1       1.276   3.653  20.228  0.00  0.00    +0.000 NA
ATOM      5  C   UNL     1       2.129   3.092  19.361  0.00  0.00    +0.000 A 
ATOM      6  N   UNL     1       2.075   1.814  18.888  0.00  0.00    +0.000 N 
ATOM      7  C   UNL     1       3.141   1.638  18.049  0.00  0.00    +0.000 A 
ATOM      8  N   UNL     1       3.860   2.733  17.937  0.00  0.00    +0.000 NA
ATOM      9  C   UNL     1       3.243   3.660  18.763  0.00  0.00    +0.000 A 
ATOM     10  H   UNL     1       1.379   1.130  19.140  0.00  0.00    +0.000 HD
ENDROOT
BRANCH   1  14
ATOM     11  C   UNL     1       6.667   5.886  16.654  0.00  0.00    +0.000 C 
ATOM     12  C   UNL     1       5.207   6.147  16.266  0.00  0.00    +0.000 C 
ATOM     13  C   UNL     1       4.416   6.638  17.474  0.00  0.00    +0.000 C 
ATOM     14  N   UNL     1       4.593   5.738  18.603  0.00  0.00    +0.000 N 
ATOM     15  C   UNL     1       5.949   5.415  19.023  0.00  0.00    +0.000 C 
ATOM     16  C   UNL     1       6.746   4.896  17.822  0.00  0.00    +0.000 C 
BRANCH  11  17
ATOM     17  N   UNL     1       7.425   5.377  15.504  0.00  0.00    +0.000 NA
ATOM     18  H   UNL     1       7.917   6.149  15.054  0.00  0.00    +0.000 HD
ATOM     19  H   UNL     1       6.774   5.018  14.804  0.00  0.00    +0.000 HD
ENDBRANCH  11  17
ENDBRANCH   1  14
TORSDOF 2
ENDMDL
MODEL 6
REMARK VINA RESULT:      -6.9      1.344      2.647
REMARK  Name = 
REMARK  2 active torsions:
REMARK  status: ('A' for Active; 'I' for Inactive)
REMARK    1  A    between atoms: N_1  and  C_2
REMARK    2  A    between atoms: N_5  and  C_6
REMARK                            x       y       z     vdW  Elec       q    Type
REMARK                         _______ _______ _______ _____ _____    ______ ____
ROOT
ATOM      1  C   UNL     1       4.888   4.560  17.109  0.00  0.00    +0.000 A 
ATOM      2  N   UNL     1       4.747   4.012  15.865  0.00  0.00    +0.000 NA
ATOM      3  C   UNL     1       5.573   4.394  14.869  0.00  0.00    +0.000 A 
ATOM      4  N   UNL     1       6.602   5.258  14.925  0.00  0.00    +0.000 NA
ATOM      5  C   UNL     1       6.732   5.747  16.165  0.00  0.00    +0.000 A 
ATOM      6  N   UNL     1       7.689   6.621  16.592  0.00  0.00    +0.000 N 
ATOM      7  C   UNL     1       7.480   6.843  17.926  0.00  0.00    +0.000 A 
ATOM      8  N   UNL     1       6.434   6.183  18.373  0.00  0.00    +0.000 NA
ATOM      9  C   UNL     1       5.953   5.480  17.279  0.00  0.00    +0.000 A 
ATOM     10  H   UNL     1       8.422   7.007  16.018  0.00  0.00    +0.000 HD
ENDROOT
BRANCH   1  14
ATOM     11  C   UNL     1       1.592   2.784  18.714  0.00  0.00    +0.000 C 
ATOM     12  C   UNL     1       2.904   2.029  18.471  0.00  0.00    +0.000 C 
ATOM     13  C   UNL     1       4.099   2.922  18.791  0.00  0.00    +0.000 C 
ATOM     14  N   UNL     1       3.991   4.193  18.092  0.00  0.00    +0.000 N 
ATOM     15  C   UNL     1       2.767   4.964  18.246  0.00  0.00    +0.000 C 
ATOM     16  C   UNL     1       1.561   4.084  17.902  0.00  0.00    +0.000 C 
BRANCH  11  17
ATOM     17  N   UNL     1       0.440   1.942  18.371  0.00  0.00    +0.000 NA
ATOM     18  H   UNL     1       0.264   1.282  19.128  0.00  0.00    +0.000 HD
ATOM     19  H   UNL     1       0.669   1.372  17.555  0.00  0.00    +0.000 HD
ENDBRANCH  11  17
ENDBRANCH   1  14
TORSDOF 2
ENDMDL
MODEL 7
REMARK VINA RESULT:      -6.9      1.592      1.607
REMARK  Name = 
REMARK  2 active torsions:
REMARK  status: ('A' for Active; 'I' for Inactive)
REMARK    1  A    between atoms: N_1  and  C_2
REMARK    2  A    between atoms: N_5  and  C_6
REMARK                            x       y       z     vdW  Elec       q    Type
REMARK                         _______ _______ _______ _____ _____    ______ ____
ROOT
ATOM      1  C   UNL     1       4.288   4.586  17.248  0.00  0.00    +0.000 A 
ATOM      2  N   UNL     1       3.949   5.844  17.665  0.00  0.00    +0.000 NA
ATOM      3  C   UNL     1       4.523   6.917  17.084  0.00  0.00    +0.000 A 
ATOM      4  N   UNL     1       5.404   6.944  16.068  0.00  0.00    +0.000 NA
ATOM      5  C   UNL     1       5.684   5.698  15.662  0.00  0.00    +0.000 A 
ATOM      6  N   UNL     1       6.509   5.351  14.633  0.00  0.00    +0.000 N 
ATOM      7  C   UNL     1       6.498   3.987  14.537  0.00  0.00    +0.000 A 
ATOM      8  N   UNL     1       5.734   3.438  15.456  0.00  0.00    +0.000 NA
ATOM      9  C   UNL     1       5.206   4.502  16.171  0.00  0.00    +0.000 A 
ATOM     10  H   UNL     1       7.012   5.999  14.047  0.00  0.00    +0.000 HD
ENDROOT
BRANCH   1  14
ATOM     11  C   UNL     1       1.856   2.625  19.861  0.00  0.00    +0.000 C 
ATOM     12  C   UNL     1       1.384   3.086  18.478  0.00  0.00    +0.000 C 
ATOM     13  C   UNL     1       2.491   2.893  17.446  0.00  0.00    +0.000 C 
ATOM     14  N   UNL     1       3.728   3.507  17.901  0.00  0.00    +0.000 N 
ATOM     15  C   UNL     1       4.236   3.145  19.217  0.00  0.00    +0.000 C 
ATOM     16  C   UNL     1       3.140   3.359  20.265  0.00  0.00    +0.000 C 
BRANCH  11  17
ATOM     17  N   UNL     1       0.807   2.844  20.865  0.00  0.00    +0.000 NA
ATOM     18  H   UNL     1       0.488   1.945  21.224  0.00  0.00    +0.000 HD
ATOM     19  H   UNL     1      -0.006   3.267  20.416  0.00  0.00    +0.000 HD
ENDBRANCH  11  17
ENDBRANCH   1  14
TORSDOF 2
ENDMDL
MODEL 8
REMARK VINA RESULT:      -6.9      1.626      5.617
REMARK  Name = 
REMARK  2 active torsions:
REMARK  status: ('A' for Active; 'I' for Inactive)
REMARK    1  A    between atoms: N_1  and  C_2
REMARK    2  A    between atoms: N_5  and  C_6
REMARK                            x       y       z     vdW  Elec       q    Type
REMARK                         _______ _______ _______ _____ _____    ______ ____
ROOT
ATOM      1  C   UNL     1       3.926   4.009  18.366  0.00  0.00    +0.000 A 
ATOM      2  N   UNL     1       3.990   2.753  17.830  0.00  0.00    +0.000 NA
ATOM      3  C   UNL     1       3.120   1.807  18.240  0.00  0.00    +0.000 A 
ATOM      4  N   UNL     1       2.114   1.927  19.125  0.00  0.00    +0.000 NA
ATOM      5  C   UNL     1       2.060   3.178  19.602  0.00  0.00    +0.000 A 
ATOM      6  N   UNL     1       1.146   3.665  20.489  0.00  0.00    +0.000 N 
ATOM      7  C   UNL     1       1.430   4.988  20.691  0.00  0.00    +0.000 A 
ATOM      8  N   UNL     1       2.484   5.371  20.005  0.00  0.00    +0.000 NA
ATOM      9  C   UNL     1       2.892   4.246  19.305  0.00  0.00    +0.000 A 
ATOM     10  H   UNL     1       0.392   3.135  20.897  0.00  0.00    +0.000 HD
ENDROOT
BRANCH   1  14
ATOM     11  C   UNL     1       6.864   5.630  16.057  0.00  0.00    +0.000 C 
ATOM     12  C   UNL     1       5.376   5.767  15.719  0.00  0.00    +0.000 C 
ATOM     13  C   UNL     1       4.558   5.970  16.991  0.00  0.00    +0.000 C 
ATOM     14  N   UNL     1       4.867   4.939  17.969  0.00  0.00    +0.000 N 
ATOM     15  C   UNL     1       6.260   4.723  18.329  0.00  0.00    +0.000 C 
ATOM     16  C   UNL     1       7.086   4.492  17.060  0.00  0.00    +0.000 C 
BRANCH  11  17
ATOM     17  N   UNL     1       7.651   5.396  14.840  0.00  0.00    +0.000 NA
ATOM     18  H   UNL     1       8.639   5.556  15.038  0.00  0.00    +0.000 HD
ATOM     19  H   UNL     1       7.395   6.088  14.134  0.00  0.00    +0.000 HD
ENDBRANCH  11  17
ENDBRANCH   1  14
TORSDOF 2
ENDMDL
MODEL 9
REMARK VINA RESULT:      -6.9      1.566      1.903
REMARK  Name = 
REMARK  2 active torsions:
REMARK  status: ('A' for Active; 'I' for Inactive)
REMARK    1  A    between atoms: N_1  and  C_2
REMARK    2  A    between atoms: N_5  and  C_6
REMARK                            x       y       z     vdW  Elec       q    Type
REMARK                         _______ _______ _______ _____ _____    ______ ____
ROOT
ATOM      1  C   UNL     1       5.461   4.974  19.094  0.00  0.00    +0.000 A 
ATOM      2  N   UNL     1       6.595   5.139  19.841  0.00  0.00    +0.000 NA
ATOM      3  C   UNL     1       7.649   5.797  19.317  0.00  0.00    +0.000 A 
ATOM      4  N   UNL     1       7.750   6.384  18.110  0.00  0.00    +0.000 NA
ATOM      5  C   UNL     1       6.611   6.232  17.423  0.00  0.00    +0.000 A 
ATOM      6  N   UNL     1       6.346   6.727  16.179  0.00  0.00    +0.000 N 
ATOM      7  C   UNL     1       5.067   6.369  15.855  0.00  0.00    +0.000 A 
ATOM      8  N   UNL     1       4.504   5.655  16.805  0.00  0.00    +0.000 NA
ATOM      9  C   UNL     1       5.459   5.564  17.806  0.00  0.00    +0.000 A 
ATOM     10  H   UNL     1       6.985   7.274  15.623  0.00  0.00    +0.000 HD
ENDROOT
BRANCH   1  14
ATOM     11  C   UNL     1       1.928   2.948  19.161  0.00  0.00    +0.000 C 
ATOM     12  C   UNL     1       3.245   2.300  18.720  0.00  0.00    +0.000 C 
ATOM     13  C   UNL     1       4.397   2.792  19.590  0.00  0.00    +0.000 C 
ATOM     14  N   UNL     1       4.421   4.246  19.636  0.00  0.00    +0.000 N 
ATOM     15  C   UNL     1       3.203   4.944  20.021  0.00  0.00    +0.000 C 
ATOM     16  C   UNL     1       2.044   4.476  19.136  0.00  0.00    +0.000 C 
BRANCH  11  17
ATOM     17  N   UNL     1       0.822   2.507  18.303  0.00  0.00    +0.000 NA
ATOM     18  H   UNL     1      -0.031   2.436  18.857  0.00  0.00    +0.000 HD
ATOM     19  H   UNL     1       1.012   1.562  17.966  0.00  0.00    +0.000 HD
ENDBRANCH  11  17
ENDBRANCH   1  14
TORSDOF 2
ENDMDL
