MODEL 1
REMARK VINA RESULT:      -6.9      0.000      0.000
REMARK  Name = 
REMARK  5 active torsions:
REMARK  status: ('A' for Active; 'I' for Inactive)
REMARK    1  A    between atoms: C_1  and  N_2
REMARK    2  A    between atoms: C_4  and  C_5
REMARK    3  A    between atoms: C_5  and  C_6
REMARK    4  A    between atoms: N_12  and  C_13
REMARK    5  A    between atoms: C_13  and  C_14
REMARK                            x       y       z     vdW  Elec       q    Type
REMARK                         _______ _______ _______ _____ _____    ______ ____
ROOT
ATOM      1  C   UNL     1       2.855   6.835  19.364  0.00  0.00    +0.000 C 
ATOM      2  C   UNL     1       2.445   7.220  17.937  0.00  0.00    +0.000 C 
ATOM      3  C   UNL     1       2.146   8.696  18.107  0.00  0.00    +0.000 C 
ATOM      4  N   UNL     1       1.535   8.775  19.426  0.00  0.00    +0.000 N 
ATOM      5  C   UNL     1       0.807   9.820  19.940  0.00  0.00    +0.000 C 
ATOM      6  O   UNL     1       0.273   9.771  21.042  0.00  0.00    +0.000 OA
ATOM      7  N   UNL     1       0.704  10.900  19.109  0.00  0.00    +0.000 N 
ATOM      8  C   UNL     1       1.770   7.542  20.182  0.00  0.00    +0.000 C 
ATOM      9  H   UNL     1       1.413  11.030  18.409  0.00  0.00    +0.000 HD
ENDROOT
BRANCH   1  10
ATOM     10  C   UNL     1       3.015   5.331  19.577  0.00  0.00    +0.000 C 
BRANCH  10  14
ATOM     11  C   UNL     1       7.581   4.604  17.617  0.00  0.00    +0.000 C 
ATOM     12  N   UNL     1       6.171   4.523  17.907  0.00  0.00    +0.000 N 
ATOM     13  C   UNL     1       5.514   5.098  18.955  0.00  0.00    +0.000 A 
ATOM     14  C   UNL     1       4.172   4.821  18.775  0.00  0.00    +0.000 A 
ATOM     15  C   UNL     1       4.144   4.036  17.598  0.00  0.00    +0.000 A 
ATOM     16  N   UNL     1       5.356   3.860  17.067  0.00  0.00    +0.000 NA
ENDBRANCH  10  14
ENDBRANCH   1  10
BRANCH   7  17
ATOM     17  C   UNL     1      -0.025  12.090  19.486  0.00  0.00    +0.000 C 
BRANCH  17  18
ATOM     18  C   UNL     1      -1.433  11.996  19.003  0.00  0.00    +0.000 A 
ATOM     19  C   UNL     1      -2.604  12.265  19.707  0.00  0.00    +0.000 A 
ATOM     20  N   UNL     1      -3.606  11.976  18.839  0.00  0.00    +0.000 N 
ATOM     21  C   UNL     1      -4.981  11.978  18.849  0.00  0.00    +0.000 A 
ATOM     22  C   UNL     1      -5.484  11.564  17.671  0.00  0.00    +0.000 A 
ATOM     23  S   UNL     1      -4.225  11.155  16.490  0.00  0.00    +0.000 S 
ATOM     24  C   UNL     1      -3.022  11.574  17.672  0.00  0.00    +0.000 A 
ATOM     25  N   UNL     1      -1.720  11.572  17.708  0.00  0.00    +0.000 NA
ENDBRANCH  17  18
ENDBRANCH   7  17
TORSDOF 4
ENDMDL
MODEL 2
REMARK VINA RESULT:      -6.8      3.047      3.706
REMARK  Name = 
REMARK  5 active torsions:
REMARK  status: ('A' for Active; 'I' for Inactive)
REMARK    1  A    between atoms: C_1  and  N_2
REMARK    2  A    between atoms: C_4  and  C_5
REMARK    3  A    between atoms: C_5  and  C_6
REMARK    4  A    between atoms: N_12  and  C_13
REMARK    5  A    between atoms: C_13  and  C_14
REMARK                            x       y       z     vdW  Elec       q    Type
REMARK                         _______ _______ _______ _____ _____    ______ ____
ROOT
ATOM      1  C   UNL     1       3.499   4.856  18.659  0.00  0.00    +0.000 C 
ATOM      2  C   UNL     1       3.196   5.293  20.097  0.00  0.00    +0.000 C 
ATOM      3  C   UNL     1       2.197   6.408  19.859  0.00  0.00    +0.000 C 
ATOM      4  N   UNL     1       2.685   7.058  18.651  0.00  0.00    +0.000 N 
ATOM      5  C   UNL     1       2.332   8.297  18.176  0.00  0.00    +0.000 C 
ATOM      6  O   UNL     1       2.846   8.792  17.180  0.00  0.00    +0.000 OA
ATOM      7  N   UNL     1       1.386   8.941  18.925  0.00  0.00    +0.000 N 
ATOM      8  C   UNL     1       3.668   6.212  17.968  0.00  0.00    +0.000 C 
ATOM      9  H   UNL     1       0.770   8.384  19.492  0.00  0.00    +0.000 HD
ENDROOT
BRANCH   1  10
ATOM     10  C   UNL     1       4.659   3.869  18.543  0.00  0.00    +0.000 C 
BRANCH  10  14
ATOM     11  C   UNL     1       6.453   4.186  13.862  0.00  0.00    +0.000 C 
ATOM     12  N   UNL     1       6.277   4.311  15.288  0.00  0.00    +0.000 N 
ATOM     13  C   UNL     1       5.165   3.989  16.010  0.00  0.00    +0.000 A 
ATOM     14  C   UNL     1       5.487   4.194  17.338  0.00  0.00    +0.000 A 
ATOM     15  C   UNL     1       6.815   4.678  17.292  0.00  0.00    +0.000 A 
ATOM     16  N   UNL     1       7.297   4.744  16.049  0.00  0.00    +0.000 NA
ENDBRANCH  10  14
ENDBRANCH   1  10
BRANCH   7  17
ATOM     17  C   UNL     1       0.894  10.254  18.574  0.00  0.00    +0.000 C 
BRANCH  17  18
ATOM     18  C   UNL     1       0.363  10.937  19.789  0.00  0.00    +0.000 A 
ATOM     19  C   UNL     1      -0.422  10.399  20.805  0.00  0.00    +0.000 A 
ATOM     20  N   UNL     1      -0.676  11.440  21.637  0.00  0.00    +0.000 N 
ATOM     21  C   UNL     1      -1.383  11.655  22.797  0.00  0.00    +0.000 A 
ATOM     22  C   UNL     1      -1.305  12.940  23.191  0.00  0.00    +0.000 A 
ATOM     23  S   UNL     1      -0.320  13.936  22.103  0.00  0.00    +0.000 S 
ATOM     24  C   UNL     1      -0.040  12.531  21.119  0.00  0.00    +0.000 A 
ATOM     25  N   UNL     1       0.606  12.290  20.015  0.00  0.00    +0.000 NA
ENDBRANCH  17  18
ENDBRANCH   7  17
TORSDOF 4
ENDMDL
MODEL 3
REMARK VINA RESULT:      -6.8      0.904      1.116
REMARK  Name = 
REMARK  5 active torsions:
REMARK  status: ('A' for Active; 'I' for Inactive)
REMARK    1  A    between atoms: C_1  and  N_2
REMARK    2  A    between atoms: C_4  and  C_5
REMARK    3  A    between atoms: C_5  and  C_6
REMARK    4  A    between atoms: N_12  and  C_13
REMARK    5  A    between atoms: C_13  and  C_14
REMARK                            x       y       z     vdW  Elec       q    Type
REMARK                         _______ _______ _______ _____ _____    ______ ____
ROOT
ATOM      1  C   UNL     1       2.894   6.734  19.381  0.00  0.00    +0.000 C 
ATOM      2  C   UNL     1       2.429   7.114  17.970  0.00  0.00    +0.000 C 
ATOM      3  C   UNL     1       2.087   8.579  18.159  0.00  0.00    +0.000 C 
ATOM      4  N   UNL     1       1.513   8.630  19.496  0.00  0.00    +0.000 N 
ATOM      5  C   UNL     1       0.767   9.647  20.039  0.00  0.00    +0.000 C 
ATOM      6  O   UNL     1       0.268   9.573  21.156  0.00  0.00    +0.000 OA
ATOM      7  N   UNL     1       0.603  10.728  19.219  0.00  0.00    +0.000 N 
ATOM      8  C   UNL     1       1.811   7.400  20.236  0.00  0.00    +0.000 C 
ATOM      9  H   UNL     1       1.287  10.885  18.499  0.00  0.00    +0.000 HD
ENDROOT
BRANCH   1  10
ATOM     10  C   UNL     1       3.109   5.235  19.579  0.00  0.00    +0.000 C 
BRANCH  10  14
ATOM     11  C   UNL     1       7.358   4.574  16.984  0.00  0.00    +0.000 C 
ATOM     12  N   UNL     1       6.007   4.468  17.477  0.00  0.00    +0.000 N 
ATOM     13  C   UNL     1       5.496   5.044  18.603  0.00  0.00    +0.000 A 
ATOM     14  C   UNL     1       4.149   4.738  18.623  0.00  0.00    +0.000 A 
ATOM     15  C   UNL     1       3.968   3.936  17.471  0.00  0.00    +0.000 A 
ATOM     16  N   UNL     1       5.094   3.777  16.772  0.00  0.00    +0.000 NA
ENDBRANCH  10  14
ENDBRANCH   1  10
BRANCH   7  17
ATOM     17  C   UNL     1      -0.152  11.891  19.625  0.00  0.00    +0.000 C 
BRANCH  17  18
ATOM     18  C   UNL     1      -1.542  11.805  19.090  0.00  0.00    +0.000 A 
ATOM     19  C   UNL     1      -1.963  11.290  17.867  0.00  0.00    +0.000 A 
ATOM     20  N   UNL     1      -3.303  11.496  17.845  0.00  0.00    +0.000 N 
ATOM     21  C   UNL     1      -4.344  11.275  16.974  0.00  0.00    +0.000 A 
ATOM     22  C   UNL     1      -5.512  11.712  17.479  0.00  0.00    +0.000 A 
ATOM     23  S   UNL     1      -5.342  12.423  19.095  0.00  0.00    +0.000 S 
ATOM     24  C   UNL     1      -3.637  12.092  19.027  0.00  0.00    +0.000 A 
ATOM     25  N   UNL     1      -2.623  12.296  19.818  0.00  0.00    +0.000 NA
ENDBRANCH  17  18
ENDBRANCH   7  17
TORSDOF 4
ENDMDL
MODEL 4
REMARK VINA RESULT:      -6.7      1.718      2.510
REMARK  Name = 
REMARK  5 active torsions:
REMARK  status: ('A' for Active; 'I' for Inactive)
REMARK    1  A    between atoms: C_1  and  N_2
REMARK    2  A    between atoms: C_4  and  C_5
REMARK    3  A    between atoms: C_5  and  C_6
REMARK    4  A    between atoms: N_12  and  C_13
REMARK    5  A    between atoms: C_13  and  C_14
REMARK                            x       y       z     vdW  Elec       q    Type
REMARK                         _______ _______ _______ _____ _____    ______ ____
ROOT
ATOM      1  C   UNL     1       2.784   4.658  19.095  0.00  0.00    +0.000 C 
ATOM      2  C   UNL     1       2.542   5.010  20.567  0.00  0.00    +0.000 C 
ATOM      3  C   UNL     1       1.700   6.265  20.432  0.00  0.00    +0.000 C 
ATOM      4  N   UNL     1       2.272   6.942  19.278  0.00  0.00    +0.000 N 
ATOM      5  C   UNL     1       2.087   8.252  18.910  0.00  0.00    +0.000 C 
ATOM      6  O   UNL     1       2.664   8.755  17.953  0.00  0.00    +0.000 OA
ATOM      7  N   UNL     1       1.235   8.951  19.719  0.00  0.00    +0.000 N 
ATOM      8  C   UNL     1       3.134   6.033  18.518  0.00  0.00    +0.000 C 
ATOM      9  H   UNL     1       0.550   8.436  20.244  0.00  0.00    +0.000 HD
ENDROOT
BRANCH   1  10
ATOM     10  C   UNL     1       3.803   3.538  18.886  0.00  0.00    +0.000 C 
BRANCH  10  14
ATOM     11  C   UNL     1       6.458   4.207  14.676  0.00  0.00    +0.000 C 
ATOM     12  N   UNL     1       6.002   4.237  16.044  0.00  0.00    +0.000 N 
ATOM     13  C   UNL     1       4.787   3.832  16.513  0.00  0.00    +0.000 A 
ATOM     14  C   UNL     1       4.834   3.966  17.888  0.00  0.00    +0.000 A 
ATOM     15  C   UNL     1       6.121   4.499  18.131  0.00  0.00    +0.000 A 
ATOM     16  N   UNL     1       6.833   4.659  17.013  0.00  0.00    +0.000 NA
ENDBRANCH  10  14
ENDBRANCH   1  10
BRANCH   7  17
ATOM     17  C   UNL     1       0.923  10.342  19.483  0.00  0.00    +0.000 C 
BRANCH  17  18
ATOM     18  C   UNL     1      -0.405  10.457  18.815  0.00  0.00    +0.000 A 
ATOM     19  C   UNL     1      -0.810   9.901  17.605  0.00  0.00    +0.000 A 
ATOM     20  N   UNL     1      -2.079  10.347  17.424  0.00  0.00    +0.000 N 
ATOM     21  C   UNL     1      -3.064  10.230  16.471  0.00  0.00    +0.000 A 
ATOM     22  C   UNL     1      -4.164  10.927  16.810  0.00  0.00    +0.000 A 
ATOM     23  S   UNL     1      -3.999  11.763  18.366  0.00  0.00    +0.000 S 
ATOM     24  C   UNL     1      -2.391  11.118  18.507  0.00  0.00    +0.000 A 
ATOM     25  N   UNL     1      -1.429  11.215  19.379  0.00  0.00    +0.000 NA
ENDBRANCH  17  18
ENDBRANCH   7  17
TORSDOF 4
ENDMDL
MODEL 5
REMARK VINA RESULT:      -6.7      2.418      3.185
REMARK  Name = 
REMARK  5 active torsions:
REMARK  status: ('A' for Active; 'I' for Inactive)
REMARK    1  A    between atoms: C_1  and  N_2
REMARK    2  A    between atoms: C_4  and  C_5
REMARK    3  A    between atoms: C_5  and  C_6
REMARK    4  A    between atoms: N_12  and  C_13
REMARK    5  A    between atoms: C_13  and  C_14
REMARK                            x       y       z     vdW  Elec       q    Type
REMARK                         _______ _______ _______ _____ _____    ______ ____
ROOT
ATOM      1  C   UNL     1       2.588   4.831  18.652  0.00  0.00    +0.000 C 
ATOM      2  C   UNL     1       2.819   5.282  20.099  0.00  0.00    +0.000 C 
ATOM      3  C   UNL     1       2.022   6.571  20.135  0.00  0.00    +0.000 C 
ATOM      4  N   UNL     1       2.236   7.147  18.816  0.00  0.00    +0.000 N 
ATOM      5  C   UNL     1       1.995   8.442  18.428  0.00  0.00    +0.000 C 
ATOM      6  O   UNL     1       2.269   8.856  17.308  0.00  0.00    +0.000 OA
ATOM      7  N   UNL     1       1.456   9.233  19.404  0.00  0.00    +0.000 N 
ATOM      8  C   UNL     1       2.793   6.149  17.898  0.00  0.00    +0.000 C 
ATOM      9  H   UNL     1       0.946   8.788  20.148  0.00  0.00    +0.000 HD
ENDROOT
BRANCH   1  10
ATOM     10  C   UNL     1       3.454   3.647  18.226  0.00  0.00    +0.000 C 
BRANCH  10  14
ATOM     11  C   UNL     1       7.051   4.762  14.903  0.00  0.00    +0.000 C 
ATOM     12  N   UNL     1       6.289   4.607  16.118  0.00  0.00    +0.000 N 
ATOM     13  C   UNL     1       4.980   4.239  16.224  0.00  0.00    +0.000 A 
ATOM     14  C   UNL     1       4.710   4.140  17.575  0.00  0.00    +0.000 A 
ATOM     15  C   UNL     1       5.928   4.511  18.192  0.00  0.00    +0.000 A 
ATOM     16  N   UNL     1       6.889   4.789  17.307  0.00  0.00    +0.000 NA
ENDBRANCH  10  14
ENDBRANCH   1  10
BRANCH   7  17
ATOM     17  C   UNL     1       1.136  10.623  19.174  0.00  0.00    +0.000 C 
BRANCH  17  18
ATOM     18  C   UNL     1       0.131  11.085  20.175  0.00  0.00    +0.000 A 
ATOM     19  C   UNL     1       0.080  10.799  21.537  0.00  0.00    +0.000 A 
ATOM     20  N   UNL     1      -1.048  11.410  21.978  0.00  0.00    +0.000 N 
ATOM     21  C   UNL     1      -1.730  11.535  23.166  0.00  0.00    +0.000 A 
ATOM     22  C   UNL     1      -2.848  12.268  23.020  0.00  0.00    +0.000 A 
ATOM     23  S   UNL     1      -3.085  12.839  21.357  0.00  0.00    +0.000 S 
ATOM     24  C   UNL     1      -1.611  12.038  20.904  0.00  0.00    +0.000 A 
ATOM     25  N   UNL     1      -0.944  11.885  19.796  0.00  0.00    +0.000 NA
ENDBRANCH  17  18
ENDBRANCH   7  17
TORSDOF 4
ENDMDL
MODEL 6
REMARK VINA RESULT:      -6.7      1.951      2.602
REMARK  Name = 
REMARK  5 active torsions:
REMARK  status: ('A' for Active; 'I' for Inactive)
REMARK    1  A    between atoms: C_1  and  N_2
REMARK    2  A    between atoms: C_4  and  C_5
REMARK    3  A    between atoms: C_5  and  C_6
REMARK    4  A    between atoms: N_12  and  C_13
REMARK    5  A    between atoms: C_13  and  C_14
REMARK                            x       y       z     vdW  Elec       q    Type
REMARK                         _______ _______ _______ _____ _____    ______ ____
ROOT
ATOM      1  C   UNL     1       4.507   6.000  18.337  0.00  0.00    +0.000 C 
ATOM      2  C   UNL     1       4.005   6.727  17.084  0.00  0.00    +0.000 C 
ATOM      3  C   UNL     1       3.336   7.941  17.699  0.00  0.00    +0.000 C 
ATOM      4  N   UNL     1       2.731   7.422  18.917  0.00  0.00    +0.000 N 
ATOM      5  C   UNL     1       1.761   8.022  19.681  0.00  0.00    +0.000 C 
ATOM      6  O   UNL     1       1.262   7.478  20.660  0.00  0.00    +0.000 OA
ATOM      7  N   UNL     1       1.378   9.258  19.240  0.00  0.00    +0.000 N 
ATOM      8  C   UNL     1       3.280   6.104  19.248  0.00  0.00    +0.000 C 
ATOM      9  H   UNL     1       2.027   9.784  18.680  0.00  0.00    +0.000 HD
ENDROOT
BRANCH   1  10
ATOM     10  C   UNL     1       5.051   4.598  18.064  0.00  0.00    +0.000 C 
BRANCH  10  14
ATOM     11  C   UNL     1       6.349   3.733  13.290  0.00  0.00    +0.000 C 
ATOM     12  N   UNL     1       6.338   4.176  14.663  0.00  0.00    +0.000 N 
ATOM     13  C   UNL     1       5.289   4.125  15.533  0.00  0.00    +0.000 A 
ATOM     14  C   UNL     1       5.767   4.576  16.749  0.00  0.00    +0.000 A 
ATOM     15  C   UNL     1       7.116   4.907  16.480  0.00  0.00    +0.000 A 
ATOM     16  N   UNL     1       7.464   4.659  15.215  0.00  0.00    +0.000 NA
ENDBRANCH  10  14
ENDBRANCH   1  10
BRANCH   7  17
ATOM     17  C   UNL     1       0.369  10.036  19.921  0.00  0.00    +0.000 C 
BRANCH  17  18
ATOM     18  C   UNL     1      -0.783  10.285  19.006  0.00  0.00    +0.000 A 
ATOM     19  C   UNL     1      -0.913   9.921  17.669  0.00  0.00    +0.000 A 
ATOM     20  N   UNL     1      -2.114  10.425  17.287  0.00  0.00    +0.000 N 
ATOM     21  C   UNL     1      -2.867  10.476  16.137  0.00  0.00    +0.000 A 
ATOM     22  C   UNL     1      -4.017  11.148  16.329  0.00  0.00    +0.000 A 
ATOM     23  S   UNL     1      -4.196  11.747  17.990  0.00  0.00    +0.000 S 
ATOM     24  C   UNL     1      -2.656  11.041  18.378  0.00  0.00    +0.000 A 
ATOM     25  N   UNL     1      -1.906  10.984  19.442  0.00  0.00    +0.000 NA
ENDBRANCH  17  18
ENDBRANCH   7  17
TORSDOF 4
ENDMDL
MODEL 7
REMARK VINA RESULT:      -6.6      4.123      9.498
REMARK  Name = 
REMARK  5 active torsions:
REMARK  status: ('A' for Active; 'I' for Inactive)
REMARK    1  A    between atoms: C_1  and  N_2
REMARK    2  A    between atoms: C_4  and  C_5
REMARK    3  A    between atoms: C_5  and  C_6
REMARK    4  A    between atoms: N_12  and  C_13
REMARK    5  A    between atoms: C_13  and  C_14
REMARK                            x       y       z     vdW  Elec       q    Type
REMARK                         _______ _______ _______ _____ _____    ______ ____
ROOT
ATOM      1  C   UNL     1      -0.600  11.253  22.467  0.00  0.00    +0.000 C 
ATOM      2  C   UNL     1      -0.492   9.869  23.119  0.00  0.00    +0.000 C 
ATOM      3  C   UNL     1       0.636   9.254  22.313  0.00  0.00    +0.000 C 
ATOM      4  N   UNL     1       0.414   9.759  20.966  0.00  0.00    +0.000 N 
ATOM      5  C   UNL     1       0.958   9.277  19.801  0.00  0.00    +0.000 C 
ATOM      6  O   UNL     1       0.660   9.727  18.700  0.00  0.00    +0.000 OA
ATOM      7  N   UNL     1       1.828   8.237  19.971  0.00  0.00    +0.000 N 
ATOM      8  C   UNL     1      -0.524  10.885  20.982  0.00  0.00    +0.000 C 
ATOM      9  H   UNL     1       2.288   8.144  20.860  0.00  0.00    +0.000 HD
ENDROOT
BRANCH   1  10
ATOM     10  C   UNL     1      -1.817  12.057  22.921  0.00  0.00    +0.000 C 
BRANCH  10  14
ATOM     11  C   UNL     1      -1.721  16.776  24.639  0.00  0.00    +0.000 C 
ATOM     12  N   UNL     1      -1.378  15.527  24.005  0.00  0.00    +0.000 N 
ATOM     13  C   UNL     1      -2.045  14.341  24.111  0.00  0.00    +0.000 A 
ATOM     14  C   UNL     1      -1.404  13.455  23.267  0.00  0.00    +0.000 A 
ATOM     15  C   UNL     1      -0.337  14.212  22.729  0.00  0.00    +0.000 A 
ATOM     16  N   UNL     1      -0.324  15.471  23.172  0.00  0.00    +0.000 NA
ENDBRANCH  10  14
ENDBRANCH   1  10
BRANCH   7  17
ATOM     17  C   UNL     1       2.495   7.605  18.855  0.00  0.00    +0.000 C 
BRANCH  17  18
ATOM     18  C   UNL     1       2.340   6.124  18.944  0.00  0.00    +0.000 A 
ATOM     19  C   UNL     1       2.449   5.185  17.923  0.00  0.00    +0.000 A 
ATOM     20  N   UNL     1       2.168   3.996  18.512  0.00  0.00    +0.000 N 
ATOM     21  C   UNL     1       2.064   2.679  18.128  0.00  0.00    +0.000 A 
ATOM     22  C   UNL     1       1.725   1.889  19.163  0.00  0.00    +0.000 A 
ATOM     23  S   UNL     1       1.528   2.786  20.681  0.00  0.00    +0.000 S 
ATOM     24  C   UNL     1       1.923   4.250  19.831  0.00  0.00    +0.000 A 
ATOM     25  N   UNL     1       2.019   5.508  20.151  0.00  0.00    +0.000 NA
ENDBRANCH  17  18
ENDBRANCH   7  17
TORSDOF 4
ENDMDL
MODEL 8
REMARK VINA RESULT:      -6.6      2.315      2.968
REMARK  Name = 
REMARK  5 active torsions:
REMARK  status: ('A' for Active; 'I' for Inactive)
REMARK    1  A    between atoms: C_1  and  N_2
REMARK    2  A    between atoms: C_4  and  C_5
REMARK    3  A    between atoms: C_5  and  C_6
REMARK    4  A    between atoms: N_12  and  C_13
REMARK    5  A    between atoms: C_13  and  C_14
REMARK                            x       y       z     vdW  Elec       q    Type
REMARK                         _______ _______ _______ _____ _____    ______ ____
ROOT
ATOM      1  C   UNL     1       2.392   4.971  18.808  0.00  0.00    +0.000 C 
ATOM      2  C   UNL     1       2.650   5.484  20.229  0.00  0.00    +0.000 C 
ATOM      3  C   UNL     1       1.902   6.803  20.204  0.00  0.00    +0.000 C 
ATOM      4  N   UNL     1       2.130   7.303  18.857  0.00  0.00    +0.000 N 
ATOM      5  C   UNL     1       1.935   8.586  18.406  0.00  0.00    +0.000 C 
ATOM      6  O   UNL     1       2.217   8.932  17.265  0.00  0.00    +0.000 OA
ATOM      7  N   UNL     1       1.434   9.445  19.343  0.00  0.00    +0.000 N 
ATOM      8  C   UNL     1       2.641   6.240  17.988  0.00  0.00    +0.000 C 
ATOM      9  H   UNL     1       0.913   9.057  20.111  0.00  0.00    +0.000 HD
ENDROOT
BRANCH   1  10
ATOM     10  C   UNL     1       3.209   3.734  18.437  0.00  0.00    +0.000 C 
BRANCH  10  14
ATOM     11  C   UNL     1       6.934   4.619  15.188  0.00  0.00    +0.000 C 
ATOM     12  N   UNL     1       6.140   4.513  16.387  0.00  0.00    +0.000 N 
ATOM     13  C   UNL     1       4.808   4.227  16.467  0.00  0.00    +0.000 A 
ATOM     14  C   UNL     1       4.505   4.147  17.812  0.00  0.00    +0.000 A 
ATOM     15  C   UNL     1       5.732   4.441  18.453  0.00  0.00    +0.000 A 
ATOM     16  N   UNL     1       6.726   4.658  17.588  0.00  0.00    +0.000 NA
ENDBRANCH  10  14
ENDBRANCH   1  10
BRANCH   7  17
ATOM     17  C   UNL     1       1.165  10.833  19.045  0.00  0.00    +0.000 C 
BRANCH  17  18
ATOM     18  C   UNL     1      -0.029  11.294  19.811  0.00  0.00    +0.000 A 
ATOM     19  C   UNL     1      -1.204  11.853  19.317  0.00  0.00    +0.000 A 
ATOM     20  N   UNL     1      -1.941  12.144  20.418  0.00  0.00    +0.000 N 
ATOM     21  C   UNL     1      -3.160  12.718  20.694  0.00  0.00    +0.000 A 
ATOM     22  C   UNL     1      -3.390  12.776  22.019  0.00  0.00    +0.000 A 
ATOM     23  S   UNL     1      -2.062  12.096  22.979  0.00  0.00    +0.000 S 
ATOM     24  C   UNL     1      -1.214  11.747  21.503  0.00  0.00    +0.000 A 
ATOM     25  N   UNL     1      -0.061  11.222  21.201  0.00  0.00    +0.000 NA
ENDBRANCH  17  18
ENDBRANCH   7  17
TORSDOF 4
ENDMDL
MODEL 9
REMARK VINA RESULT:      -6.6      1.525      1.812
REMARK  Name = 
REMARK  5 active torsions:
REMARK  status: ('A' for Active; 'I' for Inactive)
REMARK    1  A    between atoms: C_1  and  N_2
REMARK    2  A    between atoms: C_4  and  C_5
REMARK    3  A    between atoms: C_5  and  C_6
REMARK    4  A    between atoms: N_12  and  C_13
REMARK    5  A    between atoms: C_13  and  C_14
REMARK                            x       y       z     vdW  Elec       q    Type
REMARK                         _______ _______ _______ _____ _____    ______ ____
ROOT
ATOM      1  C   UNL     1       2.514   5.828  18.376  0.00  0.00    +0.000 C 
ATOM      2  C   UNL     1       2.621   6.105  19.880  0.00  0.00    +0.000 C 
ATOM      3  C   UNL     1       1.751   7.340  20.013  0.00  0.00    +0.000 C 
ATOM      4  N   UNL     1       2.022   8.086  18.793  0.00  0.00    +0.000 N 
ATOM      5  C   UNL     1       1.735   9.406  18.547  0.00  0.00    +0.000 C 
ATOM      6  O   UNL     1       2.061   9.969  17.509  0.00  0.00    +0.000 OA
ATOM      7  N   UNL     1       1.087  10.043  19.569  0.00  0.00    +0.000 N 
ATOM      8  C   UNL     1       2.695   7.238  17.805  0.00  0.00    +0.000 C 
ATOM      9  H   UNL     1       0.554   9.485  20.214  0.00  0.00    +0.000 HD
ENDROOT
BRANCH   1  10
ATOM     10  C   UNL     1       3.472   4.749  17.876  0.00  0.00    +0.000 C 
BRANCH  10  14
ATOM     11  C   UNL     1       7.830   7.245  17.798  0.00  0.00    +0.000 C 
ATOM     12  N   UNL     1       6.664   6.484  17.421  0.00  0.00    +0.000 N 
ATOM     13  C   UNL     1       5.744   5.924  18.258  0.00  0.00    +0.000 A 
ATOM     14  C   UNL     1       4.767   5.372  17.452  0.00  0.00    +0.000 A 
ATOM     15  C   UNL     1       5.226   5.630  16.139  0.00  0.00    +0.000 A 
ATOM     16  N   UNL     1       6.375   6.310  16.120  0.00  0.00    +0.000 NA
ENDBRANCH  10  14
ENDBRANCH   1  10
BRANCH   7  17
ATOM     17  C   UNL     1       0.706  11.434  19.486  0.00  0.00    +0.000 C 
BRANCH  17  18
ATOM     18  C   UNL     1      -0.747  11.543  19.164  0.00  0.00    +0.000 A 
ATOM     19  C   UNL     1      -1.757  12.119  19.930  0.00  0.00    +0.000 A 
ATOM     20  N   UNL     1      -2.894  11.910  19.220  0.00  0.00    +0.000 N 
ATOM     21  C   UNL     1      -4.236  12.172  19.364  0.00  0.00    +0.000 A 
ATOM     22  C   UNL     1      -4.946  11.705  18.320  0.00  0.00    +0.000 A 
ATOM     23  S   UNL     1      -3.933  10.912  17.098  0.00  0.00    +0.000 S 
ATOM     24  C   UNL     1      -2.539  11.252  18.078  0.00  0.00    +0.000 A 
ATOM     25  N   UNL     1      -1.262  11.011  17.984  0.00  0.00    +0.000 NA
ENDBRANCH  17  18
ENDBRANCH   7  17
TORSDOF 4
ENDMDL
