MODEL 1
REMARK VINA RESULT:      -8.4      0.000      0.000
REMARK  Name = 
REMARK  5 active torsions:
REMARK  status: ('A' for Active; 'I' for Inactive)
REMARK    1  A    between atoms: C_2  and  C_11
REMARK    2  A    between atoms: N_3  and  C_4
REMARK    3  A    between atoms: C_4  and  C_5
REMARK    4  A    between atoms: C_14  and  N_15
REMARK    5  A    between atoms: C_19  and  C_20
REMARK                            x       y       z     vdW  Elec       q    Type
REMARK                         _______ _______ _______ _____ _____    ______ ____
ROOT
ATOM      1  C   UNL     1       2.380   7.112  19.360  0.00  0.00    +0.000 A 
ATOM      2  S   UNL     1       2.397   5.520  20.043  0.00  0.00    +0.000 S 
ATOM      3  C   UNL     1       3.472   5.041  18.764  0.00  0.00    +0.000 A 
ATOM      4  C   UNL     1       4.086   3.792  18.537  0.00  0.00    +0.000 A 
ATOM      5  C   UNL     1       4.975   3.633  17.457  0.00  0.00    +0.000 A 
ATOM      6  C   UNL     1       5.250   4.694  16.582  0.00  0.00    +0.000 A 
ATOM      7  C   UNL     1       4.623   5.939  16.788  0.00  0.00    +0.000 A 
ATOM      8  C   UNL     1       3.748   6.098  17.882  0.00  0.00    +0.000 A 
ATOM      9  N   UNL     1       3.083   7.226  18.264  0.00  0.00    +0.000 N 
ATOM     10  O   UNL     1       3.114   8.341  17.670  0.00  0.00    +0.000 OA
ENDROOT
BRANCH   1  12
ATOM     11  O   UNL     1       1.482   8.122  21.286  0.00  0.00    +0.000 OA
ATOM     12  C   UNL     1       1.642   8.140  20.067  0.00  0.00    +0.000 C 
ATOM     13  N   UNL     1       1.129   9.173  19.322  0.00  0.00    +0.000 N 
ATOM     14  H   UNL     1       1.191   9.125  18.306  0.00  0.00    +0.000 HD
BRANCH  13  15
ATOM     15  C   UNL     1       0.335  10.229  19.915  0.00  0.00    +0.000 C 
BRANCH  15  16
ATOM     16  C   UNL     1      -0.871  10.585  19.077  0.00  0.00    +0.000 A 
ATOM     17  C   UNL     1      -1.057  10.002  17.824  0.00  0.00    +0.000 A 
ATOM     18  C   UNL     1      -2.172  10.358  17.071  0.00  0.00    +0.000 A 
ATOM     19  C   UNL     1      -3.068  11.287  17.584  0.00  0.00    +0.000 A 
ATOM     20  C   UNL     1      -2.807  11.828  18.833  0.00  0.00    +0.000 A 
ATOM     21  N   UNL     1      -1.731  11.505  19.584  0.00  0.00    +0.000 NA
ENDBRANCH  15  16
ENDBRANCH  13  15
ENDBRANCH   1  12
BRANCH   6  22
ATOM     22  C   UNL     1       6.220   4.515  15.432  0.00  0.00    +0.000 C 
ATOM     23  F   UNL     1       6.101   5.478  14.477  0.00  0.00    +0.000 F 
ATOM     24  F   UNL     1       7.516   4.546  15.839  0.00  0.00    +0.000 F 
ATOM     25  F   UNL     1       6.047   3.327  14.793  0.00  0.00    +0.000 F 
ENDBRANCH   6  22
BRANCH   4  26
ATOM     26  N   UNL     1       3.859   2.638  19.389  0.00  0.00    +0.000 N 
ATOM     27  O   UNL     1       2.781   2.047  19.260  0.00  0.00    +0.000 OA
ATOM     28  O   UNL     1       4.777   2.321  20.155  0.00  0.00    +0.000 OA
ENDBRANCH   4  26
TORSDOF 5
ENDMDL
MODEL 2
REMARK VINA RESULT:      -8.2      0.540      1.175
REMARK  Name = 
REMARK  5 active torsions:
REMARK  status: ('A' for Active; 'I' for Inactive)
REMARK    1  A    between atoms: C_2  and  C_11
REMARK    2  A    between atoms: N_3  and  C_4
REMARK    3  A    between atoms: C_4  and  C_5
REMARK    4  A    between atoms: C_14  and  N_15
REMARK    5  A    between atoms: C_19  and  C_20
REMARK                            x       y       z     vdW  Elec       q    Type
REMARK                         _______ _______ _______ _____ _____    ______ ____
ROOT
ATOM      1  C   UNL     1       2.375   7.086  19.373  0.00  0.00    +0.000 A 
ATOM      2  S   UNL     1       2.422   5.503  20.074  0.00  0.00    +0.000 S 
ATOM      3  C   UNL     1       3.494   5.025  18.793  0.00  0.00    +0.000 A 
ATOM      4  C   UNL     1       4.126   3.783  18.575  0.00  0.00    +0.000 A 
ATOM      5  C   UNL     1       5.009   3.624  17.490  0.00  0.00    +0.000 A 
ATOM      6  C   UNL     1       5.261   4.679  16.601  0.00  0.00    +0.000 A 
ATOM      7  C   UNL     1       4.615   5.917  16.796  0.00  0.00    +0.000 A 
ATOM      8  C   UNL     1       3.746   6.075  17.896  0.00  0.00    +0.000 A 
ATOM      9  N   UNL     1       3.067   7.197  18.269  0.00  0.00    +0.000 N 
ATOM     10  O   UNL     1       3.076   8.305  17.663  0.00  0.00    +0.000 OA
ENDROOT
BRANCH   1  12
ATOM     11  O   UNL     1       1.339   8.024  21.265  0.00  0.00    +0.000 OA
ATOM     12  C   UNL     1       1.626   8.110  20.073  0.00  0.00    +0.000 C 
ATOM     13  N   UNL     1       1.253   9.220  19.356  0.00  0.00    +0.000 N 
ATOM     14  H   UNL     1       1.417   9.233  18.350  0.00  0.00    +0.000 HD
BRANCH  13  15
ATOM     15  C   UNL     1       0.461  10.284  19.940  0.00  0.00    +0.000 C 
BRANCH  15  16
ATOM     16  C   UNL     1      -0.747  10.631  19.102  0.00  0.00    +0.000 A 
ATOM     17  C   UNL     1      -1.710  11.518  19.583  0.00  0.00    +0.000 A 
ATOM     18  C   UNL     1      -2.817  11.809  18.791  0.00  0.00    +0.000 A 
ATOM     19  C   UNL     1      -2.937  11.207  17.546  0.00  0.00    +0.000 A 
ATOM     20  C   UNL     1      -1.943  10.329  17.145  0.00  0.00    +0.000 A 
ATOM     21  N   UNL     1      -0.859  10.024  17.892  0.00  0.00    +0.000 NA
ENDBRANCH  15  16
ENDBRANCH  13  15
ENDBRANCH   1  12
BRANCH   6  22
ATOM     22  C   UNL     1       6.224   4.502  15.445  0.00  0.00    +0.000 C 
ATOM     23  F   UNL     1       6.061   3.322  14.787  0.00  0.00    +0.000 F 
ATOM     24  F   UNL     1       6.093   5.478  14.509  0.00  0.00    +0.000 F 
ATOM     25  F   UNL     1       7.523   4.531  15.849  0.00  0.00    +0.000 F 
ENDBRANCH   6  22
BRANCH   4  26
ATOM     26  N   UNL     1       3.923   2.636  19.443  0.00  0.00    +0.000 N 
ATOM     27  O   UNL     1       2.831   2.062  19.372  0.00  0.00    +0.000 OA
ATOM     28  O   UNL     1       4.874   2.306  20.163  0.00  0.00    +0.000 OA
ENDBRANCH   4  26
TORSDOF 5
ENDMDL
MODEL 3
REMARK VINA RESULT:      -7.9      1.609      2.299
REMARK  Name = 
REMARK  5 active torsions:
REMARK  status: ('A' for Active; 'I' for Inactive)
REMARK    1  A    between atoms: C_2  and  C_11
REMARK    2  A    between atoms: N_3  and  C_4
REMARK    3  A    between atoms: C_4  and  C_5
REMARK    4  A    between atoms: C_14  and  N_15
REMARK    5  A    between atoms: C_19  and  C_20
REMARK                            x       y       z     vdW  Elec       q    Type
REMARK                         _______ _______ _______ _____ _____    ______ ____
ROOT
ATOM      1  C   UNL     1       2.337   7.111  19.492  0.00  0.00    +0.000 A 
ATOM      2  S   UNL     1       2.365   5.517  20.169  0.00  0.00    +0.000 S 
ATOM      3  C   UNL     1       3.397   5.036  18.856  0.00  0.00    +0.000 A 
ATOM      4  C   UNL     1       3.996   3.784  18.605  0.00  0.00    +0.000 A 
ATOM      5  C   UNL     1       4.850   3.623  17.498  0.00  0.00    +0.000 A 
ATOM      6  C   UNL     1       5.105   4.685  16.619  0.00  0.00    +0.000 A 
ATOM      7  C   UNL     1       4.492   5.933  16.848  0.00  0.00    +0.000 A 
ATOM      8  C   UNL     1       3.652   6.094  17.969  0.00  0.00    +0.000 A 
ATOM      9  N   UNL     1       3.007   7.224  18.375  0.00  0.00    +0.000 N 
ATOM     10  O   UNL     1       3.027   8.341  17.785  0.00  0.00    +0.000 OA
ENDROOT
BRANCH   1  12
ATOM     11  O   UNL     1       1.507   8.121  21.448  0.00  0.00    +0.000 OA
ATOM     12  C   UNL     1       1.628   8.141  20.225  0.00  0.00    +0.000 C 
ATOM     13  N   UNL     1       1.097   9.178  19.500  0.00  0.00    +0.000 N 
ATOM     14  H   UNL     1       1.125   9.132  18.481  0.00  0.00    +0.000 HD
BRANCH  13  15
ATOM     15  C   UNL     1       0.327  10.237  20.121  0.00  0.00    +0.000 C 
BRANCH  15  16
ATOM     16  C   UNL     1       0.997  11.586  19.999  0.00  0.00    +0.000 A 
ATOM     17  C   UNL     1       1.606  11.967  18.803  0.00  0.00    +0.000 A 
ATOM     18  C   UNL     1       2.224  13.212  18.727  0.00  0.00    +0.000 A 
ATOM     19  C   UNL     1       2.224  14.039  19.842  0.00  0.00    +0.000 A 
ATOM     20  C   UNL     1       1.607  13.583  20.996  0.00  0.00    +0.000 A 
ATOM     21  N   UNL     1       1.002  12.379  21.101  0.00  0.00    +0.000 NA
ENDBRANCH  15  16
ENDBRANCH  13  15
ENDBRANCH   1  12
BRANCH   6  22
ATOM     22  C   UNL     1       6.038   4.505  15.439  0.00  0.00    +0.000 C 
ATOM     23  F   UNL     1       6.109   3.218  15.003  0.00  0.00    +0.000 F 
ATOM     24  F   UNL     1       5.662   5.247  14.365  0.00  0.00    +0.000 F 
ATOM     25  F   UNL     1       7.315   4.874  15.731  0.00  0.00    +0.000 F 
ENDBRANCH   6  22
BRANCH   4  26
ATOM     26  N   UNL     1       3.788   2.628  19.460  0.00  0.00    +0.000 N 
ATOM     27  O   UNL     1       2.684   2.074  19.399  0.00  0.00    +0.000 OA
ATOM     28  O   UNL     1       4.744   2.272  20.160  0.00  0.00    +0.000 OA
ENDBRANCH   4  26
TORSDOF 5
ENDMDL
MODEL 4
REMARK VINA RESULT:      -7.8      1.372      1.906
REMARK  Name = 
REMARK  5 active torsions:
REMARK  status: ('A' for Active; 'I' for Inactive)
REMARK    1  A    between atoms: C_2  and  C_11
REMARK    2  A    between atoms: N_3  and  C_4
REMARK    3  A    between atoms: C_4  and  C_5
REMARK    4  A    between atoms: C_14  and  N_15
REMARK    5  A    between atoms: C_19  and  C_20
REMARK                            x       y       z     vdW  Elec       q    Type
REMARK                         _______ _______ _______ _____ _____    ______ ____
ROOT
ATOM      1  C   UNL     1       2.246   7.188  19.579  0.00  0.00    +0.000 A 
ATOM      2  S   UNL     1       2.296   5.583  20.230  0.00  0.00    +0.000 S 
ATOM      3  C   UNL     1       3.354   5.143  18.924  0.00  0.00    +0.000 A 
ATOM      4  C   UNL     1       3.981   3.908  18.662  0.00  0.00    +0.000 A 
ATOM      5  C   UNL     1       4.853   3.781  17.564  0.00  0.00    +0.000 A 
ATOM      6  C   UNL     1       5.099   4.862  16.705  0.00  0.00    +0.000 A 
ATOM      7  C   UNL     1       4.459   6.094  16.946  0.00  0.00    +0.000 A 
ATOM      8  C   UNL     1       3.601   6.221  18.058  0.00  0.00    +0.000 A 
ATOM      9  N   UNL     1       2.928   7.331  18.473  0.00  0.00    +0.000 N 
ATOM     10  O   UNL     1       2.934   8.458  17.901  0.00  0.00    +0.000 OA
ENDROOT
BRANCH   1  12
ATOM     11  O   UNL     1       1.501   8.240  21.547  0.00  0.00    +0.000 OA
ATOM     12  C   UNL     1       1.507   8.191  20.318  0.00  0.00    +0.000 C 
ATOM     13  N   UNL     1       0.811   9.125  19.591  0.00  0.00    +0.000 N 
ATOM     14  H   UNL     1       0.751   9.015  18.579  0.00  0.00    +0.000 HD
BRANCH  13  15
ATOM     15  C   UNL     1      -0.001  10.145  20.224  0.00  0.00    +0.000 C 
BRANCH  15  16
ATOM     16  C   UNL     1       0.296  11.529  19.695  0.00  0.00    +0.000 A 
ATOM     17  C   UNL     1      -0.639  12.200  18.907  0.00  0.00    +0.000 A 
ATOM     18  C   UNL     1      -0.331  13.470  18.427  0.00  0.00    +0.000 A 
ATOM     19  C   UNL     1       0.899  14.033  18.739  0.00  0.00    +0.000 A 
ATOM     20  C   UNL     1       1.777  13.297  19.518  0.00  0.00    +0.000 A 
ATOM     21  N   UNL     1       1.508  12.062  19.996  0.00  0.00    +0.000 NA
ENDBRANCH  15  16
ENDBRANCH  13  15
ENDBRANCH   1  12
BRANCH   6  22
ATOM     22  C   UNL     1       6.050   4.719  15.535  0.00  0.00    +0.000 C 
ATOM     23  F   UNL     1       7.358   4.859  15.887  0.00  0.00    +0.000 F 
ATOM     24  F   UNL     1       5.950   3.505  14.932  0.00  0.00    +0.000 F 
ATOM     25  F   UNL     1       5.819   5.647  14.568  0.00  0.00    +0.000 F 
ENDBRANCH   6  22
BRANCH   4  26
ATOM     26  N   UNL     1       3.784   2.734  19.495  0.00  0.00    +0.000 N 
ATOM     27  O   UNL     1       2.675   2.190  19.448  0.00  0.00    +0.000 OA
ATOM     28  O   UNL     1       4.753   2.356  20.164  0.00  0.00    +0.000 OA
ENDBRANCH   4  26
TORSDOF 5
ENDMDL
MODEL 5
REMARK VINA RESULT:      -7.8      0.720      1.310
REMARK  Name = 
REMARK  5 active torsions:
REMARK  status: ('A' for Active; 'I' for Inactive)
REMARK    1  A    between atoms: C_2  and  C_11
REMARK    2  A    between atoms: N_3  and  C_4
REMARK    3  A    between atoms: C_4  and  C_5
REMARK    4  A    between atoms: C_14  and  N_15
REMARK    5  A    between atoms: C_19  and  C_20
REMARK                            x       y       z     vdW  Elec       q    Type
REMARK                         _______ _______ _______ _____ _____    ______ ____
ROOT
ATOM      1  C   UNL     1       2.461   6.866  19.394  0.00  0.00    +0.000 A 
ATOM      2  S   UNL     1       2.516   5.245  20.003  0.00  0.00    +0.000 S 
ATOM      3  C   UNL     1       3.562   4.839  18.677  0.00  0.00    +0.000 A 
ATOM      4  C   UNL     1       4.185   3.610  18.377  0.00  0.00    +0.000 A 
ATOM      5  C   UNL     1       5.047   3.511  17.268  0.00  0.00    +0.000 A 
ATOM      6  C   UNL     1       5.286   4.613  16.436  0.00  0.00    +0.000 A 
ATOM      7  C   UNL     1       4.649   5.839  16.713  0.00  0.00    +0.000 A 
ATOM      8  C   UNL     1       3.801   5.938  17.836  0.00  0.00    +0.000 A 
ATOM      9  N   UNL     1       3.133   7.038  18.286  0.00  0.00    +0.000 N 
ATOM     10  O   UNL     1       3.134   8.179  17.743  0.00  0.00    +0.000 OA
ENDROOT
BRANCH   1  12
ATOM     11  O   UNL     1       1.347   7.642  21.315  0.00  0.00    +0.000 OA
ATOM     12  C   UNL     1       1.729   7.851  20.165  0.00  0.00    +0.000 C 
ATOM     13  N   UNL     1       1.484   9.063  19.570  0.00  0.00    +0.000 N 
ATOM     14  H   UNL     1       1.725   9.186  18.587  0.00  0.00    +0.000 HD
BRANCH  13  15
ATOM     15  C   UNL     1       0.721  10.104  20.228  0.00  0.00    +0.000 C 
BRANCH  15  16
ATOM     16  C   UNL     1      -0.303  10.735  19.314  0.00  0.00    +0.000 A 
ATOM     17  C   UNL     1      -0.203  12.080  18.962  0.00  0.00    +0.000 A 
ATOM     18  C   UNL     1      -1.169  12.634  18.126  0.00  0.00    +0.000 A 
ATOM     19  C   UNL     1      -2.209  11.835  17.670  0.00  0.00    +0.000 A 
ATOM     20  C   UNL     1      -2.244  10.511  18.075  0.00  0.00    +0.000 A 
ATOM     21  N   UNL     1      -1.323   9.946  18.887  0.00  0.00    +0.000 NA
ENDBRANCH  15  16
ENDBRANCH  13  15
ENDBRANCH   1  12
BRANCH   6  22
ATOM     22  C   UNL     1       6.227   4.500  15.253  0.00  0.00    +0.000 C 
ATOM     23  F   UNL     1       7.540   4.555  15.606  0.00  0.00    +0.000 F 
ATOM     24  F   UNL     1       6.066   3.334  14.575  0.00  0.00    +0.000 F 
ATOM     25  F   UNL     1       6.038   5.498  14.349  0.00  0.00    +0.000 F 
ENDBRANCH   6  22
BRANCH   4  26
ATOM     26  N   UNL     1       3.996   2.415  19.182  0.00  0.00    +0.000 N 
ATOM     27  O   UNL     1       4.789   2.230  20.111  0.00  0.00    +0.000 OA
ATOM     28  O   UNL     1       3.035   1.692  18.889  0.00  0.00    +0.000 OA
ENDBRANCH   4  26
TORSDOF 5
ENDMDL
MODEL 6
REMARK VINA RESULT:      -7.8      4.464      8.494
REMARK  Name = 
REMARK  5 active torsions:
REMARK  status: ('A' for Active; 'I' for Inactive)
REMARK    1  A    between atoms: C_2  and  C_11
REMARK    2  A    between atoms: N_3  and  C_4
REMARK    3  A    between atoms: C_4  and  C_5
REMARK    4  A    between atoms: C_14  and  N_15
REMARK    5  A    between atoms: C_19  and  C_20
REMARK                            x       y       z     vdW  Elec       q    Type
REMARK                         _______ _______ _______ _____ _____    ______ ____
ROOT
ATOM      1  C   UNL     1       2.007   7.546  19.395  0.00  0.00    +0.000 A 
ATOM      2  S   UNL     1       1.405   7.776  21.003  0.00  0.00    +0.000 S 
ATOM      3  C   UNL     1       0.962   9.393  20.549  0.00  0.00    +0.000 A 
ATOM      4  C   UNL     1       0.311  10.386  21.309  0.00  0.00    +0.000 A 
ATOM      5  C   UNL     1      -0.005  11.626  20.722  0.00  0.00    +0.000 A 
ATOM      6  C   UNL     1       0.336  11.906  19.391  0.00  0.00    +0.000 A 
ATOM      7  C   UNL     1       1.009  10.928  18.631  0.00  0.00    +0.000 A 
ATOM      8  C   UNL     1       1.305   9.681  19.218  0.00  0.00    +0.000 A 
ATOM      9  N   UNL     1       1.910   8.606  18.637  0.00  0.00    +0.000 N 
ATOM     10  O   UNL     1       2.347   8.552  17.452  0.00  0.00    +0.000 OA
ENDROOT
BRANCH   1  12
ATOM     11  O   UNL     1       1.961   5.508  18.219  0.00  0.00    +0.000 OA
ATOM     12  C   UNL     1       2.512   6.233  19.047  0.00  0.00    +0.000 C 
ATOM     13  N   UNL     1       3.664   5.815  19.665  0.00  0.00    +0.000 N 
ATOM     14  H   UNL     1       4.055   6.386  20.414  0.00  0.00    +0.000 HD
BRANCH  13  15
ATOM     15  C   UNL     1       4.233   4.503  19.429  0.00  0.00    +0.000 C 
BRANCH  15  16
ATOM     16  C   UNL     1       5.291   4.518  18.351  0.00  0.00    +0.000 A 
ATOM     17  C   UNL     1       4.946   4.295  17.018  0.00  0.00    +0.000 A 
ATOM     18  C   UNL     1       5.946   4.305  16.050  0.00  0.00    +0.000 A 
ATOM     19  C   UNL     1       7.261   4.530  16.436  0.00  0.00    +0.000 A 
ATOM     20  C   UNL     1       7.523   4.732  17.781  0.00  0.00    +0.000 A 
ATOM     21  N   UNL     1       6.575   4.725  18.743  0.00  0.00    +0.000 NA
ENDBRANCH  15  16
ENDBRANCH  13  15
ENDBRANCH   1  12
BRANCH   6  22
ATOM     22  C   UNL     1      -0.021  13.238  18.765  0.00  0.00    +0.000 C 
ATOM     23  F   UNL     1       1.066  13.948  18.358  0.00  0.00    +0.000 F 
ATOM     24  F   UNL     1      -0.813  13.099  17.669  0.00  0.00    +0.000 F 
ATOM     25  F   UNL     1      -0.698  14.046  19.626  0.00  0.00    +0.000 F 
ENDBRANCH   6  22
BRANCH   4  26
ATOM     26  N   UNL     1      -0.078  10.186  22.694  0.00  0.00    +0.000 N 
ATOM     27  O   UNL     1      -1.252  10.437  22.991  0.00  0.00    +0.000 OA
ATOM     28  O   UNL     1       0.791   9.753  23.461  0.00  0.00    +0.000 OA
ENDBRANCH   4  26
TORSDOF 5
ENDMDL
MODEL 7
REMARK VINA RESULT:      -7.8      0.750      1.140
REMARK  Name = 
REMARK  5 active torsions:
REMARK  status: ('A' for Active; 'I' for Inactive)
REMARK    1  A    between atoms: C_2  and  C_11
REMARK    2  A    between atoms: N_3  and  C_4
REMARK    3  A    between atoms: C_4  and  C_5
REMARK    4  A    between atoms: C_14  and  N_15
REMARK    5  A    between atoms: C_19  and  C_20
REMARK                            x       y       z     vdW  Elec       q    Type
REMARK                         _______ _______ _______ _____ _____    ______ ____
ROOT
ATOM      1  C   UNL     1       2.197   7.627  19.103  0.00  0.00    +0.000 A 
ATOM      2  S   UNL     1       2.199   6.153  20.014  0.00  0.00    +0.000 S 
ATOM      3  C   UNL     1       3.332   5.507  18.866  0.00  0.00    +0.000 A 
ATOM      4  C   UNL     1       3.966   4.248  18.851  0.00  0.00    +0.000 A 
ATOM      5  C   UNL     1       4.902   3.944  17.844  0.00  0.00    +0.000 A 
ATOM      6  C   UNL     1       5.205   4.868  16.835  0.00  0.00    +0.000 A 
ATOM      7  C   UNL     1       4.559   6.120  16.827  0.00  0.00    +0.000 A 
ATOM      8  C   UNL     1       3.636   6.426  17.849  0.00  0.00    +0.000 A 
ATOM      9  N   UNL     1       2.945   7.587  18.032  0.00  0.00    +0.000 N 
ATOM     10  O   UNL     1       2.992   8.603  17.282  0.00  0.00    +0.000 OA
ENDROOT
BRANCH   1  12
ATOM     11  O   UNL     1       1.342   8.990  20.819  0.00  0.00    +0.000 OA
ATOM     12  C   UNL     1       1.420   8.736  19.618  0.00  0.00    +0.000 C 
ATOM     13  N   UNL     1       0.772   9.530  18.706  0.00  0.00    +0.000 N 
ATOM     14  H   UNL     1       0.771   9.252  17.725  0.00  0.00    +0.000 HD
BRANCH  13  15
ATOM     15  C   UNL     1      -0.071  10.637  19.109  0.00  0.00    +0.000 C 
BRANCH  15  16
ATOM     16  C   UNL     1      -1.385  10.663  18.365  0.00  0.00    +0.000 A 
ATOM     17  C   UNL     1      -1.599   9.815  17.278  0.00  0.00    +0.000 A 
ATOM     18  C   UNL     1      -2.817   9.871  16.606  0.00  0.00    +0.000 A 
ATOM     19  C   UNL     1      -3.785  10.771  17.031  0.00  0.00    +0.000 A 
ATOM     20  C   UNL     1      -3.492  11.587  18.111  0.00  0.00    +0.000 A 
ATOM     21  N   UNL     1      -2.318  11.558  18.781  0.00  0.00    +0.000 NA
ENDBRANCH  15  16
ENDBRANCH  13  15
ENDBRANCH   1  12
BRANCH   6  22
ATOM     22  C   UNL     1       6.225   4.537  15.764  0.00  0.00    +0.000 C 
ATOM     23  F   UNL     1       6.043   3.306  15.213  0.00  0.00    +0.000 F 
ATOM     24  F   UNL     1       6.197   5.421  14.732  0.00  0.00    +0.000 F 
ATOM     25  F   UNL     1       7.498   4.550  16.245  0.00  0.00    +0.000 F 
ENDBRANCH   6  22
BRANCH   4  26
ATOM     26  N   UNL     1       3.713   3.228  19.855  0.00  0.00    +0.000 N 
ATOM     27  O   UNL     1       4.476   2.256  19.874  0.00  0.00    +0.000 OA
ATOM     28  O   UNL     1       2.769   3.430  20.629  0.00  0.00    +0.000 OA
ENDBRANCH   4  26
TORSDOF 5
ENDMDL
MODEL 8
REMARK VINA RESULT:      -7.7      1.334      1.633
REMARK  Name = 
REMARK  5 active torsions:
REMARK  status: ('A' for Active; 'I' for Inactive)
REMARK    1  A    between atoms: C_2  and  C_11
REMARK    2  A    between atoms: N_3  and  C_4
REMARK    3  A    between atoms: C_4  and  C_5
REMARK    4  A    between atoms: C_14  and  N_15
REMARK    5  A    between atoms: C_19  and  C_20
REMARK                            x       y       z     vdW  Elec       q    Type
REMARK                         _______ _______ _______ _____ _____    ______ ____
ROOT
ATOM      1  C   UNL     1       2.253   7.115  19.608  0.00  0.00    +0.000 A 
ATOM      2  S   UNL     1       2.297   5.514  20.269  0.00  0.00    +0.000 S 
ATOM      3  C   UNL     1       3.351   5.062  18.964  0.00  0.00    +0.000 A 
ATOM      4  C   UNL     1       3.972   3.822  18.708  0.00  0.00    +0.000 A 
ATOM      5  C   UNL     1       4.842   3.685  17.610  0.00  0.00    +0.000 A 
ATOM      6  C   UNL     1       5.091   4.760  16.744  0.00  0.00    +0.000 A 
ATOM      7  C   UNL     1       4.456   5.996  16.978  0.00  0.00    +0.000 A 
ATOM      8  C   UNL     1       3.601   6.133  18.090  0.00  0.00    +0.000 A 
ATOM      9  N   UNL     1       2.933   7.249  18.500  0.00  0.00    +0.000 N 
ATOM     10  O   UNL     1       2.943   8.372  17.921  0.00  0.00    +0.000 OA
ENDROOT
BRANCH   1  12
ATOM     11  O   UNL     1       1.490   8.164  21.570  0.00  0.00    +0.000 OA
ATOM     12  C   UNL     1       1.518   8.126  20.341  0.00  0.00    +0.000 C 
ATOM     13  N   UNL     1       0.854   9.079  19.610  0.00  0.00    +0.000 N 
ATOM     14  H   UNL     1       0.811   8.979  18.596  0.00  0.00    +0.000 HD
BRANCH  13  15
ATOM     15  C   UNL     1       0.050  10.109  20.236  0.00  0.00    +0.000 C 
BRANCH  15  16
ATOM     16  C   UNL     1       0.275  11.471  19.621  0.00  0.00    +0.000 A 
ATOM     17  C   UNL     1       1.528  11.821  19.118  0.00  0.00    +0.000 A 
ATOM     18  C   UNL     1       1.705  13.087  18.568  0.00  0.00    +0.000 A 
ATOM     19  C   UNL     1       0.634  13.970  18.537  0.00  0.00    +0.000 A 
ATOM     20  C   UNL     1      -0.575  13.550  19.067  0.00  0.00    +0.000 A 
ATOM     21  N   UNL     1      -0.777  12.329  19.611  0.00  0.00    +0.000 NA
ENDBRANCH  15  16
ENDBRANCH  13  15
ENDBRANCH   1  12
BRANCH   6  22
ATOM     22  C   UNL     1       6.040   4.606  15.573  0.00  0.00    +0.000 C 
ATOM     23  F   UNL     1       5.737   5.420  14.526  0.00  0.00    +0.000 F 
ATOM     24  F   UNL     1       7.326   4.887  15.910  0.00  0.00    +0.000 F 
ATOM     25  F   UNL     1       6.043   3.339  15.077  0.00  0.00    +0.000 F 
ENDBRANCH   6  22
BRANCH   4  26
ATOM     26  N   UNL     1       3.771   2.654  19.549  0.00  0.00    +0.000 N 
ATOM     27  O   UNL     1       2.646   2.143  19.542  0.00  0.00    +0.000 OA
ATOM     28  O   UNL     1       4.753   2.248  20.183  0.00  0.00    +0.000 OA
ENDBRANCH   4  26
TORSDOF 5
ENDMDL
MODEL 9
REMARK VINA RESULT:      -7.7      3.203      3.992
REMARK  Name = 
REMARK  5 active torsions:
REMARK  status: ('A' for Active; 'I' for Inactive)
REMARK    1  A    between atoms: C_2  and  C_11
REMARK    2  A    between atoms: N_3  and  C_4
REMARK    3  A    between atoms: C_4  and  C_5
REMARK    4  A    between atoms: C_14  and  N_15
REMARK    5  A    between atoms: C_19  and  C_20
REMARK                            x       y       z     vdW  Elec       q    Type
REMARK                         _______ _______ _______ _____ _____    ______ ____
ROOT
ATOM      1  C   UNL     1       1.943   8.526  18.825  0.00  0.00    +0.000 A 
ATOM      2  S   UNL     1       3.040   7.878  17.651  0.00  0.00    +0.000 S 
ATOM      3  C   UNL     1       3.063   6.401  18.566  0.00  0.00    +0.000 A 
ATOM      4  C   UNL     1       3.735   5.192  18.291  0.00  0.00    +0.000 A 
ATOM      5  C   UNL     1       3.573   4.087  19.147  0.00  0.00    +0.000 A 
ATOM      6  C   UNL     1       2.764   4.169  20.290  0.00  0.00    +0.000 A 
ATOM      7  C   UNL     1       2.107   5.380  20.586  0.00  0.00    +0.000 A 
ATOM      8  C   UNL     1       2.258   6.478  19.714  0.00  0.00    +0.000 A 
ATOM      9  N   UNL     1       1.678   7.708  19.810  0.00  0.00    +0.000 N 
ATOM     10  O   UNL     1       0.909   8.094  20.735  0.00  0.00    +0.000 OA
ENDROOT
BRANCH   1  12
ATOM     11  O   UNL     1       2.116  10.788  18.204  0.00  0.00    +0.000 OA
ATOM     12  C   UNL     1       1.415   9.855  18.592  0.00  0.00    +0.000 C 
ATOM     13  N   UNL     1       0.072  10.046  18.801  0.00  0.00    +0.000 N 
ATOM     14  H   UNL     1      -0.475   9.289  19.210  0.00  0.00    +0.000 HD
BRANCH  13  15
ATOM     15  C   UNL     1      -0.555  11.343  18.645  0.00  0.00    +0.000 C 
BRANCH  15  16
ATOM     16  C   UNL     1      -1.959  11.243  18.097  0.00  0.00    +0.000 A 
ATOM     17  C   UNL     1      -2.197  10.620  16.872  0.00  0.00    +0.000 A 
ATOM     18  C   UNL     1      -3.501  10.554  16.389  0.00  0.00    +0.000 A 
ATOM     19  C   UNL     1      -4.530  11.113  17.136  0.00  0.00    +0.000 A 
ATOM     20  C   UNL     1      -4.210  11.723  18.337  0.00  0.00    +0.000 A 
ATOM     21  N   UNL     1      -2.954  11.806  18.830  0.00  0.00    +0.000 NA
ENDBRANCH  15  16
ENDBRANCH  13  15
ENDBRANCH   1  12
BRANCH   6  22
ATOM     22  C   UNL     1       2.584   2.968  21.197  0.00  0.00    +0.000 C 
ATOM     23  F   UNL     1       1.616   2.113  20.769  0.00  0.00    +0.000 F 
ATOM     24  F   UNL     1       3.719   2.230  21.308  0.00  0.00    +0.000 F 
ATOM     25  F   UNL     1       2.236   3.328  22.462  0.00  0.00    +0.000 F 
ENDBRANCH   6  22
BRANCH   4  26
ATOM     26  N   UNL     1       4.594   5.017  17.132  0.00  0.00    +0.000 N 
ATOM     27  O   UNL     1       5.577   5.760  17.043  0.00  0.00    +0.000 OA
ATOM     28  O   UNL     1       4.288   4.115  16.342  0.00  0.00    +0.000 OA
ENDBRANCH   4  26
TORSDOF 5
ENDMDL
