MODEL 1
REMARK VINA RESULT:      -8.6      0.000      0.000
REMARK  Name = 
REMARK  8 active torsions:
REMARK  status: ('A' for Active; 'I' for Inactive)
REMARK    1  A    between atoms: C_1  and  C_2
REMARK    2  A    between atoms: N_4  and  C_5
REMARK    3  A    between atoms: C_11  and  C_12
REMARK    4  A    between atoms: C_13  and  C_14
REMARK    5  A    between atoms: C_14  and  O_16
REMARK    6  A    between atoms: O_16  and  C_17
REMARK    7  A    between atoms: C_17  and  C_18
REMARK    8  A    between atoms: N_23  and  C_24
REMARK                            x       y       z     vdW  Elec       q    Type
REMARK                         _______ _______ _______ _____ _____    ______ ____
ROOT
ATOM      1  C   UNL     1       5.000   4.487  19.254  0.00  0.00    +0.000 C 
ATOM      2  O   UNL     1       4.825   3.462  19.905  0.00  0.00    +0.000 OA
ENDROOT
BRANCH   1   9
ATOM      3  C   UNL     1       8.102   5.583  19.073  0.00  0.00    +0.000 C 
ATOM      4  C   UNL     1       7.229   5.026  18.005  0.00  0.00    +0.000 A 
ATOM      5  N   UNL     1       7.691   4.920  16.753  0.00  0.00    +0.000 NA
ATOM      6  N   UNL     1       6.619   4.547  16.006  0.00  0.00    +0.000 N 
ATOM      7  C   UNL     1       5.546   4.203  16.817  0.00  0.00    +0.000 A 
ATOM      8  C   UNL     1       4.301   3.519  16.366  0.00  0.00    +0.000 C 
ATOM      9  C   UNL     1       5.892   4.565  18.112  0.00  0.00    +0.000 A 
BRANCH   6  10
ATOM     10  C   UNL     1       6.701   4.510  14.586  0.00  0.00    +0.000 A 
ATOM     11  C   UNL     1       7.596   5.354  13.917  0.00  0.00    +0.000 A 
ATOM     12  C   UNL     1       7.787   5.207  12.540  0.00  0.00    +0.000 A 
ATOM     13  C   UNL     1       7.067   4.250  11.825  0.00  0.00    +0.000 A 
ATOM     14  C   UNL     1       6.115   3.467  12.475  0.00  0.00    +0.000 A 
ATOM     15  C   UNL     1       5.920   3.610  13.847  0.00  0.00    +0.000 A 
ENDBRANCH   6  10
ENDBRANCH   1   9
BRANCH   1  16
ATOM     16  O   UNL     1       4.283   5.623  19.465  0.00  0.00    +0.000 OA
BRANCH  16  17
ATOM     17  C   UNL     1       2.991   5.384  20.035  0.00  0.00    +0.000 C 
BRANCH  17  18
ATOM     18  C   UNL     1       2.199   6.673  19.906  0.00  0.00    +0.000 C 
ATOM     19  O   UNL     1       1.438   7.046  20.801  0.00  0.00    +0.000 OA
ATOM     20  N   UNL     1       2.476   7.418  18.772  0.00  0.00    +0.000 N 
ATOM     21  C   UNL     1       1.932   8.626  18.402  0.00  0.00    +0.000 C 
ATOM     22  O   UNL     1       2.207   9.123  17.314  0.00  0.00    +0.000 OA
ATOM     23  N   UNL     1       1.095   9.197  19.311  0.00  0.00    +0.000 N 
ATOM     24  H   UNL     1       3.137   7.060  18.093  0.00  0.00    +0.000 HD
ATOM     25  H   UNL     1       1.045   8.753  20.228  0.00  0.00    +0.000 HD
BRANCH  23  26
ATOM     26  C   UNL     1       0.437  10.473  19.121  0.00  0.00    +0.000 C 
ATOM     27  C   UNL     1      -0.849  10.335  18.315  0.00  0.00    +0.000 C 
ATOM     28  C   UNL     1      -1.608  11.617  18.622  0.00  0.00    +0.000 C 
ATOM     29  C   UNL     1      -1.183  12.027  20.030  0.00  0.00    +0.000 C 
ATOM     30  C   UNL     1      -0.037  11.100  20.428  0.00  0.00    +0.000 C 
ENDBRANCH  23  26
ENDBRANCH  17  18
ENDBRANCH  16  17
ENDBRANCH   1  16
TORSDOF 6
ENDMDL
MODEL 2
REMARK VINA RESULT:      -8.6      5.834      7.816
REMARK  Name = 
REMARK  8 active torsions:
REMARK  status: ('A' for Active; 'I' for Inactive)
REMARK    1  A    between atoms: C_1  and  C_2
REMARK    2  A    between atoms: N_4  and  C_5
REMARK    3  A    between atoms: C_11  and  C_12
REMARK    4  A    between atoms: C_13  and  C_14
REMARK    5  A    between atoms: C_14  and  O_16
REMARK    6  A    between atoms: O_16  and  C_17
REMARK    7  A    between atoms: C_17  and  C_18
REMARK    8  A    between atoms: N_23  and  C_24
REMARK                            x       y       z     vdW  Elec       q    Type
REMARK                         _______ _______ _______ _____ _____    ______ ____
ROOT
ATOM      1  C   UNL     1       7.297   7.175  17.265  0.00  0.00    +0.000 C 
ATOM      2  O   UNL     1       7.906   6.748  16.289  0.00  0.00    +0.000 OA
ENDROOT
BRANCH   1   9
ATOM      3  C   UNL     1       8.280   5.291  19.782  0.00  0.00    +0.000 C 
ATOM      4  C   UNL     1       6.911   5.515  19.243  0.00  0.00    +0.000 A 
ATOM      5  N   UNL     1       5.864   4.898  19.803  0.00  0.00    +0.000 NA
ATOM      6  N   UNL     1       4.810   5.173  18.990  0.00  0.00    +0.000 N 
ATOM      7  C   UNL     1       5.147   6.139  18.052  0.00  0.00    +0.000 A 
ATOM      8  C   UNL     1       4.189   6.860  17.167  0.00  0.00    +0.000 C 
ATOM      9  C   UNL     1       6.518   6.331  18.152  0.00  0.00    +0.000 A 
BRANCH   6  10
ATOM     10  C   UNL     1       3.557   4.527  19.183  0.00  0.00    +0.000 A 
ATOM     11  C   UNL     1       2.727   4.917  20.242  0.00  0.00    +0.000 A 
ATOM     12  C   UNL     1       1.435   4.391  20.337  0.00  0.00    +0.000 A 
ATOM     13  C   UNL     1       0.981   3.458  19.405  0.00  0.00    +0.000 A 
ATOM     14  C   UNL     1       1.835   3.007  18.401  0.00  0.00    +0.000 A 
ATOM     15  C   UNL     1       3.124   3.526  18.302  0.00  0.00    +0.000 A 
ENDBRANCH   6  10
ENDBRANCH   1   9
BRANCH   1  16
ATOM     16  O   UNL     1       7.388   8.467  17.680  0.00  0.00    +0.000 OA
BRANCH  16  17
ATOM     17  C   UNL     1       8.532   8.722  18.503  0.00  0.00    +0.000 C 
BRANCH  17  18
ATOM     18  C   UNL     1       8.904  10.182  18.314  0.00  0.00    +0.000 C 
ATOM     19  O   UNL     1       8.279  10.903  17.534  0.00  0.00    +0.000 OA
ATOM     20  N   UNL     1       9.912  10.639  19.145  0.00  0.00    +0.000 N 
ATOM     21  C   UNL     1      10.440  11.908  19.212  0.00  0.00    +0.000 C 
ATOM     22  O   UNL     1      11.403  12.141  19.937  0.00  0.00    +0.000 OA
ATOM     23  N   UNL     1       9.828  12.842  18.434  0.00  0.00    +0.000 N 
ATOM     24  H   UNL     1      10.361   9.993  19.783  0.00  0.00    +0.000 HD
ATOM     25  H   UNL     1       8.962  12.557  17.976  0.00  0.00    +0.000 HD
BRANCH  23  26
ATOM     26  C   UNL     1      10.218  14.235  18.377  0.00  0.00    +0.000 C 
ATOM     27  C   UNL     1      11.119  14.523  17.182  0.00  0.00    +0.000 C 
ATOM     28  C   UNL     1      11.028  16.033  17.016  0.00  0.00    +0.000 C 
ATOM     29  C   UNL     1       9.641  16.426  17.520  0.00  0.00    +0.000 C 
ATOM     30  C   UNL     1       9.038  15.177  18.158  0.00  0.00    +0.000 C 
ENDBRANCH  23  26
ENDBRANCH  17  18
ENDBRANCH  16  17
ENDBRANCH   1  16
TORSDOF 6
ENDMDL
MODEL 3
REMARK VINA RESULT:      -8.4      5.554      7.421
REMARK  Name = 
REMARK  8 active torsions:
REMARK  status: ('A' for Active; 'I' for Inactive)
REMARK    1  A    between atoms: C_1  and  C_2
REMARK    2  A    between atoms: N_4  and  C_5
REMARK    3  A    between atoms: C_11  and  C_12
REMARK    4  A    between atoms: C_13  and  C_14
REMARK    5  A    between atoms: C_14  and  O_16
REMARK    6  A    between atoms: O_16  and  C_17
REMARK    7  A    between atoms: C_17  and  C_18
REMARK    8  A    between atoms: N_23  and  C_24
REMARK                            x       y       z     vdW  Elec       q    Type
REMARK                         _______ _______ _______ _____ _____    ______ ____
ROOT
ATOM      1  C   UNL     1       7.217   6.950  17.014  0.00  0.00    +0.000 C 
ATOM      2  O   UNL     1       7.761   6.406  16.059  0.00  0.00    +0.000 OA
ENDROOT
BRANCH   1   9
ATOM      3  C   UNL     1       8.106   5.256  19.696  0.00  0.00    +0.000 C 
ATOM      4  C   UNL     1       6.750   5.507  19.139  0.00  0.00    +0.000 A 
ATOM      5  N   UNL     1       5.672   5.005  19.755  0.00  0.00    +0.000 NA
ATOM      6  N   UNL     1       4.631   5.263  18.920  0.00  0.00    +0.000 N 
ATOM      7  C   UNL     1       5.016   6.116  17.897  0.00  0.00    +0.000 A 
ATOM      8  C   UNL     1       4.097   6.805  16.948  0.00  0.00    +0.000 C 
ATOM      9  C   UNL     1       6.397   6.239  17.977  0.00  0.00    +0.000 A 
BRANCH   6  10
ATOM     10  C   UNL     1       3.344   4.711  19.174  0.00  0.00    +0.000 A 
ATOM     11  C   UNL     1       2.878   3.642  18.399  0.00  0.00    +0.000 A 
ATOM     12  C   UNL     1       1.685   3.003  18.749  0.00  0.00    +0.000 A 
ATOM     13  C   UNL     1       0.941   3.445  19.843  0.00  0.00    +0.000 A 
ATOM     14  C   UNL     1       1.360   4.560  20.564  0.00  0.00    +0.000 A 
ATOM     15  C   UNL     1       2.548   5.202  20.219  0.00  0.00    +0.000 A 
ENDBRANCH   6  10
ENDBRANCH   1   9
BRANCH   1  16
ATOM     16  O   UNL     1       7.426   8.256  17.333  0.00  0.00    +0.000 OA
BRANCH  16  17
ATOM     17  C   UNL     1       8.424   8.443  18.343  0.00  0.00    +0.000 C 
BRANCH  17  18
ATOM     18  C   UNL     1       8.681   9.937  18.448  0.00  0.00    +0.000 C 
ATOM     19  O   UNL     1       8.140  10.731  17.676  0.00  0.00    +0.000 OA
ATOM     20  N   UNL     1       9.472  10.319  19.517  0.00  0.00    +0.000 N 
ATOM     21  C   UNL     1       9.853  11.592  19.872  0.00  0.00    +0.000 C 
ATOM     22  O   UNL     1      10.641  11.769  20.797  0.00  0.00    +0.000 OA
ATOM     23  N   UNL     1       9.304  12.597  19.137  0.00  0.00    +0.000 N 
ATOM     24  H   UNL     1       9.858   9.609  20.128  0.00  0.00    +0.000 HD
ATOM     25  H   UNL     1       8.568  12.334  18.482  0.00  0.00    +0.000 HD
BRANCH  23  26
ATOM     26  C   UNL     1       9.560  14.005  19.363  0.00  0.00    +0.000 C 
ATOM     27  C   UNL     1       9.242  14.844  18.131  0.00  0.00    +0.000 C 
ATOM     28  C   UNL     1       9.109  16.256  18.681  0.00  0.00    +0.000 C 
ATOM     29  C   UNL     1       8.610  16.101  20.116  0.00  0.00    +0.000 C 
ATOM     30  C   UNL     1       8.664  14.609  20.438  0.00  0.00    +0.000 C 
ENDBRANCH  23  26
ENDBRANCH  17  18
ENDBRANCH  16  17
ENDBRANCH   1  16
TORSDOF 6
ENDMDL
MODEL 4
REMARK VINA RESULT:      -8.4      4.189      7.541
REMARK  Name = 
REMARK  8 active torsions:
REMARK  status: ('A' for Active; 'I' for Inactive)
REMARK    1  A    between atoms: C_1  and  C_2
REMARK    2  A    between atoms: N_4  and  C_5
REMARK    3  A    between atoms: C_11  and  C_12
REMARK    4  A    between atoms: C_13  and  C_14
REMARK    5  A    between atoms: C_14  and  O_16
REMARK    6  A    between atoms: O_16  and  C_17
REMARK    7  A    between atoms: C_17  and  C_18
REMARK    8  A    between atoms: N_23  and  C_24
REMARK                            x       y       z     vdW  Elec       q    Type
REMARK                         _______ _______ _______ _____ _____    ______ ____
ROOT
ATOM      1  C   UNL     1       5.218   6.533  16.056  0.00  0.00    +0.000 C 
ATOM      2  O   UNL     1       5.228   6.059  14.925  0.00  0.00    +0.000 OA
ENDROOT
BRANCH   1   9
ATOM      3  C   UNL     1       3.079   8.519  17.583  0.00  0.00    +0.000 C 
ATOM      4  C   UNL     1       3.269   7.050  17.714  0.00  0.00    +0.000 A 
ATOM      5  N   UNL     1       2.498   6.350  18.557  0.00  0.00    +0.000 NA
ATOM      6  N   UNL     1       3.027   5.098  18.568  0.00  0.00    +0.000 N 
ATOM      7  C   UNL     1       3.981   4.954  17.571  0.00  0.00    +0.000 A 
ATOM      8  C   UNL     1       4.586   3.666  17.127  0.00  0.00    +0.000 C 
ATOM      9  C   UNL     1       4.203   6.219  17.045  0.00  0.00    +0.000 A 
BRANCH   6  10
ATOM     10  C   UNL     1       2.565   4.124  19.497  0.00  0.00    +0.000 A 
ATOM     11  C   UNL     1       3.475   3.482  20.345  0.00  0.00    +0.000 A 
ATOM     12  C   UNL     1       3.002   2.643  21.359  0.00  0.00    +0.000 A 
ATOM     13  C   UNL     1       1.634   2.417  21.508  0.00  0.00    +0.000 A 
ATOM     14  C   UNL     1       0.733   2.989  20.613  0.00  0.00    +0.000 A 
ATOM     15  C   UNL     1       1.199   3.824  19.600  0.00  0.00    +0.000 A 
ENDBRANCH   6  10
ENDBRANCH   1   9
BRANCH   1  16
ATOM     16  O   UNL     1       6.227   7.309  16.536  0.00  0.00    +0.000 OA
BRANCH  16  17
ATOM     17  C   UNL     1       7.232   6.568  17.237  0.00  0.00    +0.000 C 
BRANCH  17  18
ATOM     18  C   UNL     1       7.962   7.546  18.141  0.00  0.00    +0.000 C 
ATOM     19  O   UNL     1       8.553   7.161  19.151  0.00  0.00    +0.000 OA
ATOM     20  N   UNL     1       7.987   8.853  17.686  0.00  0.00    +0.000 N 
ATOM     21  C   UNL     1       8.585   9.942  18.278  0.00  0.00    +0.000 C 
ATOM     22  O   UNL     1       8.440  11.064  17.803  0.00  0.00    +0.000 OA
ATOM     23  N   UNL     1       9.319   9.675  19.393  0.00  0.00    +0.000 N 
ATOM     24  H   UNL     1       7.502   9.090  16.828  0.00  0.00    +0.000 HD
ATOM     25  H   UNL     1       9.469   8.691  19.616  0.00  0.00    +0.000 HD
BRANCH  23  26
ATOM     26  C   UNL     1      10.041  10.677  20.150  0.00  0.00    +0.000 C 
ATOM     27  C   UNL     1      10.973  11.495  19.264  0.00  0.00    +0.000 C 
ATOM     28  C   UNL     1      11.256  12.740  20.091  0.00  0.00    +0.000 C 
ATOM     29  C   UNL     1      10.015  12.962  20.952  0.00  0.00    +0.000 C 
ATOM     30  C   UNL     1       9.128  11.732  20.766  0.00  0.00    +0.000 C 
ENDBRANCH  23  26
ENDBRANCH  17  18
ENDBRANCH  16  17
ENDBRANCH   1  16
TORSDOF 6
ENDMDL
MODEL 5
REMARK VINA RESULT:      -8.2      0.891      1.283
REMARK  Name = 
REMARK  8 active torsions:
REMARK  status: ('A' for Active; 'I' for Inactive)
REMARK    1  A    between atoms: C_1  and  C_2
REMARK    2  A    between atoms: N_4  and  C_5
REMARK    3  A    between atoms: C_11  and  C_12
REMARK    4  A    between atoms: C_13  and  C_14
REMARK    5  A    between atoms: C_14  and  O_16
REMARK    6  A    between atoms: O_16  and  C_17
REMARK    7  A    between atoms: C_17  and  C_18
REMARK    8  A    between atoms: N_23  and  C_24
REMARK                            x       y       z     vdW  Elec       q    Type
REMARK                         _______ _______ _______ _____ _____    ______ ____
ROOT
ATOM      1  C   UNL     1       5.301   5.547  18.785  0.00  0.00    +0.000 C 
ATOM      2  O   UNL     1       5.789   5.311  19.886  0.00  0.00    +0.000 OA
ENDROOT
BRANCH   1   9
ATOM      3  C   UNL     1       7.713   7.586  17.847  0.00  0.00    +0.000 C 
ATOM      4  C   UNL     1       7.117   6.428  17.129  0.00  0.00    +0.000 A 
ATOM      5  N   UNL     1       7.567   6.093  15.912  0.00  0.00    +0.000 NA
ATOM      6  N   UNL     1       6.720   5.126  15.472  0.00  0.00    +0.000 N 
ATOM      7  C   UNL     1       5.883   4.698  16.492  0.00  0.00    +0.000 A 
ATOM      8  C   UNL     1       5.004   3.495  16.447  0.00  0.00    +0.000 C 
ATOM      9  C   UNL     1       6.075   5.568  17.557  0.00  0.00    +0.000 A 
BRANCH   6  10
ATOM     10  C   UNL     1       6.791   4.656  14.131  0.00  0.00    +0.000 A 
ATOM     11  C   UNL     1       5.903   3.668  13.689  0.00  0.00    +0.000 A 
ATOM     12  C   UNL     1       5.872   3.321  12.335  0.00  0.00    +0.000 A 
ATOM     13  C   UNL     1       6.743   3.928  11.430  0.00  0.00    +0.000 A 
ATOM     14  C   UNL     1       7.684   4.849  11.882  0.00  0.00    +0.000 A 
ATOM     15  C   UNL     1       7.721   5.198  13.231  0.00  0.00    +0.000 A 
ENDBRANCH   6  10
ENDBRANCH   1   9
BRANCH   1  16
ATOM     16  O   UNL     1       3.964   5.696  18.591  0.00  0.00    +0.000 OA
BRANCH  16  17
ATOM     17  C   UNL     1       3.206   5.684  19.806  0.00  0.00    +0.000 C 
BRANCH  17  18
ATOM     18  C   UNL     1       2.307   6.908  19.787  0.00  0.00    +0.000 C 
ATOM     19  O   UNL     1       1.567   7.170  20.736  0.00  0.00    +0.000 OA
ATOM     20  N   UNL     1       2.464   7.730  18.684  0.00  0.00    +0.000 N 
ATOM     21  C   UNL     1       1.807   8.906  18.408  0.00  0.00    +0.000 C 
ATOM     22  O   UNL     1       1.984   9.479  17.337  0.00  0.00    +0.000 OA
ATOM     23  N   UNL     1       0.975   9.359  19.386  0.00  0.00    +0.000 N 
ATOM     24  H   UNL     1       3.116   7.463  17.955  0.00  0.00    +0.000 HD
ATOM     25  H   UNL     1       1.009   8.866  20.278  0.00  0.00    +0.000 HD
BRANCH  23  26
ATOM     26  C   UNL     1       0.208  10.584  19.299  0.00  0.00    +0.000 C 
ATOM     27  C   UNL     1      -1.120  10.373  18.581  0.00  0.00    +0.000 C 
ATOM     28  C   UNL     1      -1.950  11.578  18.996  0.00  0.00    +0.000 C 
ATOM     29  C   UNL     1      -1.455  11.968  20.386  0.00  0.00    +0.000 C 
ATOM     30  C   UNL     1      -0.214  11.122  20.662  0.00  0.00    +0.000 C 
ENDBRANCH  23  26
ENDBRANCH  17  18
ENDBRANCH  16  17
ENDBRANCH   1  16
TORSDOF 6
ENDMDL
MODEL 6
REMARK VINA RESULT:      -8.1      1.282      1.734
REMARK  Name = 
REMARK  8 active torsions:
REMARK  status: ('A' for Active; 'I' for Inactive)
REMARK    1  A    between atoms: C_1  and  C_2
REMARK    2  A    between atoms: N_4  and  C_5
REMARK    3  A    between atoms: C_11  and  C_12
REMARK    4  A    between atoms: C_13  and  C_14
REMARK    5  A    between atoms: C_14  and  O_16
REMARK    6  A    between atoms: O_16  and  C_17
REMARK    7  A    between atoms: C_17  and  C_18
REMARK    8  A    between atoms: N_23  and  C_24
REMARK                            x       y       z     vdW  Elec       q    Type
REMARK                         _______ _______ _______ _____ _____    ______ ____
ROOT
ATOM      1  C   UNL     1       5.168   5.485  18.813  0.00  0.00    +0.000 C 
ATOM      2  O   UNL     1       5.615   5.096  19.888  0.00  0.00    +0.000 OA
ENDROOT
BRANCH   1   9
ATOM      3  C   UNL     1       7.722   7.382  17.957  0.00  0.00    +0.000 C 
ATOM      4  C   UNL     1       7.044   6.301  17.192  0.00  0.00    +0.000 A 
ATOM      5  N   UNL     1       7.470   5.987  15.961  0.00  0.00    +0.000 NA
ATOM      6  N   UNL     1       6.555   5.104  15.482  0.00  0.00    +0.000 N 
ATOM      7  C   UNL     1       5.687   4.695  16.485  0.00  0.00    +0.000 A 
ATOM      8  C   UNL     1       4.724   3.562  16.391  0.00  0.00    +0.000 C 
ATOM      9  C   UNL     1       5.941   5.502  17.586  0.00  0.00    +0.000 A 
BRANCH   6  10
ATOM     10  C   UNL     1       6.593   4.687  14.122  0.00  0.00    +0.000 A 
ATOM     11  C   UNL     1       7.590   5.176  13.270  0.00  0.00    +0.000 A 
ATOM     12  C   UNL     1       7.719   4.649  11.981  0.00  0.00    +0.000 A 
ATOM     13  C   UNL     1       6.839   3.665  11.529  0.00  0.00    +0.000 A 
ATOM     14  C   UNL     1       5.795   3.238  12.346  0.00  0.00    +0.000 A 
ATOM     15  C   UNL     1       5.661   3.761  13.630  0.00  0.00    +0.000 A 
ENDBRANCH   6  10
ENDBRANCH   1   9
BRANCH   1  16
ATOM     16  O   UNL     1       3.863   5.829  18.642  0.00  0.00    +0.000 OA
BRANCH  16  17
ATOM     17  C   UNL     1       3.149   5.988  19.872  0.00  0.00    +0.000 C 
BRANCH  17  18
ATOM     18  C   UNL     1       2.317   7.254  19.748  0.00  0.00    +0.000 C 
ATOM     19  O   UNL     1       2.126   7.785  18.653  0.00  0.00    +0.000 OA
ATOM     20  N   UNL     1       1.731   7.684  20.925  0.00  0.00    +0.000 N 
ATOM     21  C   UNL     1       0.917   8.777  21.112  0.00  0.00    +0.000 C 
ATOM     22  O   UNL     1       0.547   9.090  22.239  0.00  0.00    +0.000 OA
ATOM     23  N   UNL     1       0.574   9.455  19.982  0.00  0.00    +0.000 N 
ATOM     24  H   UNL     1       1.911   7.178  21.784  0.00  0.00    +0.000 HD
ATOM     25  H   UNL     1       0.837   9.026  19.095  0.00  0.00    +0.000 HD
BRANCH  23  26
ATOM     26  C   UNL     1      -0.289  10.618  19.961  0.00  0.00    +0.000 C 
ATOM     27  C   UNL     1       0.503  11.908  19.778  0.00  0.00    +0.000 C 
ATOM     28  C   UNL     1      -0.542  12.910  19.313  0.00  0.00    +0.000 C 
ATOM     29  C   UNL     1      -1.593  12.100  18.558  0.00  0.00    +0.000 C 
ATOM     30  C   UNL     1      -1.250  10.628  18.777  0.00  0.00    +0.000 C 
ENDBRANCH  23  26
ENDBRANCH  17  18
ENDBRANCH  16  17
ENDBRANCH   1  16
TORSDOF 6
ENDMDL
MODEL 7
REMARK VINA RESULT:      -8.1      2.939      7.197
REMARK  Name = 
REMARK  8 active torsions:
REMARK  status: ('A' for Active; 'I' for Inactive)
REMARK    1  A    between atoms: C_1  and  C_2
REMARK    2  A    between atoms: N_4  and  C_5
REMARK    3  A    between atoms: C_11  and  C_12
REMARK    4  A    between atoms: C_13  and  C_14
REMARK    5  A    between atoms: C_14  and  O_16
REMARK    6  A    between atoms: O_16  and  C_17
REMARK    7  A    between atoms: C_17  and  C_18
REMARK    8  A    between atoms: N_23  and  C_24
REMARK                            x       y       z     vdW  Elec       q    Type
REMARK                         _______ _______ _______ _____ _____    ______ ____
ROOT
ATOM      1  C   UNL     1       1.439   2.474  19.053  0.00  0.00    +0.000 C 
ATOM      2  O   UNL     1       0.394   2.199  18.473  0.00  0.00    +0.000 OA
ENDROOT
BRANCH   1   9
ATOM      3  C   UNL     1       2.181   3.413  22.123  0.00  0.00    +0.000 C 
ATOM      4  C   UNL     1       2.066   4.227  20.883  0.00  0.00    +0.000 A 
ATOM      5  N   UNL     1       2.278   5.549  20.931  0.00  0.00    +0.000 NA
ATOM      6  N   UNL     1       1.935   6.010  19.699  0.00  0.00    +0.000 N 
ATOM      7  C   UNL     1       1.725   4.960  18.818  0.00  0.00    +0.000 A 
ATOM      8  C   UNL     1       1.579   5.083  17.340  0.00  0.00    +0.000 C 
ATOM      9  C   UNL     1       1.741   3.795  19.573  0.00  0.00    +0.000 A 
BRANCH   6  10
ATOM     10  C   UNL     1       1.867   7.408  19.442  0.00  0.00    +0.000 A 
ATOM     11  C   UNL     1       2.379   7.923  18.245  0.00  0.00    +0.000 A 
ATOM     12  C   UNL     1       2.172   9.269  17.927  0.00  0.00    +0.000 A 
ATOM     13  C   UNL     1       1.489  10.106  18.809  0.00  0.00    +0.000 A 
ATOM     14  C   UNL     1       1.053   9.615  20.037  0.00  0.00    +0.000 A 
ATOM     15  C   UNL     1       1.258   8.276  20.360  0.00  0.00    +0.000 A 
ENDBRANCH   6  10
ENDBRANCH   1   9
BRANCH   1  16
ATOM     16  O   UNL     1       2.371   1.536  19.372  0.00  0.00    +0.000 OA
BRANCH  16  17
ATOM     17  C   UNL     1       3.297   1.268  18.313  0.00  0.00    +0.000 C 
BRANCH  17  18
ATOM     18  C   UNL     1       4.282   2.424  18.275  0.00  0.00    +0.000 C 
ATOM     19  O   UNL     1       4.907   2.760  19.282  0.00  0.00    +0.000 OA
ATOM     20  N   UNL     1       4.481   2.980  17.024  0.00  0.00    +0.000 N 
ATOM     21  C   UNL     1       5.321   4.016  16.685  0.00  0.00    +0.000 C 
ATOM     22  O   UNL     1       5.320   4.467  15.544  0.00  0.00    +0.000 OA
ATOM     23  N   UNL     1       6.119   4.478  17.686  0.00  0.00    +0.000 N 
ATOM     24  H   UNL     1       3.951   2.630  16.235  0.00  0.00    +0.000 HD
ATOM     25  H   UNL     1       6.120   3.941  18.553  0.00  0.00    +0.000 HD
BRANCH  23  26
ATOM     26  C   UNL     1       7.083   5.547  17.530  0.00  0.00    +0.000 C 
ATOM     27  C   UNL     1       6.413   6.869  17.173  0.00  0.00    +0.000 C 
ATOM     28  C   UNL     1       7.467   7.911  17.515  0.00  0.00    +0.000 C 
ATOM     29  C   UNL     1       8.284   7.320  18.661  0.00  0.00    +0.000 C 
ATOM     30  C   UNL     1       7.829   5.872  18.821  0.00  0.00    +0.000 C 
ENDBRANCH  23  26
ENDBRANCH  17  18
ENDBRANCH  16  17
ENDBRANCH   1  16
TORSDOF 6
ENDMDL
MODEL 8
REMARK VINA RESULT:      -8.0      0.984      1.369
REMARK  Name = 
REMARK  8 active torsions:
REMARK  status: ('A' for Active; 'I' for Inactive)
REMARK    1  A    between atoms: C_1  and  C_2
REMARK    2  A    between atoms: N_4  and  C_5
REMARK    3  A    between atoms: C_11  and  C_12
REMARK    4  A    between atoms: C_13  and  C_14
REMARK    5  A    between atoms: C_14  and  O_16
REMARK    6  A    between atoms: O_16  and  C_17
REMARK    7  A    between atoms: C_17  and  C_18
REMARK    8  A    between atoms: N_23  and  C_24
REMARK                            x       y       z     vdW  Elec       q    Type
REMARK                         _______ _______ _______ _____ _____    ______ ____
ROOT
ATOM      1  C   UNL     1       4.848   4.483  19.279  0.00  0.00    +0.000 C 
ATOM      2  O   UNL     1       4.548   3.425  19.823  0.00  0.00    +0.000 OA
ENDROOT
BRANCH   1   9
ATOM      3  C   UNL     1       7.921   5.663  19.130  0.00  0.00    +0.000 C 
ATOM      4  C   UNL     1       7.080   5.068  18.056  0.00  0.00    +0.000 A 
ATOM      5  N   UNL     1       7.564   4.959  16.812  0.00  0.00    +0.000 NA
ATOM      6  N   UNL     1       6.514   4.546  16.056  0.00  0.00    +0.000 N 
ATOM      7  C   UNL     1       5.439   4.183  16.854  0.00  0.00    +0.000 A 
ATOM      8  C   UNL     1       4.220   3.458  16.395  0.00  0.00    +0.000 C 
ATOM      9  C   UNL     1       5.755   4.571  18.150  0.00  0.00    +0.000 A 
BRANCH   6  10
ATOM     10  C   UNL     1       6.619   4.493  14.637  0.00  0.00    +0.000 A 
ATOM     11  C   UNL     1       7.487   5.364  13.969  0.00  0.00    +0.000 A 
ATOM     12  C   UNL     1       7.704   5.206  12.596  0.00  0.00    +0.000 A 
ATOM     13  C   UNL     1       7.035   4.209  11.886  0.00  0.00    +0.000 A 
ATOM     14  C   UNL     1       6.108   3.396  12.533  0.00  0.00    +0.000 A 
ATOM     15  C   UNL     1       5.887   3.550  13.900  0.00  0.00    +0.000 A 
ENDBRANCH   6  10
ENDBRANCH   1   9
BRANCH   1  16
ATOM     16  O   UNL     1       4.268   5.669  19.607  0.00  0.00    +0.000 OA
BRANCH  16  17
ATOM     17  C   UNL     1       2.843   5.592  19.726  0.00  0.00    +0.000 C 
BRANCH  17  18
ATOM     18  C   UNL     1       2.313   7.015  19.688  0.00  0.00    +0.000 C 
ATOM     19  O   UNL     1       2.260   7.647  18.631  0.00  0.00    +0.000 OA
ATOM     20  N   UNL     1       1.817   7.485  20.891  0.00  0.00    +0.000 N 
ATOM     21  C   UNL     1       1.260   8.716  21.151  0.00  0.00    +0.000 C 
ATOM     22  O   UNL     1       0.950   9.027  22.297  0.00  0.00    +0.000 OA
ATOM     23  N   UNL     1       1.092   9.526  20.070  0.00  0.00    +0.000 N 
ATOM     24  H   UNL     1       1.867   6.895  21.713  0.00  0.00    +0.000 HD
ATOM     25  H   UNL     1       1.269   9.109  19.156  0.00  0.00    +0.000 HD
BRANCH  23  26
ATOM     26  C   UNL     1       0.507  10.850  20.128  0.00  0.00    +0.000 C 
ATOM     27  C   UNL     1       0.152  11.374  18.742  0.00  0.00    +0.000 C 
ATOM     28  C   UNL     1      -0.839  12.493  19.022  0.00  0.00    +0.000 C 
ATOM     29  C   UNL     1      -1.556  12.103  20.313  0.00  0.00    +0.000 C 
ATOM     30  C   UNL     1      -0.827  10.881  20.865  0.00  0.00    +0.000 C 
ENDBRANCH  23  26
ENDBRANCH  17  18
ENDBRANCH  16  17
ENDBRANCH   1  16
TORSDOF 6
ENDMDL
MODEL 9
REMARK VINA RESULT:      -8.0      1.022      1.232
REMARK  Name = 
REMARK  8 active torsions:
REMARK  status: ('A' for Active; 'I' for Inactive)
REMARK    1  A    between atoms: C_1  and  C_2
REMARK    2  A    between atoms: N_4  and  C_5
REMARK    3  A    between atoms: C_11  and  C_12
REMARK    4  A    between atoms: C_13  and  C_14
REMARK    5  A    between atoms: C_14  and  O_16
REMARK    6  A    between atoms: O_16  and  C_17
REMARK    7  A    between atoms: C_17  and  C_18
REMARK    8  A    between atoms: N_23  and  C_24
REMARK                            x       y       z     vdW  Elec       q    Type
REMARK                         _______ _______ _______ _____ _____    ______ ____
ROOT
ATOM      1  C   UNL     1       5.192   5.615  18.788  0.00  0.00    +0.000 C 
ATOM      2  O   UNL     1       5.603   5.142  19.843  0.00  0.00    +0.000 OA
ENDROOT
BRANCH   1   9
ATOM      3  C   UNL     1       7.735   7.502  17.876  0.00  0.00    +0.000 C 
ATOM      4  C   UNL     1       7.059   6.401  17.139  0.00  0.00    +0.000 A 
ATOM      5  N   UNL     1       7.480   6.060  15.915  0.00  0.00    +0.000 NA
ATOM      6  N   UNL     1       6.567   5.162  15.460  0.00  0.00    +0.000 N 
ATOM      7  C   UNL     1       5.706   4.773  16.476  0.00  0.00    +0.000 A 
ATOM      8  C   UNL     1       4.747   3.634  16.413  0.00  0.00    +0.000 C 
ATOM      9  C   UNL     1       5.961   5.606  17.557  0.00  0.00    +0.000 A 
BRANCH   6  10
ATOM     10  C   UNL     1       6.601   4.714  14.110  0.00  0.00    +0.000 A 
ATOM     11  C   UNL     1       7.588   5.193  13.240  0.00  0.00    +0.000 A 
ATOM     12  C   UNL     1       7.714   4.637  11.963  0.00  0.00    +0.000 A 
ATOM     13  C   UNL     1       6.842   3.633  11.541  0.00  0.00    +0.000 A 
ATOM     14  C   UNL     1       5.808   3.215  12.374  0.00  0.00    +0.000 A 
ATOM     15  C   UNL     1       5.676   3.767  13.646  0.00  0.00    +0.000 A 
ENDBRANCH   6  10
ENDBRANCH   1   9
BRANCH   1  16
ATOM     16  O   UNL     1       3.927   6.090  18.638  0.00  0.00    +0.000 OA
BRANCH  16  17
ATOM     17  C   UNL     1       3.130   5.971  19.822  0.00  0.00    +0.000 C 
BRANCH  17  18
ATOM     18  C   UNL     1       2.188   7.162  19.851  0.00  0.00    +0.000 C 
ATOM     19  O   UNL     1       1.488   7.396  20.837  0.00  0.00    +0.000 OA
ATOM     20  N   UNL     1       2.262   7.990  18.744  0.00  0.00    +0.000 N 
ATOM     21  C   UNL     1       1.550   9.144  18.505  0.00  0.00    +0.000 C 
ATOM     22  O   UNL     1       1.654   9.724  17.428  0.00  0.00    +0.000 OA
ATOM     23  N   UNL     1       0.753   9.565  19.524  0.00  0.00    +0.000 N 
ATOM     24  H   UNL     1       2.885   7.748  17.983  0.00  0.00    +0.000 HD
ATOM     25  H   UNL     1       0.848   9.072  20.411  0.00  0.00    +0.000 HD
BRANCH  23  26
ATOM     26  C   UNL     1      -0.060  10.763  19.479  0.00  0.00    +0.000 C 
ATOM     27  C   UNL     1       0.746  11.979  19.037  0.00  0.00    +0.000 C 
ATOM     28  C   UNL     1      -0.316  12.976  18.599  0.00  0.00    +0.000 C 
ATOM     29  C   UNL     1      -1.491  12.142  18.094  0.00  0.00    +0.000 C 
ATOM     30  C   UNL     1      -1.176  10.688  18.441  0.00  0.00    +0.000 C 
ENDBRANCH  23  26
ENDBRANCH  17  18
ENDBRANCH  16  17
ENDBRANCH   1  16
TORSDOF 6
ENDMDL
