MODEL 1
REMARK VINA RESULT:      -8.0      0.000      0.000
REMARK  Name = 
REMARK  4 active torsions:
REMARK  status: ('A' for Active; 'I' for Inactive)
REMARK    1  A    between atoms: C_1  and  S_2
REMARK    2  A    between atoms: S_2  and  N_5
REMARK    3  A    between atoms: C_12  and  C_13
REMARK    4  A    between atoms: C_13  and  C_14
REMARK                            x       y       z     vdW  Elec       q    Type
REMARK                         _______ _______ _______ _____ _____    ______ ____
ROOT
ATOM      1  N   UNL     1       6.224   5.916  16.893  0.00  0.00    +0.000 NA
ATOM      2  C   UNL     1       4.888   6.437  16.518  0.00  0.00    +0.000 C 
ATOM      3  C   UNL     1       3.766   5.617  17.140  0.00  0.00    +0.000 C 
ATOM      4  C   UNL     1       3.934   5.429  18.665  0.00  0.00    +0.000 C 
ATOM      5  C   UNL     1       5.380   5.052  19.052  0.00  0.00    +0.000 C 
ATOM      6  C   UNL     1       6.406   5.950  18.371  0.00  0.00    +0.000 C 
ATOM      7  C   UNL     1       3.493   6.715  19.424  0.00  0.00    +0.000 C 
ATOM      8  C   UNL     1       2.351   6.369  20.412  0.00  0.00    +0.000 C 
ATOM      9  C   UNL     1       2.111   4.910  20.158  0.00  0.00    +0.000 A 
ATOM     10  C   UNL     1       1.179   4.090  20.785  0.00  0.00    +0.000 A 
ATOM     11  C   UNL     1       1.102   2.745  20.415  0.00  0.00    +0.000 A 
ATOM     12  C   UNL     1       1.950   2.232  19.429  0.00  0.00    +0.000 A 
ATOM     13  C   UNL     1       2.889   3.057  18.810  0.00  0.00    +0.000 A 
ATOM     14  C   UNL     1       2.966   4.396  19.187  0.00  0.00    +0.000 A 
ENDROOT
BRANCH   1  16
ATOM     15  C   UNL     1       7.166   5.063  14.484  0.00  0.00    +0.000 C 
ATOM     16  S   UNL     1       6.813   4.508  16.134  0.00  0.00    +0.000 S 
ATOM     17  O   UNL     1       5.741   3.537  16.058  0.00  0.00    +0.000 OA
ATOM     18  O   UNL     1       8.071   4.171  16.762  0.00  0.00    +0.000 OA
ENDBRANCH   1  16
BRANCH   8  19
ATOM     19  C   UNL     1       1.097   7.203  20.147  0.00  0.00    +0.000 C 
BRANCH  19  20
ATOM     20  C   UNL     1       1.066   8.497  20.943  0.00  0.00    +0.000 C 
ATOM     21  O   UNL     1       1.095   8.518  22.171  0.00  0.00    +0.000 OA
ATOM     22  N   UNL     1       1.030   9.653  20.194  0.00  0.00    +0.000 N 
ATOM     23  C   UNL     1       0.921   9.766  18.752  0.00  0.00    +0.000 C 
ATOM     24  C   UNL     1       1.509  11.133  18.462  0.00  0.00    +0.000 C 
ATOM     25  C   UNL     1       1.082  11.959  19.669  0.00  0.00    +0.000 C 
ATOM     26  C   UNL     1       1.062  10.962  20.823  0.00  0.00    +0.000 C 
ENDBRANCH  19  20
ENDBRANCH   8  19
TORSDOF 3
ENDMDL
MODEL 2
REMARK VINA RESULT:      -7.4      1.238      1.639
REMARK  Name = 
REMARK  4 active torsions:
REMARK  status: ('A' for Active; 'I' for Inactive)
REMARK    1  A    between atoms: C_1  and  S_2
REMARK    2  A    between atoms: S_2  and  N_5
REMARK    3  A    between atoms: C_12  and  C_13
REMARK    4  A    between atoms: C_13  and  C_14
REMARK                            x       y       z     vdW  Elec       q    Type
REMARK                         _______ _______ _______ _____ _____    ______ ____
ROOT
ATOM      1  N   UNL     1       6.466   6.173  17.028  0.00  0.00    +0.000 NA
ATOM      2  C   UNL     1       5.114   6.699  16.723  0.00  0.00    +0.000 C 
ATOM      3  C   UNL     1       4.019   5.734  17.158  0.00  0.00    +0.000 C 
ATOM      4  C   UNL     1       4.172   5.276  18.627  0.00  0.00    +0.000 C 
ATOM      5  C   UNL     1       5.627   4.894  18.972  0.00  0.00    +0.000 C 
ATOM      6  C   UNL     1       6.623   5.943  18.490  0.00  0.00    +0.000 C 
ATOM      7  C   UNL     1       3.663   6.381  19.598  0.00  0.00    +0.000 C 
ATOM      8  C   UNL     1       2.522   5.815  20.479  0.00  0.00    +0.000 C 
ATOM      9  C   UNL     1       2.351   4.418  19.957  0.00  0.00    +0.000 A 
ATOM     10  C   UNL     1       1.447   3.459  20.402  0.00  0.00    +0.000 A 
ATOM     11  C   UNL     1       1.435   2.204  19.790  0.00  0.00    +0.000 A 
ATOM     12  C   UNL     1       2.320   1.915  18.747  0.00  0.00    +0.000 A 
ATOM     13  C   UNL     1       3.231   2.877  18.311  0.00  0.00    +0.000 A 
ATOM     14  C   UNL     1       3.243   4.126  18.928  0.00  0.00    +0.000 A 
ENDROOT
BRANCH   1  16
ATOM     15  C   UNL     1       5.714   3.954  15.638  0.00  0.00    +0.000 C 
ATOM     16  S   UNL     1       7.127   4.954  16.038  0.00  0.00    +0.000 S 
ATOM     17  O   UNL     1       8.032   4.149  16.832  0.00  0.00    +0.000 OA
ATOM     18  O   UNL     1       7.578   5.584  14.817  0.00  0.00    +0.000 OA
ENDBRANCH   1  16
BRANCH   8  19
ATOM     19  C   UNL     1       1.237   6.631  20.341  0.00  0.00    +0.000 C 
BRANCH  19  20
ATOM     20  C   UNL     1       1.482   8.040  19.828  0.00  0.00    +0.000 C 
ATOM     21  O   UNL     1       2.033   8.264  18.752  0.00  0.00    +0.000 OA
ATOM     22  N   UNL     1       1.022   9.054  20.637  0.00  0.00    +0.000 N 
ATOM     23  C   UNL     1       0.424   8.930  21.953  0.00  0.00    +0.000 C 
ATOM     24  C   UNL     1      -0.392  10.201  22.090  0.00  0.00    +0.000 C 
ATOM     25  C   UNL     1       0.450  11.236  21.353  0.00  0.00    +0.000 C 
ATOM     26  C   UNL     1       1.132  10.448  20.240  0.00  0.00    +0.000 C 
ENDBRANCH  19  20
ENDBRANCH   8  19
TORSDOF 3
ENDMDL
MODEL 3
REMARK VINA RESULT:      -7.2      3.896      7.953
REMARK  Name = 
REMARK  4 active torsions:
REMARK  status: ('A' for Active; 'I' for Inactive)
REMARK    1  A    between atoms: C_1  and  S_2
REMARK    2  A    between atoms: S_2  and  N_5
REMARK    3  A    between atoms: C_12  and  C_13
REMARK    4  A    between atoms: C_13  and  C_14
REMARK                            x       y       z     vdW  Elec       q    Type
REMARK                         _______ _______ _______ _____ _____    ______ ____
ROOT
ATOM      1  N   UNL     1       1.814   2.807  19.144  0.00  0.00    +0.000 NA
ATOM      2  C   UNL     1       1.754   3.951  18.203  0.00  0.00    +0.000 C 
ATOM      3  C   UNL     1       3.060   4.734  18.179  0.00  0.00    +0.000 C 
ATOM      4  C   UNL     1       4.296   3.832  17.956  0.00  0.00    +0.000 C 
ATOM      5  C   UNL     1       4.254   2.558  18.824  0.00  0.00    +0.000 C 
ATOM      6  C   UNL     1       2.898   1.864  18.756  0.00  0.00    +0.000 C 
ATOM      7  C   UNL     1       4.429   3.453  16.452  0.00  0.00    +0.000 C 
ATOM      8  C   UNL     1       5.799   3.935  15.913  0.00  0.00    +0.000 C 
ATOM      9  C   UNL     1       6.401   4.638  17.095  0.00  0.00    +0.000 A 
ATOM     10  C   UNL     1       7.641   5.264  17.158  0.00  0.00    +0.000 A 
ATOM     11  C   UNL     1       8.034   5.869  18.353  0.00  0.00    +0.000 A 
ATOM     12  C   UNL     1       7.194   5.843  19.471  0.00  0.00    +0.000 A 
ATOM     13  C   UNL     1       5.956   5.205  19.405  0.00  0.00    +0.000 A 
ATOM     14  C   UNL     1       5.570   4.599  18.211  0.00  0.00    +0.000 A 
ENDROOT
BRANCH   1  16
ATOM     15  C   UNL     1       1.620   4.873  20.910  0.00  0.00    +0.000 C 
ATOM     16  S   UNL     1       1.687   3.099  20.818  0.00  0.00    +0.000 S 
ATOM     17  O   UNL     1       2.909   2.666  21.461  0.00  0.00    +0.000 OA
ATOM     18  O   UNL     1       0.404   2.589  21.251  0.00  0.00    +0.000 OA
ENDBRANCH   1  16
BRANCH   8  19
ATOM     19  C   UNL     1       5.642   4.873  14.716  0.00  0.00    +0.000 C 
BRANCH  19  20
ATOM     20  C   UNL     1       6.767   4.736  13.704  0.00  0.00    +0.000 C 
ATOM     21  O   UNL     1       7.811   5.379  13.786  0.00  0.00    +0.000 OA
ATOM     22  N   UNL     1       6.552   3.820  12.699  0.00  0.00    +0.000 N 
ATOM     23  C   UNL     1       5.345   3.054  12.448  0.00  0.00    +0.000 C 
ATOM     24  C   UNL     1       5.847   1.855  11.666  0.00  0.00    +0.000 C 
ATOM     25  C   UNL     1       6.980   2.435  10.829  0.00  0.00    +0.000 C 
ATOM     26  C   UNL     1       7.568   3.541  11.700  0.00  0.00    +0.000 C 
ENDBRANCH  19  20
ENDBRANCH   8  19
TORSDOF 3
ENDMDL
MODEL 4
REMARK VINA RESULT:      -7.2      0.955      1.126
REMARK  Name = 
REMARK  4 active torsions:
REMARK  status: ('A' for Active; 'I' for Inactive)
REMARK    1  A    between atoms: C_1  and  S_2
REMARK    2  A    between atoms: S_2  and  N_5
REMARK    3  A    between atoms: C_12  and  C_13
REMARK    4  A    between atoms: C_13  and  C_14
REMARK                            x       y       z     vdW  Elec       q    Type
REMARK                         _______ _______ _______ _____ _____    ______ ____
ROOT
ATOM      1  N   UNL     1       6.122   6.402  17.229  0.00  0.00    +0.000 NA
ATOM      2  C   UNL     1       4.831   7.051  16.897  0.00  0.00    +0.000 C 
ATOM      3  C   UNL     1       3.644   6.183  17.291  0.00  0.00    +0.000 C 
ATOM      4  C   UNL     1       3.716   5.696  18.757  0.00  0.00    +0.000 C 
ATOM      5  C   UNL     1       5.121   5.180  19.133  0.00  0.00    +0.000 C 
ATOM      6  C   UNL     1       6.219   6.141  18.692  0.00  0.00    +0.000 C 
ATOM      7  C   UNL     1       3.282   6.831  19.730  0.00  0.00    +0.000 C 
ATOM      8  C   UNL     1       2.073   6.358  20.574  0.00  0.00    +0.000 C 
ATOM      9  C   UNL     1       1.791   4.989  20.028  0.00  0.00    +0.000 A 
ATOM     10  C   UNL     1       0.793   4.110  20.436  0.00  0.00    +0.000 A 
ATOM     11  C   UNL     1       0.685   2.868  19.806  0.00  0.00    +0.000 A 
ATOM     12  C   UNL     1       1.568   2.514  18.782  0.00  0.00    +0.000 A 
ATOM     13  C   UNL     1       2.573   3.395  18.383  0.00  0.00    +0.000 A 
ATOM     14  C   UNL     1       2.680   4.630  19.018  0.00  0.00    +0.000 A 
ENDROOT
BRANCH   1  16
ATOM     15  C   UNL     1       7.854   4.300  17.296  0.00  0.00    +0.000 C 
ATOM     16  S   UNL     1       6.698   5.140  16.239  0.00  0.00    +0.000 S 
ATOM     17  O   UNL     1       7.439   5.714  15.136  0.00  0.00    +0.000 OA
ATOM     18  O   UNL     1       5.592   4.240  15.997  0.00  0.00    +0.000 OA
ENDBRANCH   1  16
BRANCH   8  19
ATOM     19  C   UNL     1       0.870   7.288  20.415  0.00  0.00    +0.000 C 
BRANCH  19  20
ATOM     20  C   UNL     1       1.037   8.605  21.156  0.00  0.00    +0.000 C 
ATOM     21  O   UNL     1       1.536   8.674  22.277  0.00  0.00    +0.000 OA
ATOM     22  N   UNL     1       0.615   9.725  20.475  0.00  0.00    +0.000 N 
ATOM     23  C   UNL     1      -0.053   9.776  19.188  0.00  0.00    +0.000 C 
ATOM     24  C   UNL     1       0.258  11.173  18.687  0.00  0.00    +0.000 C 
ATOM     25  C   UNL     1       0.260  12.008  19.962  0.00  0.00    +0.000 C 
ATOM     26  C   UNL     1       0.773  11.056  21.037  0.00  0.00    +0.000 C 
ENDBRANCH  19  20
ENDBRANCH   8  19
TORSDOF 3
ENDMDL
MODEL 5
REMARK VINA RESULT:      -7.0      1.454      2.014
REMARK  Name = 
REMARK  4 active torsions:
REMARK  status: ('A' for Active; 'I' for Inactive)
REMARK    1  A    between atoms: C_1  and  S_2
REMARK    2  A    between atoms: S_2  and  N_5
REMARK    3  A    between atoms: C_12  and  C_13
REMARK    4  A    between atoms: C_13  and  C_14
REMARK                            x       y       z     vdW  Elec       q    Type
REMARK                         _______ _______ _______ _____ _____    ______ ____
ROOT
ATOM      1  N   UNL     1       6.550   6.269  16.044  0.00  0.00    +0.000 NA
ATOM      2  C   UNL     1       5.171   6.521  15.565  0.00  0.00    +0.000 C 
ATOM      3  C   UNL     1       4.134   5.815  16.429  0.00  0.00    +0.000 C 
ATOM      4  C   UNL     1       4.312   6.104  17.937  0.00  0.00    +0.000 C 
ATOM      5  C   UNL     1       5.786   6.003  18.382  0.00  0.00    +0.000 C 
ATOM      6  C   UNL     1       6.719   6.756  17.441  0.00  0.00    +0.000 C 
ATOM      7  C   UNL     1       3.738   7.506  18.295  0.00  0.00    +0.000 C 
ATOM      8  C   UNL     1       2.632   7.357  19.368  0.00  0.00    +0.000 C 
ATOM      9  C   UNL     1       2.543   5.871  19.562  0.00  0.00    +0.000 A 
ATOM     10  C   UNL     1       1.696   5.185  20.425  0.00  0.00    +0.000 A 
ATOM     11  C   UNL     1       1.758   3.791  20.469  0.00  0.00    +0.000 A 
ATOM     12  C   UNL     1       2.659   3.096  19.657  0.00  0.00    +0.000 A 
ATOM     13  C   UNL     1       3.513   3.789  18.800  0.00  0.00    +0.000 A 
ATOM     14  C   UNL     1       3.451   5.180  18.764  0.00  0.00    +0.000 A 
ENDROOT
BRANCH   1  16
ATOM     15  C   UNL     1       5.892   3.676  15.532  0.00  0.00    +0.000 C 
ATOM     16  S   UNL     1       7.283   4.765  15.719  0.00  0.00    +0.000 S 
ATOM     17  O   UNL     1       8.024   4.345  16.890  0.00  0.00    +0.000 OA
ATOM     18  O   UNL     1       7.934   4.870  14.432  0.00  0.00    +0.000 OA
ENDBRANCH   1  16
BRANCH   8  19
ATOM     19  C   UNL     1       1.301   7.947  18.900  0.00  0.00    +0.000 C 
BRANCH  19  20
ATOM     20  C   UNL     1       1.111   9.393  19.327  0.00  0.00    +0.000 C 
ATOM     21  O   UNL     1       1.337  10.339  18.576  0.00  0.00    +0.000 OA
ATOM     22  N   UNL     1       0.641   9.576  20.609  0.00  0.00    +0.000 N 
ATOM     23  C   UNL     1       0.404   8.557  21.615  0.00  0.00    +0.000 C 
ATOM     24  C   UNL     1      -0.614   9.204  22.535  0.00  0.00    +0.000 C 
ATOM     25  C   UNL     1      -0.208  10.672  22.526  0.00  0.00    +0.000 C 
ATOM     26  C   UNL     1       0.353  10.902  21.126  0.00  0.00    +0.000 C 
ENDBRANCH  19  20
ENDBRANCH   8  19
TORSDOF 3
ENDMDL
MODEL 6
REMARK VINA RESULT:      -6.9      3.431      7.844
REMARK  Name = 
REMARK  4 active torsions:
REMARK  status: ('A' for Active; 'I' for Inactive)
REMARK    1  A    between atoms: C_1  and  S_2
REMARK    2  A    between atoms: S_2  and  N_5
REMARK    3  A    between atoms: C_12  and  C_13
REMARK    4  A    between atoms: C_13  and  C_14
REMARK                            x       y       z     vdW  Elec       q    Type
REMARK                         _______ _______ _______ _____ _____    ______ ____
ROOT
ATOM      1  N   UNL     1       2.571   2.082  19.817  0.00  0.00    +0.000 NA
ATOM      2  C   UNL     1       2.145   2.141  18.398  0.00  0.00    +0.000 C 
ATOM      3  C   UNL     1       2.289   3.543  17.821  0.00  0.00    +0.000 C 
ATOM      4  C   UNL     1       3.693   4.147  18.055  0.00  0.00    +0.000 C 
ATOM      5  C   UNL     1       4.191   3.925  19.499  0.00  0.00    +0.000 C 
ATOM      6  C   UNL     1       3.999   2.483  19.954  0.00  0.00    +0.000 C 
ATOM      7  C   UNL     1       4.715   3.561  17.038  0.00  0.00    +0.000 C 
ATOM      8  C   UNL     1       5.341   4.711  16.210  0.00  0.00    +0.000 C 
ATOM      9  C   UNL     1       4.623   5.927  16.718  0.00  0.00    +0.000 A 
ATOM     10  C   UNL     1       4.804   7.243  16.307  0.00  0.00    +0.000 A 
ATOM     11  C   UNL     1       4.039   8.250  16.900  0.00  0.00    +0.000 A 
ATOM     12  C   UNL     1       3.106   7.938  17.894  0.00  0.00    +0.000 A 
ATOM     13  C   UNL     1       2.936   6.617  18.309  0.00  0.00    +0.000 A 
ATOM     14  C   UNL     1       3.704   5.618  17.718  0.00  0.00    +0.000 A 
ENDROOT
BRANCH   1  16
ATOM     15  C   UNL     1       2.267   4.275  21.405  0.00  0.00    +0.000 C 
ATOM     16  S   UNL     1       1.538   2.701  21.022  0.00  0.00    +0.000 S 
ATOM     17  O   UNL     1       1.642   1.864  22.200  0.00  0.00    +0.000 OA
ATOM     18  O   UNL     1       0.254   2.951  20.406  0.00  0.00    +0.000 OA
ENDBRANCH   1  16
BRANCH   8  19
ATOM     19  C   UNL     1       5.127   4.514  14.709  0.00  0.00    +0.000 C 
BRANCH  19  20
ATOM     20  C   UNL     1       6.429   4.423  13.931  0.00  0.00    +0.000 C 
ATOM     21  O   UNL     1       7.450   5.010  14.282  0.00  0.00    +0.000 OA
ATOM     22  N   UNL     1       6.398   3.616  12.815  0.00  0.00    +0.000 N 
ATOM     23  C   UNL     1       5.249   2.930  12.255  0.00  0.00    +0.000 C 
ATOM     24  C   UNL     1       5.869   1.790  11.471  0.00  0.00    +0.000 C 
ATOM     25  C   UNL     1       7.161   2.396  10.937  0.00  0.00    +0.000 C 
ATOM     26  C   UNL     1       7.588   3.388  12.014  0.00  0.00    +0.000 C 
ENDBRANCH  19  20
ENDBRANCH   8  19
TORSDOF 3
ENDMDL
MODEL 7
REMARK VINA RESULT:      -6.7      1.258      1.769
REMARK  Name = 
REMARK  4 active torsions:
REMARK  status: ('A' for Active; 'I' for Inactive)
REMARK    1  A    between atoms: C_1  and  S_2
REMARK    2  A    between atoms: S_2  and  N_5
REMARK    3  A    between atoms: C_12  and  C_13
REMARK    4  A    between atoms: C_13  and  C_14
REMARK                            x       y       z     vdW  Elec       q    Type
REMARK                         _______ _______ _______ _____ _____    ______ ____
ROOT
ATOM      1  N   UNL     1       6.025   6.342  17.128  0.00  0.00    +0.000 NA
ATOM      2  C   UNL     1       4.663   6.828  16.805  0.00  0.00    +0.000 C 
ATOM      3  C   UNL     1       3.587   5.882  17.324  0.00  0.00    +0.000 C 
ATOM      4  C   UNL     1       3.765   5.532  18.818  0.00  0.00    +0.000 C 
ATOM      5  C   UNL     1       5.229   5.193  19.169  0.00  0.00    +0.000 C 
ATOM      6  C   UNL     1       6.205   6.217  18.601  0.00  0.00    +0.000 C 
ATOM      7  C   UNL     1       3.254   6.696  19.716  0.00  0.00    +0.000 C 
ATOM      8  C   UNL     1       2.133   6.179  20.651  0.00  0.00    +0.000 C 
ATOM      9  C   UNL     1       1.973   4.747  20.231  0.00  0.00    +0.000 A 
ATOM     10  C   UNL     1       1.088   3.811  20.755  0.00  0.00    +0.000 A 
ATOM     11  C   UNL     1       1.085   2.516  20.234  0.00  0.00    +0.000 A 
ATOM     12  C   UNL     1       1.960   2.165  19.201  0.00  0.00    +0.000 A 
ATOM     13  C   UNL     1       2.852   3.105  18.686  0.00  0.00    +0.000 A 
ATOM     14  C   UNL     1       2.855   4.394  19.213  0.00  0.00    +0.000 A 
ENDROOT
BRANCH   1  16
ATOM     15  C   UNL     1       7.835   4.317  17.354  0.00  0.00    +0.000 C 
ATOM     16  S   UNL     1       6.690   5.063  16.217  0.00  0.00    +0.000 S 
ATOM     17  O   UNL     1       7.452   5.620  15.119  0.00  0.00    +0.000 OA
ATOM     18  O   UNL     1       5.631   4.109  15.973  0.00  0.00    +0.000 OA
ENDBRANCH   1  16
BRANCH   8  19
ATOM     19  C   UNL     1       0.835   6.968  20.474  0.00  0.00    +0.000 C 
BRANCH  19  20
ATOM     20  C   UNL     1       1.072   8.422  20.102  0.00  0.00    +0.000 C 
ATOM     21  O   UNL     1       1.613   8.755  19.050  0.00  0.00    +0.000 OA
ATOM     22  N   UNL     1       0.614   9.349  21.012  0.00  0.00    +0.000 N 
ATOM     23  C   UNL     1       0.027   9.091  22.314  0.00  0.00    +0.000 C 
ATOM     24  C   UNL     1      -0.792  10.339  22.582  0.00  0.00    +0.000 C 
ATOM     25  C   UNL     1       0.041  11.446  21.947  0.00  0.00    +0.000 C 
ATOM     26  C   UNL     1       0.717  10.775  20.755  0.00  0.00    +0.000 C 
ENDBRANCH  19  20
ENDBRANCH   8  19
TORSDOF 3
ENDMDL
MODEL 8
REMARK VINA RESULT:      -6.6      4.709      9.578
REMARK  Name = 
REMARK  4 active torsions:
REMARK  status: ('A' for Active; 'I' for Inactive)
REMARK    1  A    between atoms: C_1  and  S_2
REMARK    2  A    between atoms: S_2  and  N_5
REMARK    3  A    between atoms: C_12  and  C_13
REMARK    4  A    between atoms: C_13  and  C_14
REMARK                            x       y       z     vdW  Elec       q    Type
REMARK                         _______ _______ _______ _____ _____    ______ ____
ROOT
ATOM      1  N   UNL     1      -1.228  13.598  22.906  0.00  0.00    +0.000 NA
ATOM      2  C   UNL     1      -1.120  12.130  23.078  0.00  0.00    +0.000 C 
ATOM      3  C   UNL     1      -1.577  11.378  21.836  0.00  0.00    +0.000 C 
ATOM      4  C   UNL     1      -0.898  11.886  20.543  0.00  0.00    +0.000 C 
ATOM      5  C   UNL     1      -0.869  13.426  20.464  0.00  0.00    +0.000 C 
ATOM      6  C   UNL     1      -0.387  14.057  21.765  0.00  0.00    +0.000 C 
ATOM      7  C   UNL     1       0.546  11.315  20.426  0.00  0.00    +0.000 C 
ATOM      8  C   UNL     1       0.681  10.506  19.112  0.00  0.00    +0.000 C 
ATOM      9  C   UNL     1      -0.701  10.570  18.530  0.00  0.00    +0.000 A 
ATOM     10  C   UNL     1      -1.138  10.001  17.339  0.00  0.00    +0.000 A 
ATOM     11  C   UNL     1      -2.471  10.169  16.956  0.00  0.00    +0.000 A 
ATOM     12  C   UNL     1      -3.351  10.900  17.760  0.00  0.00    +0.000 A 
ATOM     13  C   UNL     1      -2.905  11.477  18.948  0.00  0.00    +0.000 A 
ATOM     14  C   UNL     1      -1.574  11.311  19.323  0.00  0.00    +0.000 A 
ENDROOT
BRANCH   1  16
ATOM     15  C   UNL     1      -2.948  14.633  24.747  0.00  0.00    +0.000 C 
ATOM     16  S   UNL     1      -2.760  14.337  23.005  0.00  0.00    +0.000 S 
ATOM     17  O   UNL     1      -3.768  13.377  22.605  0.00  0.00    +0.000 OA
ATOM     18  O   UNL     1      -2.664  15.623  22.350  0.00  0.00    +0.000 OA
ENDBRANCH   1  16
BRANCH   8  19
ATOM     19  C   UNL     1       1.118   9.065  19.374  0.00  0.00    +0.000 C 
BRANCH  19  20
ATOM     20  C   UNL     1       2.052   8.526  18.303  0.00  0.00    +0.000 C 
ATOM     21  O   UNL     1       2.318   9.153  17.281  0.00  0.00    +0.000 OA
ATOM     22  N   UNL     1       2.606   7.292  18.566  0.00  0.00    +0.000 N 
ATOM     23  C   UNL     1       2.324   6.421  19.691  0.00  0.00    +0.000 C 
ATOM     24  C   UNL     1       3.570   5.561  19.791  0.00  0.00    +0.000 C 
ATOM     25  C   UNL     1       3.988   5.385  18.336  0.00  0.00    +0.000 C 
ATOM     26  C   UNL     1       3.566   6.686  17.660  0.00  0.00    +0.000 C 
ENDBRANCH  19  20
ENDBRANCH   8  19
TORSDOF 3
ENDMDL
MODEL 9
REMARK VINA RESULT:      -6.4      4.164      8.560
REMARK  Name = 
REMARK  4 active torsions:
REMARK  status: ('A' for Active; 'I' for Inactive)
REMARK    1  A    between atoms: C_1  and  S_2
REMARK    2  A    between atoms: S_2  and  N_5
REMARK    3  A    between atoms: C_12  and  C_13
REMARK    4  A    between atoms: C_13  and  C_14
REMARK                            x       y       z     vdW  Elec       q    Type
REMARK                         _______ _______ _______ _____ _____    ______ ____
ROOT
ATOM      1  N   UNL     1       0.759  14.394  18.582  0.00  0.00    +0.000 NA
ATOM      2  C   UNL     1       1.971  13.721  19.107  0.00  0.00    +0.000 C 
ATOM      3  C   UNL     1       1.636  12.747  20.229  0.00  0.00    +0.000 C 
ATOM      4  C   UNL     1       0.513  11.756  19.849  0.00  0.00    +0.000 C 
ATOM      5  C   UNL     1      -0.670  12.455  19.147  0.00  0.00    +0.000 C 
ATOM      6  C   UNL     1      -0.204  13.395  18.041  0.00  0.00    +0.000 C 
ATOM      7  C   UNL     1       1.073  10.616  18.949  0.00  0.00    +0.000 C 
ATOM      8  C   UNL     1       0.823   9.247  19.629  0.00  0.00    +0.000 C 
ATOM      9  C   UNL     1       0.184   9.626  20.933  0.00  0.00    +0.000 A 
ATOM     10  C   UNL     1      -0.248   8.767  21.938  0.00  0.00    +0.000 A 
ATOM     11  C   UNL     1      -0.824   9.308  23.090  0.00  0.00    +0.000 A 
ATOM     12  C   UNL     1      -0.966  10.692  23.228  0.00  0.00    +0.000 A 
ATOM     13  C   UNL     1      -0.540  11.548  22.213  0.00  0.00    +0.000 A 
ATOM     14  C   UNL     1       0.030  11.003  21.064  0.00  0.00    +0.000 A 
ENDROOT
BRANCH   1  16
ATOM     15  C   UNL     1       1.457  16.506  20.155  0.00  0.00    +0.000 C 
ATOM     16  S   UNL     1       0.049  15.654  19.483  0.00  0.00    +0.000 S 
ATOM     17  O   UNL     1      -0.692  15.078  20.586  0.00  0.00    +0.000 OA
ATOM     18  O   UNL     1      -0.597  16.546  18.546  0.00  0.00    +0.000 OA
ENDBRANCH   1  16
BRANCH   8  19
ATOM     19  C   UNL     1       2.124   8.471  19.841  0.00  0.00    +0.000 C 
BRANCH  19  20
ATOM     20  C   UNL     1       2.374   7.428  18.764  0.00  0.00    +0.000 C 
ATOM     21  O   UNL     1       2.683   7.728  17.614  0.00  0.00    +0.000 OA
ATOM     22  N   UNL     1       2.256   6.117  19.170  0.00  0.00    +0.000 N 
ATOM     23  C   UNL     1       1.830   5.631  20.469  0.00  0.00    +0.000 C 
ATOM     24  C   UNL     1       2.440   4.244  20.541  0.00  0.00    +0.000 C 
ATOM     25  C   UNL     1       2.363   3.754  19.101  0.00  0.00    +0.000 C 
ATOM     26  C   UNL     1       2.530   5.017  18.261  0.00  0.00    +0.000 C 
ENDBRANCH  19  20
ENDBRANCH   8  19
TORSDOF 3
ENDMDL
