MODEL 1
REMARK VINA RESULT:      -7.1      0.000      0.000
REMARK  Name = 
REMARK  7 active torsions:
REMARK  status: ('A' for Active; 'I' for Inactive)
REMARK    1  A    between atoms: C_2  and  C_3
REMARK    2  A    between atoms: C_3  and  S_4
REMARK    3  A    between atoms: S_4  and  C_5
REMARK    4  A    between atoms: C_8  and  C_9
REMARK    5  A    between atoms: C_11  and  C_12
REMARK    6  A    between atoms: C_19  and  C_20
REMARK    7  A    between atoms: N_21  and  C_22
REMARK                            x       y       z     vdW  Elec       q    Type
REMARK                         _______ _______ _______ _____ _____    ______ ____
ROOT
ATOM      1  C   UNL     1       5.400   4.826  17.880  0.00  0.00    +0.000 A 
ATOM      2  S   UNL     1       4.889   4.529  16.266  0.00  0.00    +0.000 S 
ATOM      3  C   UNL     1       6.495   4.707  15.699  0.00  0.00    +0.000 A 
ATOM      4  N   UNL     1       7.355   5.089  16.619  0.00  0.00    +0.000 NA
ATOM      5  C   UNL     1       6.741   5.190  17.862  0.00  0.00    +0.000 A 
ATOM      6  C   UNL     1       7.575   5.656  19.002  0.00  0.00    +0.000 C 
ENDROOT
BRANCH   1  10
ATOM      7  C   UNL     1       3.087   4.174  20.550  0.00  0.00    +0.000 A 
ATOM      8  N   UNL     1       2.962   5.471  20.408  0.00  0.00    +0.000 NA
ATOM      9  N   UNL     1       3.857   5.866  19.438  0.00  0.00    +0.000 NA
ATOM     10  C   UNL     1       4.482   4.798  18.985  0.00  0.00    +0.000 A 
ATOM     11  N   UNL     1       4.076   3.705  19.725  0.00  0.00    +0.000 N 
ATOM     12  C   UNL     1       4.570   2.352  19.701  0.00  0.00    +0.000 C 
BRANCH   7  13
ATOM     13  S   UNL     1       2.154   3.156  21.595  0.00  0.00    +0.000 S 
BRANCH  13  14
ATOM     14  C   UNL     1       0.623   3.027  20.625  0.00  0.00    +0.000 C 
BRANCH  14  16
ATOM     15  C   UNL     1       1.014   3.302  18.156  0.00  0.00    +0.000 C 
ATOM     16  C   UNL     1       0.945   2.527  19.248  0.00  0.00    +0.000 C 
ENDBRANCH  14  16
ENDBRANCH  13  14
ENDBRANCH   7  13
ENDBRANCH   1  10
BRANCH   3  17
ATOM     17  C   UNL     1       6.796   4.545  14.270  0.00  0.00    +0.000 A 
ATOM     18  C   UNL     1       7.710   5.417  13.666  0.00  0.00    +0.000 A 
ATOM     19  C   UNL     1       7.962   5.351  12.295  0.00  0.00    +0.000 A 
ATOM     20  C   UNL     1       7.314   4.399  11.511  0.00  0.00    +0.000 A 
ATOM     21  C   UNL     1       6.434   3.497  12.101  0.00  0.00    +0.000 A 
ATOM     22  C   UNL     1       6.179   3.564  13.473  0.00  0.00    +0.000 A 
ENDBRANCH   3  17
TORSDOF 5
ENDMDL
MODEL 2
REMARK VINA RESULT:      -7.0      0.289      1.083
REMARK  Name = 
REMARK  7 active torsions:
REMARK  status: ('A' for Active; 'I' for Inactive)
REMARK    1  A    between atoms: C_2  and  C_3
REMARK    2  A    between atoms: C_3  and  S_4
REMARK    3  A    between atoms: S_4  and  C_5
REMARK    4  A    between atoms: C_8  and  C_9
REMARK    5  A    between atoms: C_11  and  C_12
REMARK    6  A    between atoms: C_19  and  C_20
REMARK    7  A    between atoms: N_21  and  C_22
REMARK                            x       y       z     vdW  Elec       q    Type
REMARK                         _______ _______ _______ _____ _____    ______ ____
ROOT
ATOM      1  C   UNL     1       5.418   4.791  17.873  0.00  0.00    +0.000 A 
ATOM      2  S   UNL     1       4.873   4.530  16.264  0.00  0.00    +0.000 S 
ATOM      3  C   UNL     1       6.465   4.728  15.667  0.00  0.00    +0.000 A 
ATOM      4  N   UNL     1       7.344   5.092  16.576  0.00  0.00    +0.000 NA
ATOM      5  C   UNL     1       6.757   5.161  17.834  0.00  0.00    +0.000 A 
ATOM      6  C   UNL     1       7.614   5.605  18.966  0.00  0.00    +0.000 C 
ENDROOT
BRANCH   1  10
ATOM      7  C   UNL     1       3.155   4.068  20.568  0.00  0.00    +0.000 A 
ATOM      8  N   UNL     1       3.047   5.372  20.480  0.00  0.00    +0.000 NA
ATOM      9  N   UNL     1       3.927   5.791  19.506  0.00  0.00    +0.000 NA
ATOM     10  C   UNL     1       4.525   4.733  18.997  0.00  0.00    +0.000 A 
ATOM     11  N   UNL     1       4.118   3.618  19.703  0.00  0.00    +0.000 N 
ATOM     12  C   UNL     1       4.590   2.260  19.614  0.00  0.00    +0.000 C 
BRANCH   7  13
ATOM     13  S   UNL     1       2.230   3.024  21.593  0.00  0.00    +0.000 S 
BRANCH  13  14
ATOM     14  C   UNL     1       0.630   3.074  20.733  0.00  0.00    +0.000 C 
BRANCH  14  16
ATOM     15  C   UNL     1       1.067   1.913  18.545  0.00  0.00    +0.000 C 
ATOM     16  C   UNL     1       0.859   3.035  19.251  0.00  0.00    +0.000 C 
ENDBRANCH  14  16
ENDBRANCH  13  14
ENDBRANCH   7  13
ENDBRANCH   1  10
BRANCH   3  17
ATOM     17  C   UNL     1       6.736   4.601  14.228  0.00  0.00    +0.000 A 
ATOM     18  C   UNL     1       6.048   3.630  13.491  0.00  0.00    +0.000 A 
ATOM     19  C   UNL     1       6.334   3.421  12.140  0.00  0.00    +0.000 A 
ATOM     20  C   UNL     1       7.304   4.193  11.505  0.00  0.00    +0.000 A 
ATOM     21  C   UNL     1       7.969   5.190  12.211  0.00  0.00    +0.000 A 
ATOM     22  C   UNL     1       7.684   5.399  13.563  0.00  0.00    +0.000 A 
ENDBRANCH   3  17
TORSDOF 5
ENDMDL
MODEL 3
REMARK VINA RESULT:      -6.7      3.853      7.992
REMARK  Name = 
REMARK  7 active torsions:
REMARK  status: ('A' for Active; 'I' for Inactive)
REMARK    1  A    between atoms: C_2  and  C_3
REMARK    2  A    between atoms: C_3  and  S_4
REMARK    3  A    between atoms: S_4  and  C_5
REMARK    4  A    between atoms: C_8  and  C_9
REMARK    5  A    between atoms: C_11  and  C_12
REMARK    6  A    between atoms: C_19  and  C_20
REMARK    7  A    between atoms: N_21  and  C_22
REMARK                            x       y       z     vdW  Elec       q    Type
REMARK                         _______ _______ _______ _____ _____    ______ ____
ROOT
ATOM      1  C   UNL     1       2.927   5.765  19.140  0.00  0.00    +0.000 A 
ATOM      2  S   UNL     1       2.451   7.395  18.877  0.00  0.00    +0.000 S 
ATOM      3  C   UNL     1       1.631   7.424  20.380  0.00  0.00    +0.000 A 
ATOM      4  N   UNL     1       1.593   6.263  20.999  0.00  0.00    +0.000 NA
ATOM      5  C   UNL     1       2.302   5.299  20.291  0.00  0.00    +0.000 A 
ATOM      6  C   UNL     1       2.316   3.917  20.841  0.00  0.00    +0.000 C 
ENDROOT
BRANCH   1  10
ATOM      7  C   UNL     1       5.381   4.373  16.916  0.00  0.00    +0.000 A 
ATOM      8  N   UNL     1       4.282   3.806  16.479  0.00  0.00    +0.000 NA
ATOM      9  N   UNL     1       3.255   4.216  17.301  0.00  0.00    +0.000 NA
ATOM     10  C   UNL     1       3.742   5.049  18.197  0.00  0.00    +0.000 A 
ATOM     11  N   UNL     1       5.112   5.115  18.036  0.00  0.00    +0.000 N 
ATOM     12  C   UNL     1       6.096   5.778  18.853  0.00  0.00    +0.000 C 
BRANCH   7  13
ATOM     13  S   UNL     1       6.957   4.247  16.209  0.00  0.00    +0.000 S 
BRANCH  13  14
ATOM     14  C   UNL     1       6.618   4.932  14.561  0.00  0.00    +0.000 C 
BRANCH  14  16
ATOM     15  C   UNL     1       6.484   3.656  12.398  0.00  0.00    +0.000 C 
ATOM     16  C   UNL     1       6.095   3.847  13.667  0.00  0.00    +0.000 C 
ENDBRANCH  14  16
ENDBRANCH  13  14
ENDBRANCH   7  13
ENDBRANCH   1  10
BRANCH   3  17
ATOM     17  C   UNL     1       0.949   8.646  20.827  0.00  0.00    +0.000 A 
ATOM     18  C   UNL     1       0.661   9.644  19.888  0.00  0.00    +0.000 A 
ATOM     19  C   UNL     1       0.089  10.854  20.284  0.00  0.00    +0.000 A 
ATOM     20  C   UNL     1      -0.217  11.076  21.625  0.00  0.00    +0.000 A 
ATOM     21  C   UNL     1       0.024  10.080  22.566  0.00  0.00    +0.000 A 
ATOM     22  C   UNL     1       0.598   8.869  22.170  0.00  0.00    +0.000 A 
ENDBRANCH   3  17
TORSDOF 5
ENDMDL
MODEL 4
REMARK VINA RESULT:      -6.7      3.926      8.041
REMARK  Name = 
REMARK  7 active torsions:
REMARK  status: ('A' for Active; 'I' for Inactive)
REMARK    1  A    between atoms: C_2  and  C_3
REMARK    2  A    between atoms: C_3  and  S_4
REMARK    3  A    between atoms: S_4  and  C_5
REMARK    4  A    between atoms: C_8  and  C_9
REMARK    5  A    between atoms: C_11  and  C_12
REMARK    6  A    between atoms: C_19  and  C_20
REMARK    7  A    between atoms: N_21  and  C_22
REMARK                            x       y       z     vdW  Elec       q    Type
REMARK                         _______ _______ _______ _____ _____    ______ ____
ROOT
ATOM      1  C   UNL     1       2.714   5.741  19.199  0.00  0.00    +0.000 A 
ATOM      2  S   UNL     1       2.336   7.384  18.866  0.00  0.00    +0.000 S 
ATOM      3  C   UNL     1       1.585   7.547  20.396  0.00  0.00    +0.000 A 
ATOM      4  N   UNL     1       1.497   6.425  21.079  0.00  0.00    +0.000 NA
ATOM      5  C   UNL     1       2.109   5.380  20.397  0.00  0.00    +0.000 A 
ATOM      6  C   UNL     1       2.055   4.030  21.020  0.00  0.00    +0.000 C 
ENDROOT
BRANCH   1  10
ATOM      7  C   UNL     1       4.887   4.162  16.814  0.00  0.00    +0.000 A 
ATOM      8  N   UNL     1       3.836   3.378  16.767  0.00  0.00    +0.000 NA
ATOM      9  N   UNL     1       2.935   3.847  17.699  0.00  0.00    +0.000 NA
ATOM     10  C   UNL     1       3.438   4.924  18.265  0.00  0.00    +0.000 A 
ATOM     11  N   UNL     1       4.719   5.114  17.785  0.00  0.00    +0.000 N 
ATOM     12  C   UNL     1       5.717   6.067  18.198  0.00  0.00    +0.000 C 
BRANCH   7  13
ATOM     13  S   UNL     1       6.292   4.062  15.807  0.00  0.00    +0.000 S 
BRANCH  13  14
ATOM     14  C   UNL     1       5.551   4.442  14.192  0.00  0.00    +0.000 C 
BRANCH  14  16
ATOM     15  C   UNL     1       5.672   3.160  12.032  0.00  0.00    +0.000 C 
ATOM     16  C   UNL     1       6.264   3.670  13.121  0.00  0.00    +0.000 C 
ENDBRANCH  14  16
ENDBRANCH  13  14
ENDBRANCH   7  13
ENDBRANCH   1  10
BRANCH   3  17
ATOM     17  C   UNL     1       1.005   8.835  20.802  0.00  0.00    +0.000 A 
ATOM     18  C   UNL     1       0.602   9.009  22.131  0.00  0.00    +0.000 A 
ATOM     19  C   UNL     1      -0.029  10.186  22.539  0.00  0.00    +0.000 A 
ATOM     20  C   UNL     1      -0.251  11.212  21.623  0.00  0.00    +0.000 A 
ATOM     21  C   UNL     1       0.180  11.072  20.308  0.00  0.00    +0.000 A 
ATOM     22  C   UNL     1       0.809   9.895  19.899  0.00  0.00    +0.000 A 
ENDBRANCH   3  17
TORSDOF 5
ENDMDL
MODEL 5
REMARK VINA RESULT:      -6.5      4.186      7.808
REMARK  Name = 
REMARK  7 active torsions:
REMARK  status: ('A' for Active; 'I' for Inactive)
REMARK    1  A    between atoms: C_2  and  C_3
REMARK    2  A    between atoms: C_3  and  S_4
REMARK    3  A    between atoms: S_4  and  C_5
REMARK    4  A    between atoms: C_8  and  C_9
REMARK    5  A    between atoms: C_11  and  C_12
REMARK    6  A    between atoms: C_19  and  C_20
REMARK    7  A    between atoms: N_21  and  C_22
REMARK                            x       y       z     vdW  Elec       q    Type
REMARK                         _______ _______ _______ _____ _____    ______ ____
ROOT
ATOM      1  C   UNL     1       3.002   6.207  18.698  0.00  0.00    +0.000 A 
ATOM      2  S   UNL     1       2.546   7.743  18.077  0.00  0.00    +0.000 S 
ATOM      3  C   UNL     1       1.731   8.118  19.536  0.00  0.00    +0.000 A 
ATOM      4  N   UNL     1       1.681   7.125  20.399  0.00  0.00    +0.000 NA
ATOM      5  C   UNL     1       2.375   6.019  19.924  0.00  0.00    +0.000 A 
ATOM      6  C   UNL     1       2.374   4.795  20.770  0.00  0.00    +0.000 C 
ENDROOT
BRANCH   1  10
ATOM      7  C   UNL     1       5.368   4.370  16.715  0.00  0.00    +0.000 A 
ATOM      8  N   UNL     1       4.333   3.566  16.695  0.00  0.00    +0.000 NA
ATOM      9  N   UNL     1       3.357   4.135  17.485  0.00  0.00    +0.000 NA
ATOM     10  C   UNL     1       3.805   5.288  17.940  0.00  0.00    +0.000 A 
ATOM     11  N   UNL     1       5.117   5.439  17.535  0.00  0.00    +0.000 N 
ATOM     12  C   UNL     1       6.070   6.459  17.892  0.00  0.00    +0.000 C 
BRANCH   7  13
ATOM     13  S   UNL     1       6.848   4.166  15.839  0.00  0.00    +0.000 S 
BRANCH  13  14
ATOM     14  C   UNL     1       6.365   4.870  14.236  0.00  0.00    +0.000 C 
BRANCH  14  16
ATOM     15  C   UNL     1       6.418   3.406  12.191  0.00  0.00    +0.000 C 
ATOM     16  C   UNL     1       5.848   3.777  13.346  0.00  0.00    +0.000 C 
ENDBRANCH  14  16
ENDBRANCH  13  14
ENDBRANCH   7  13
ENDBRANCH   1  10
BRANCH   3  17
ATOM     17  C   UNL     1       1.065   9.418  19.698  0.00  0.00    +0.000 A 
ATOM     18  C   UNL     1       0.293   9.647  20.843  0.00  0.00    +0.000 A 
ATOM     19  C   UNL     1      -0.422  10.836  20.996  0.00  0.00    +0.000 A 
ATOM     20  C   UNL     1      -0.361  11.819  20.011  0.00  0.00    +0.000 A 
ATOM     21  C   UNL     1       0.433  11.626  18.886  0.00  0.00    +0.000 A 
ATOM     22  C   UNL     1       1.148  10.436  18.731  0.00  0.00    +0.000 A 
ENDBRANCH   3  17
TORSDOF 5
ENDMDL
MODEL 6
REMARK VINA RESULT:      -6.5      0.844      1.724
REMARK  Name = 
REMARK  7 active torsions:
REMARK  status: ('A' for Active; 'I' for Inactive)
REMARK    1  A    between atoms: C_2  and  C_3
REMARK    2  A    between atoms: C_3  and  S_4
REMARK    3  A    between atoms: S_4  and  C_5
REMARK    4  A    between atoms: C_8  and  C_9
REMARK    5  A    between atoms: C_11  and  C_12
REMARK    6  A    between atoms: C_19  and  C_20
REMARK    7  A    between atoms: N_21  and  C_22
REMARK                            x       y       z     vdW  Elec       q    Type
REMARK                         _______ _______ _______ _____ _____    ______ ____
ROOT
ATOM      1  C   UNL     1       5.733   4.194  17.748  0.00  0.00    +0.000 A 
ATOM      2  S   UNL     1       5.247   3.920  16.123  0.00  0.00    +0.000 S 
ATOM      3  C   UNL     1       6.701   4.618  15.545  0.00  0.00    +0.000 A 
ATOM      4  N   UNL     1       7.460   5.143  16.483  0.00  0.00    +0.000 NA
ATOM      5  C   UNL     1       6.908   4.936  17.742  0.00  0.00    +0.000 A 
ATOM      6  C   UNL     1       7.629   5.513  18.909  0.00  0.00    +0.000 C 
ENDROOT
BRANCH   1  10
ATOM      7  C   UNL     1       3.476   3.723  20.503  0.00  0.00    +0.000 A 
ATOM      8  N   UNL     1       4.301   2.716  20.667  0.00  0.00    +0.000 NA
ATOM      9  N   UNL     1       5.197   2.746  19.620  0.00  0.00    +0.000 NA
ATOM     10  C   UNL     1       4.922   3.788  18.863  0.00  0.00    +0.000 A 
ATOM     11  N   UNL     1       3.780   4.394  19.348  0.00  0.00    +0.000 N 
ATOM     12  C   UNL     1       3.013   5.477  18.787  0.00  0.00    +0.000 C 
BRANCH   7  13
ATOM     13  S   UNL     1       2.192   4.187  21.568  0.00  0.00    +0.000 S 
BRANCH  13  14
ATOM     14  C   UNL     1       1.001   2.859  21.224  0.00  0.00    +0.000 C 
BRANCH  14  16
ATOM     15  C   UNL     1       0.894   2.265  18.782  0.00  0.00    +0.000 C 
ATOM     16  C   UNL     1       0.483   3.004  19.823  0.00  0.00    +0.000 C 
ENDBRANCH  14  16
ENDBRANCH  13  14
ENDBRANCH   7  13
ENDBRANCH   1  10
BRANCH   3  17
ATOM     17  C   UNL     1       6.961   4.694  14.101  0.00  0.00    +0.000 A 
ATOM     18  C   UNL     1       6.336   3.775  13.249  0.00  0.00    +0.000 A 
ATOM     19  C   UNL     1       6.620   3.760  11.882  0.00  0.00    +0.000 A 
ATOM     20  C   UNL     1       7.523   4.676  11.347  0.00  0.00    +0.000 A 
ATOM     21  C   UNL     1       8.122   5.622  12.171  0.00  0.00    +0.000 A 
ATOM     22  C   UNL     1       7.840   5.637  13.539  0.00  0.00    +0.000 A 
ENDBRANCH   3  17
TORSDOF 5
ENDMDL
MODEL 7
REMARK VINA RESULT:      -6.4      5.700      7.550
REMARK  Name = 
REMARK  7 active torsions:
REMARK  status: ('A' for Active; 'I' for Inactive)
REMARK    1  A    between atoms: C_2  and  C_3
REMARK    2  A    between atoms: C_3  and  S_4
REMARK    3  A    between atoms: S_4  and  C_5
REMARK    4  A    between atoms: C_8  and  C_9
REMARK    5  A    between atoms: C_11  and  C_12
REMARK    6  A    between atoms: C_19  and  C_20
REMARK    7  A    between atoms: N_21  and  C_22
REMARK                            x       y       z     vdW  Elec       q    Type
REMARK                         _______ _______ _______ _____ _____    ______ ____
ROOT
ATOM      1  C   UNL     1       1.638   7.876  20.132  0.00  0.00    +0.000 A 
ATOM      2  S   UNL     1       1.654   6.209  20.551  0.00  0.00    +0.000 S 
ATOM      3  C   UNL     1       2.496   5.830  19.109  0.00  0.00    +0.000 A 
ATOM      4  N   UNL     1       2.655   6.849  18.290  0.00  0.00    +0.000 NA
ATOM      5  C   UNL     1       2.145   8.016  18.846  0.00  0.00    +0.000 A 
ATOM      6  C   UNL     1       2.209   9.252  18.021  0.00  0.00    +0.000 C 
ENDROOT
BRANCH   1  10
ATOM      7  C   UNL     1      -0.012  10.606  21.784  0.00  0.00    +0.000 A 
ATOM      8  N   UNL     1       0.772  10.160  22.737  0.00  0.00    +0.000 NA
ATOM      9  N   UNL     1       1.427   9.054  22.243  0.00  0.00    +0.000 NA
ATOM     10  C   UNL     1       1.058   8.870  20.992  0.00  0.00    +0.000 A 
ATOM     11  N   UNL     1       0.078   9.793  20.684  0.00  0.00    +0.000 N 
ATOM     12  C   UNL     1      -0.728   9.906  19.496  0.00  0.00    +0.000 C 
BRANCH   7  13
ATOM     13  S   UNL     1      -1.016  12.015  21.850  0.00  0.00    +0.000 S 
BRANCH  13  14
ATOM     14  C   UNL     1      -2.078  11.580  23.258  0.00  0.00    +0.000 C 
BRANCH  14  16
ATOM     15  C   UNL     1      -4.185  12.586  24.193  0.00  0.00    +0.000 C 
ATOM     16  C   UNL     1      -3.020  12.713  23.543  0.00  0.00    +0.000 C 
ENDBRANCH  14  16
ENDBRANCH  13  14
ENDBRANCH   7  13
ENDBRANCH   1  10
BRANCH   3  17
ATOM     17  C   UNL     1       2.878   4.441  18.819  0.00  0.00    +0.000 A 
ATOM     18  C   UNL     1       2.233   3.763  17.778  0.00  0.00    +0.000 A 
ATOM     19  C   UNL     1       2.507   2.418  17.523  0.00  0.00    +0.000 A 
ATOM     20  C   UNL     1       3.443   1.737  18.298  0.00  0.00    +0.000 A 
ATOM     21  C   UNL     1       4.124   2.406  19.309  0.00  0.00    +0.000 A 
ATOM     22  C   UNL     1       3.850   3.751  19.566  0.00  0.00    +0.000 A 
ENDBRANCH   3  17
TORSDOF 5
ENDMDL
MODEL 8
REMARK VINA RESULT:      -6.4      6.693      8.008
REMARK  Name = 
REMARK  7 active torsions:
REMARK  status: ('A' for Active; 'I' for Inactive)
REMARK    1  A    between atoms: C_2  and  C_3
REMARK    2  A    between atoms: C_3  and  S_4
REMARK    3  A    between atoms: S_4  and  C_5
REMARK    4  A    between atoms: C_8  and  C_9
REMARK    5  A    between atoms: C_11  and  C_12
REMARK    6  A    between atoms: C_19  and  C_20
REMARK    7  A    between atoms: N_21  and  C_22
REMARK                            x       y       z     vdW  Elec       q    Type
REMARK                         _______ _______ _______ _____ _____    ______ ____
ROOT
ATOM      1  C   UNL     1       0.914   9.549  19.349  0.00  0.00    +0.000 A 
ATOM      2  S   UNL     1       1.757   9.026  17.945  0.00  0.00    +0.000 S 
ATOM      3  C   UNL     1       2.313   7.632  18.770  0.00  0.00    +0.000 A 
ATOM      4  N   UNL     1       2.006   7.600  20.050  0.00  0.00    +0.000 NA
ATOM      5  C   UNL     1       1.234   8.701  20.402  0.00  0.00    +0.000 A 
ATOM      6  C   UNL     1       0.842   8.833  21.831  0.00  0.00    +0.000 C 
ENDROOT
BRANCH   1  10
ATOM      7  C   UNL     1      -0.672  12.742  19.789  0.00  0.00    +0.000 A 
ATOM      8  N   UNL     1      -1.601  12.077  19.145  0.00  0.00    +0.000 NA
ATOM      9  N   UNL     1      -1.086  10.832  18.855  0.00  0.00    +0.000 NA
ATOM     10  C   UNL     1       0.128  10.752  19.359  0.00  0.00    +0.000 A 
ATOM     11  N   UNL     1       0.462  11.980  19.896  0.00  0.00    +0.000 N 
ATOM     12  C   UNL     1       1.720  12.429  20.434  0.00  0.00    +0.000 C 
BRANCH   7  13
ATOM     13  S   UNL     1      -0.815  14.339  20.444  0.00  0.00    +0.000 S 
BRANCH  13  14
ATOM     14  C   UNL     1      -1.904  14.003  21.859  0.00  0.00    +0.000 C 
BRANCH  14  16
ATOM     15  C   UNL     1      -1.747  11.843  23.137  0.00  0.00    +0.000 C 
ATOM     16  C   UNL     1      -1.234  13.031  22.785  0.00  0.00    +0.000 C 
ENDBRANCH  14  16
ENDBRANCH  13  14
ENDBRANCH   7  13
ENDBRANCH   1  10
BRANCH   3  17
ATOM     17  C   UNL     1       3.157   6.650  18.075  0.00  0.00    +0.000 A 
ATOM     18  C   UNL     1       4.231   7.104  17.301  0.00  0.00    +0.000 A 
ATOM     19  C   UNL     1       5.006   6.211  16.559  0.00  0.00    +0.000 A 
ATOM     20  C   UNL     1       4.726   4.847  16.594  0.00  0.00    +0.000 A 
ATOM     21  C   UNL     1       3.688   4.373  17.390  0.00  0.00    +0.000 A 
ATOM     22  C   UNL     1       2.911   5.266  18.131  0.00  0.00    +0.000 A 
ENDBRANCH   3  17
TORSDOF 5
ENDMDL
MODEL 9
REMARK VINA RESULT:      -6.3      4.054      7.926
REMARK  Name = 
REMARK  7 active torsions:
REMARK  status: ('A' for Active; 'I' for Inactive)
REMARK    1  A    between atoms: C_2  and  C_3
REMARK    2  A    between atoms: C_3  and  S_4
REMARK    3  A    between atoms: S_4  and  C_5
REMARK    4  A    between atoms: C_8  and  C_9
REMARK    5  A    between atoms: C_11  and  C_12
REMARK    6  A    between atoms: C_19  and  C_20
REMARK    7  A    between atoms: N_21  and  C_22
REMARK                            x       y       z     vdW  Elec       q    Type
REMARK                         _______ _______ _______ _____ _____    ______ ____
ROOT
ATOM      1  C   UNL     1       3.534   6.795  18.123  0.00  0.00    +0.000 A 
ATOM      2  S   UNL     1       2.601   8.219  17.886  0.00  0.00    +0.000 S 
ATOM      3  C   UNL     1       1.955   8.087  19.466  0.00  0.00    +0.000 A 
ATOM      4  N   UNL     1       2.301   6.989  20.104  0.00  0.00    +0.000 NA
ATOM      5  C   UNL     1       3.177   6.227  19.340  0.00  0.00    +0.000 A 
ATOM      6  C   UNL     1       3.627   4.927  19.907  0.00  0.00    +0.000 C 
ENDROOT
BRANCH   1  10
ATOM      7  C   UNL     1       5.584   4.998  15.783  0.00  0.00    +0.000 A 
ATOM      8  N   UNL     1       6.103   6.201  15.714  0.00  0.00    +0.000 NA
ATOM      9  N   UNL     1       5.354   7.017  16.533  0.00  0.00    +0.000 NA
ATOM     10  C   UNL     1       4.420   6.290  17.111  0.00  0.00    +0.000 A 
ATOM     11  N   UNL     1       4.482   5.009  16.598  0.00  0.00    +0.000 N 
ATOM     12  C   UNL     1       3.592   3.896  16.811  0.00  0.00    +0.000 C 
BRANCH   7  13
ATOM     13  S   UNL     1       6.177   3.573  14.998  0.00  0.00    +0.000 S 
BRANCH  13  14
ATOM     14  C   UNL     1       6.380   4.207  13.307  0.00  0.00    +0.000 C 
BRANCH  14  16
ATOM     15  C   UNL     1       4.625   3.342  11.727  0.00  0.00    +0.000 C 
ATOM     16  C   UNL     1       5.815   3.217  12.331  0.00  0.00    +0.000 C 
ENDBRANCH  14  16
ENDBRANCH  13  14
ENDBRANCH   7  13
ENDBRANCH   1  10
BRANCH   3  17
ATOM     17  C   UNL     1       1.007   9.094  19.963  0.00  0.00    +0.000 A 
ATOM     18  C   UNL     1       0.706   9.127  21.330  0.00  0.00    +0.000 A 
ATOM     19  C   UNL     1      -0.251  10.012  21.831  0.00  0.00    +0.000 A 
ATOM     20  C   UNL     1      -0.908  10.888  20.971  0.00  0.00    +0.000 A 
ATOM     21  C   UNL     1      -0.592  10.898  19.616  0.00  0.00    +0.000 A 
ATOM     22  C   UNL     1       0.363  10.012  19.114  0.00  0.00    +0.000 A 
ENDBRANCH   3  17
TORSDOF 5
ENDMDL
