MODEL 1
REMARK VINA RESULT:      -7.3      0.000      0.000
REMARK  Name = 
REMARK  5 active torsions:
REMARK  status: ('A' for Active; 'I' for Inactive)
REMARK    1  A    between atoms: N_1  and  C_2
REMARK    2  A    between atoms: C_5  and  N_6
REMARK    3  A    between atoms: C_7  and  C_9
REMARK    4  A    between atoms: C_9  and  C_10
REMARK    5  A    between atoms: C_17  and  O_18
REMARK                            x       y       z     vdW  Elec       q    Type
REMARK                         _______ _______ _______ _____ _____    ______ ____
ROOT
ATOM      1  N   UNL     1       8.617   7.980  18.993  0.00  0.00    +0.000 N 
ATOM      2  C   UNL     1       8.593   9.308  18.596  0.00  0.00    +0.000 C 
ATOM      3  O   UNL     1       7.899   9.783  17.699  0.00  0.00    +0.000 OA
ATOM      4  H   UNL     1       9.164   7.743  19.813  0.00  0.00    +0.000 HD
ENDROOT
BRANCH   1   8
ATOM      5  C   UNL     1       6.462   4.784  17.190  0.00  0.00    +0.000 A 
ATOM      6  C   UNL     1       6.805   5.915  16.450  0.00  0.00    +0.000 A 
ATOM      7  C   UNL     1       7.499   6.977  17.039  0.00  0.00    +0.000 A 
ATOM      8  C   UNL     1       7.911   6.918  18.371  0.00  0.00    +0.000 A 
ATOM      9  C   UNL     1       7.646   5.740  19.080  0.00  0.00    +0.000 A 
ATOM     10  C   UNL     1       6.948   4.676  18.494  0.00  0.00    +0.000 A 
BRANCH   5  11
ATOM     11  N   UNL     1       5.849   3.696  16.559  0.00  0.00    +0.000 N 
ATOM     12  H   UNL     1       5.133   3.964  15.891  0.00  0.00    +0.000 HD
ATOM     13  H   UNL     1       5.518   2.984  17.204  0.00  0.00    +0.000 HD
ENDBRANCH   5  11
BRANCH   9  14
ATOM     14  O   UNL     1       8.032   5.569  20.384  0.00  0.00    +0.000 OA
ATOM     15  H   UNL     1       8.367   4.663  20.473  0.00  0.00    +0.000 HD
ENDBRANCH   9  14
ENDBRANCH   1   8
BRANCH   2  16
ATOM     16  C   UNL     1       9.497  10.215  19.418  0.00  0.00    +0.000 C 
BRANCH  16  17
ATOM     17  C   UNL     1       9.852  11.507  18.718  0.00  0.00    +0.000 A 
ATOM     18  C   UNL     1       9.146  12.685  19.008  0.00  0.00    +0.000 A 
ATOM     19  C   UNL     1       9.506  13.891  18.403  0.00  0.00    +0.000 A 
ATOM     20  C   UNL     1      10.575  13.932  17.511  0.00  0.00    +0.000 A 
ATOM     21 CL   UNL     1      11.025  15.425  16.784  0.00  0.00    +0.000 Cl
ATOM     22  C   UNL     1      11.287  12.774  17.213  0.00  0.00    +0.000 A 
ATOM     23  C   UNL     1      10.928  11.567  17.817  0.00  0.00    +0.000 A 
ENDBRANCH  16  17
ENDBRANCH   2  16
TORSDOF 5
ENDMDL
MODEL 2
REMARK VINA RESULT:      -7.3      5.904      7.649
REMARK  Name = 
REMARK  5 active torsions:
REMARK  status: ('A' for Active; 'I' for Inactive)
REMARK    1  A    between atoms: N_1  and  C_2
REMARK    2  A    between atoms: C_5  and  N_6
REMARK    3  A    between atoms: C_7  and  C_9
REMARK    4  A    between atoms: C_9  and  C_10
REMARK    5  A    between atoms: C_17  and  O_18
REMARK                            x       y       z     vdW  Elec       q    Type
REMARK                         _______ _______ _______ _____ _____    ______ ____
ROOT
ATOM      1  N   UNL     1       4.598   5.119  18.533  0.00  0.00    +0.000 N 
ATOM      2  C   UNL     1       5.934   5.448  18.708  0.00  0.00    +0.000 C 
ATOM      3  O   UNL     1       6.624   5.173  19.687  0.00  0.00    +0.000 OA
ATOM      4  H   UNL     1       4.177   5.322  17.634  0.00  0.00    +0.000 HD
ENDROOT
BRANCH   1   8
ATOM      5  C   UNL     1       2.174   3.190  21.450  0.00  0.00    +0.000 A 
ATOM      6  C   UNL     1       1.880   4.486  21.029  0.00  0.00    +0.000 A 
ATOM      7  C   UNL     1       2.680   5.133  20.082  0.00  0.00    +0.000 A 
ATOM      8  C   UNL     1       3.769   4.487  19.496  0.00  0.00    +0.000 A 
ATOM      9  C   UNL     1       4.001   3.153  19.854  0.00  0.00    +0.000 A 
ATOM     10  C   UNL     1       3.204   2.503  20.805  0.00  0.00    +0.000 A 
BRANCH   5  11
ATOM     11  N   UNL     1       1.309   2.528  22.329  0.00  0.00    +0.000 N 
ATOM     12  H   UNL     1       1.622   2.542  23.294  0.00  0.00    +0.000 HD
ATOM     13  H   UNL     1       1.057   1.591  22.026  0.00  0.00    +0.000 HD
ENDBRANCH   5  11
BRANCH   9  14
ATOM     14  O   UNL     1       5.027   2.419  19.318  0.00  0.00    +0.000 OA
ATOM     15  H   UNL     1       4.857   2.332  18.367  0.00  0.00    +0.000 HD
ENDBRANCH   9  14
ENDBRANCH   1   8
BRANCH   2  16
ATOM     16  C   UNL     1       6.551   6.173  17.522  0.00  0.00    +0.000 C 
BRANCH  16  17
ATOM     17  C   UNL     1       6.439   5.407  16.223  0.00  0.00    +0.000 A 
ATOM     18  C   UNL     1       5.277   4.676  15.931  0.00  0.00    +0.000 A 
ATOM     19  C   UNL     1       5.148   4.012  14.710  0.00  0.00    +0.000 A 
ATOM     20  C   UNL     1       6.174   4.076  13.769  0.00  0.00    +0.000 A 
ATOM     21 CL   UNL     1       6.000   3.270  12.259  0.00  0.00    +0.000 Cl
ATOM     22  C   UNL     1       7.332   4.797  14.041  0.00  0.00    +0.000 A 
ATOM     23  C   UNL     1       7.462   5.462  15.263  0.00  0.00    +0.000 A 
ENDBRANCH  16  17
ENDBRANCH   2  16
TORSDOF 5
ENDMDL
MODEL 3
REMARK VINA RESULT:      -7.2      5.868      7.666
REMARK  Name = 
REMARK  5 active torsions:
REMARK  status: ('A' for Active; 'I' for Inactive)
REMARK    1  A    between atoms: N_1  and  C_2
REMARK    2  A    between atoms: C_5  and  N_6
REMARK    3  A    between atoms: C_7  and  C_9
REMARK    4  A    between atoms: C_9  and  C_10
REMARK    5  A    between atoms: C_17  and  O_18
REMARK                            x       y       z     vdW  Elec       q    Type
REMARK                         _______ _______ _______ _____ _____    ______ ____
ROOT
ATOM      1  N   UNL     1       4.633   5.165  18.565  0.00  0.00    +0.000 N 
ATOM      2  C   UNL     1       5.974   5.467  18.741  0.00  0.00    +0.000 C 
ATOM      3  O   UNL     1       6.666   5.154  19.708  0.00  0.00    +0.000 OA
ATOM      4  H   UNL     1       4.210   5.400  17.674  0.00  0.00    +0.000 HD
ENDROOT
BRANCH   1   8
ATOM      5  C   UNL     1       2.193   3.194  21.441  0.00  0.00    +0.000 A 
ATOM      6  C   UNL     1       1.909   4.501  21.046  0.00  0.00    +0.000 A 
ATOM      7  C   UNL     1       2.715   5.161  20.113  0.00  0.00    +0.000 A 
ATOM      8  C   UNL     1       3.799   4.519  19.515  0.00  0.00    +0.000 A 
ATOM      9  C   UNL     1       4.021   3.176  19.845  0.00  0.00    +0.000 A 
ATOM     10  C   UNL     1       3.219   2.513  20.782  0.00  0.00    +0.000 A 
BRANCH   5  11
ATOM     11  N   UNL     1       1.324   2.520  22.306  0.00  0.00    +0.000 N 
ATOM     12  H   UNL     1       1.736   2.301  23.207  0.00  0.00    +0.000 HD
ATOM     13  H   UNL     1       0.877   1.710  21.886  0.00  0.00    +0.000 HD
ENDBRANCH   5  11
BRANCH   9  14
ATOM     14  O   UNL     1       5.041   2.446  19.293  0.00  0.00    +0.000 OA
ATOM     15  H   UNL     1       4.665   1.916  18.574  0.00  0.00    +0.000 HD
ENDBRANCH   9  14
ENDBRANCH   1   8
BRANCH   2  16
ATOM     16  C   UNL     1       6.597   6.216  17.572  0.00  0.00    +0.000 C 
BRANCH  16  17
ATOM     17  C   UNL     1       6.421   5.513  16.244  0.00  0.00    +0.000 A 
ATOM     18  C   UNL     1       7.482   5.458  15.328  0.00  0.00    +0.000 A 
ATOM     19  C   UNL     1       7.340   4.765  14.124  0.00  0.00    +0.000 A 
ATOM     20  C   UNL     1       6.143   4.117  13.829  0.00  0.00    +0.000 A 
ATOM     21 CL   UNL     1       5.982   3.249  12.353  0.00  0.00    +0.000 Cl
ATOM     22  C   UNL     1       5.081   4.159  14.727  0.00  0.00    +0.000 A 
ATOM     23  C   UNL     1       5.221   4.853  15.932  0.00  0.00    +0.000 A 
ENDBRANCH  16  17
ENDBRANCH   2  16
TORSDOF 5
ENDMDL
MODEL 4
REMARK VINA RESULT:      -7.1      7.257      8.008
REMARK  Name = 
REMARK  5 active torsions:
REMARK  status: ('A' for Active; 'I' for Inactive)
REMARK    1  A    between atoms: N_1  and  C_2
REMARK    2  A    between atoms: C_5  and  N_6
REMARK    3  A    between atoms: C_7  and  C_9
REMARK    4  A    between atoms: C_9  and  C_10
REMARK    5  A    between atoms: C_17  and  O_18
REMARK                            x       y       z     vdW  Elec       q    Type
REMARK                         _______ _______ _______ _____ _____    ______ ____
ROOT
ATOM      1  N   UNL     1       2.125   6.166  18.111  0.00  0.00    +0.000 N 
ATOM      2  C   UNL     1       2.919   7.268  17.831  0.00  0.00    +0.000 C 
ATOM      3  O   UNL     1       4.115   7.244  17.547  0.00  0.00    +0.000 OA
ATOM      4  H   UNL     1       1.131   6.321  18.233  0.00  0.00    +0.000 HD
ENDROOT
BRANCH   1   8
ATOM      5  C   UNL     1       3.486   2.151  18.481  0.00  0.00    +0.000 A 
ATOM      6  C   UNL     1       2.559   2.498  17.499  0.00  0.00    +0.000 A 
ATOM      7  C   UNL     1       2.094   3.812  17.380  0.00  0.00    +0.000 A 
ATOM      8  C   UNL     1       2.578   4.825  18.210  0.00  0.00    +0.000 A 
ATOM      9  C   UNL     1       3.578   4.487  19.130  0.00  0.00    +0.000 A 
ATOM     10  C   UNL     1       4.043   3.172  19.254  0.00  0.00    +0.000 A 
BRANCH   5  11
ATOM     11  N   UNL     1       4.005   0.853  18.524  0.00  0.00    +0.000 N 
ATOM     12  H   UNL     1       3.349   0.164  18.879  0.00  0.00    +0.000 HD
ATOM     13  H   UNL     1       4.908   0.789  18.986  0.00  0.00    +0.000 HD
ENDBRANCH   5  11
BRANCH   9  14
ATOM     14  O   UNL     1       4.140   5.412  19.972  0.00  0.00    +0.000 OA
ATOM     15  H   UNL     1       4.210   6.247  19.483  0.00  0.00    +0.000 HD
ENDBRANCH   9  14
ENDBRANCH   1   8
BRANCH   2  16
ATOM     16  C   UNL     1       2.168   8.591  17.847  0.00  0.00    +0.000 C 
BRANCH  16  17
ATOM     17  C   UNL     1       1.451   8.860  19.151  0.00  0.00    +0.000 A 
ATOM     18  C   UNL     1       1.790   8.138  20.306  0.00  0.00    +0.000 A 
ATOM     19  C   UNL     1       1.168   8.421  21.524  0.00  0.00    +0.000 A 
ATOM     20  C   UNL     1       0.210   9.430  21.600  0.00  0.00    +0.000 A 
ATOM     21 CL   UNL     1      -0.538   9.786  23.107  0.00  0.00    +0.000 Cl
ATOM     22  C   UNL     1      -0.136  10.157  20.465  0.00  0.00    +0.000 A 
ATOM     23  C   UNL     1       0.485   9.875  19.246  0.00  0.00    +0.000 A 
ENDBRANCH  16  17
ENDBRANCH   2  16
TORSDOF 5
ENDMDL
MODEL 5
REMARK VINA RESULT:      -7.1      7.244      7.950
REMARK  Name = 
REMARK  5 active torsions:
REMARK  status: ('A' for Active; 'I' for Inactive)
REMARK    1  A    between atoms: N_1  and  C_2
REMARK    2  A    between atoms: C_5  and  N_6
REMARK    3  A    between atoms: C_7  and  C_9
REMARK    4  A    between atoms: C_9  and  C_10
REMARK    5  A    between atoms: C_17  and  O_18
REMARK                            x       y       z     vdW  Elec       q    Type
REMARK                         _______ _______ _______ _____ _____    ______ ____
ROOT
ATOM      1  N   UNL     1       2.197   6.125  18.131  0.00  0.00    +0.000 N 
ATOM      2  C   UNL     1       2.964   7.239  17.825  0.00  0.00    +0.000 C 
ATOM      3  O   UNL     1       4.159   7.238  17.540  0.00  0.00    +0.000 OA
ATOM      4  H   UNL     1       1.199   6.258  18.251  0.00  0.00    +0.000 HD
ENDROOT
BRANCH   1   8
ATOM      5  C   UNL     1       3.654   2.153  18.590  0.00  0.00    +0.000 A 
ATOM      6  C   UNL     1       2.740   2.461  17.583  0.00  0.00    +0.000 A 
ATOM      7  C   UNL     1       2.244   3.760  17.435  0.00  0.00    +0.000 A 
ATOM      8  C   UNL     1       2.682   4.797  18.260  0.00  0.00    +0.000 A 
ATOM      9  C   UNL     1       3.671   4.500  19.206  0.00  0.00    +0.000 A 
ATOM     10  C   UNL     1       4.167   3.199  19.359  0.00  0.00    +0.000 A 
BRANCH   5  11
ATOM     11  N   UNL     1       4.206   0.869  18.663  0.00  0.00    +0.000 N 
ATOM     12  H   UNL     1       3.701   0.178  18.118  0.00  0.00    +0.000 HD
ATOM     13  H   UNL     1       4.377   0.552  19.613  0.00  0.00    +0.000 HD
ENDBRANCH   5  11
BRANCH   9  14
ATOM     14  O   UNL     1       4.190   5.450  20.045  0.00  0.00    +0.000 OA
ATOM     15  H   UNL     1       3.445   5.942  20.425  0.00  0.00    +0.000 HD
ENDBRANCH   9  14
ENDBRANCH   1   8
BRANCH   2  16
ATOM     16  C   UNL     1       2.180   8.543  17.812  0.00  0.00    +0.000 C 
BRANCH  16  17
ATOM     17  C   UNL     1       1.511   8.856  19.132  0.00  0.00    +0.000 A 
ATOM     18  C   UNL     1       0.525   9.852  19.205  0.00  0.00    +0.000 A 
ATOM     19  C   UNL     1      -0.133  10.107  20.410  0.00  0.00    +0.000 A 
ATOM     20  C   UNL     1       0.183   9.368  21.548  0.00  0.00    +0.000 A 
ATOM     21 CL   UNL     1      -0.645   9.675  23.024  0.00  0.00    +0.000 Cl
ATOM     22  C   UNL     1       1.157   8.376  21.493  0.00  0.00    +0.000 A 
ATOM     23  C   UNL     1       1.816   8.119  20.288  0.00  0.00    +0.000 A 
ENDBRANCH  16  17
ENDBRANCH   2  16
TORSDOF 5
ENDMDL
MODEL 6
REMARK VINA RESULT:      -7.1      5.784      7.632
REMARK  Name = 
REMARK  5 active torsions:
REMARK  status: ('A' for Active; 'I' for Inactive)
REMARK    1  A    between atoms: N_1  and  C_2
REMARK    2  A    between atoms: C_5  and  N_6
REMARK    3  A    between atoms: C_7  and  C_9
REMARK    4  A    between atoms: C_9  and  C_10
REMARK    5  A    between atoms: C_17  and  O_18
REMARK                            x       y       z     vdW  Elec       q    Type
REMARK                         _______ _______ _______ _____ _____    ______ ____
ROOT
ATOM      1  N   UNL     1       4.880   5.009  18.605  0.00  0.00    +0.000 N 
ATOM      2  C   UNL     1       6.152   5.479  18.895  0.00  0.00    +0.000 C 
ATOM      3  O   UNL     1       6.748   5.344  19.961  0.00  0.00    +0.000 OA
ATOM      4  H   UNL     1       4.548   5.105  17.652  0.00  0.00    +0.000 HD
ENDROOT
BRANCH   1   8
ATOM      5  C   UNL     1       2.207   3.128  21.330  0.00  0.00    +0.000 A 
ATOM      6  C   UNL     1       3.232   2.401  20.727  0.00  0.00    +0.000 A 
ATOM      7  C   UNL     1       4.106   3.007  19.818  0.00  0.00    +0.000 A 
ATOM      8  C   UNL     1       4.007   4.367  19.522  0.00  0.00    +0.000 A 
ATOM      9  C   UNL     1       3.036   5.111  20.204  0.00  0.00    +0.000 A 
ATOM     10  C   UNL     1       2.157   4.506  21.111  0.00  0.00    +0.000 A 
BRANCH   5  11
ATOM     11  N   UNL     1       1.402   2.526  22.304  0.00  0.00    +0.000 N 
ATOM     12  H   UNL     1       1.477   1.514  22.322  0.00  0.00    +0.000 HD
ATOM     13  H   UNL     1       0.434   2.835  22.282  0.00  0.00    +0.000 HD
ENDBRANCH   5  11
BRANCH   9  14
ATOM     14  O   UNL     1       2.874   6.457  20.007  0.00  0.00    +0.000 OA
ATOM     15  H   UNL     1       3.744   6.828  19.793  0.00  0.00    +0.000 HD
ENDBRANCH   9  14
ENDBRANCH   1   8
BRANCH   2  16
ATOM     16  C   UNL     1       6.833   6.176  17.727  0.00  0.00    +0.000 C 
BRANCH  16  17
ATOM     17  C   UNL     1       6.509   5.559  16.385  0.00  0.00    +0.000 A 
ATOM     18  C   UNL     1       7.155   4.382  15.974  0.00  0.00    +0.000 A 
ATOM     19  C   UNL     1       6.820   3.779  14.759  0.00  0.00    +0.000 A 
ATOM     20  C   UNL     1       5.835   4.341  13.951  0.00  0.00    +0.000 A 
ATOM     21 CL   UNL     1       5.414   3.583  12.465  0.00  0.00    +0.000 Cl
ATOM     22  C   UNL     1       5.183   5.506  14.343  0.00  0.00    +0.000 A 
ATOM     23  C   UNL     1       5.517   6.110  15.558  0.00  0.00    +0.000 A 
ENDBRANCH  16  17
ENDBRANCH   2  16
TORSDOF 5
ENDMDL
MODEL 7
REMARK VINA RESULT:      -7.0      6.471      8.188
REMARK  Name = 
REMARK  5 active torsions:
REMARK  status: ('A' for Active; 'I' for Inactive)
REMARK    1  A    between atoms: N_1  and  C_2
REMARK    2  A    between atoms: C_5  and  N_6
REMARK    3  A    between atoms: C_7  and  C_9
REMARK    4  A    between atoms: C_9  and  C_10
REMARK    5  A    between atoms: C_17  and  O_18
REMARK                            x       y       z     vdW  Elec       q    Type
REMARK                         _______ _______ _______ _____ _____    ______ ____
ROOT
ATOM      1  N   UNL     1       3.399   6.376  18.611  0.00  0.00    +0.000 N 
ATOM      2  C   UNL     1       2.982   5.128  18.173  0.00  0.00    +0.000 C 
ATOM      3  O   UNL     1       1.845   4.831  17.811  0.00  0.00    +0.000 OA
ATOM      4  H   UNL     1       4.389   6.507  18.786  0.00  0.00    +0.000 HD
ENDROOT
BRANCH   1   8
ATOM      5  C   UNL     1       0.916   9.769  19.265  0.00  0.00    +0.000 A 
ATOM      6  C   UNL     1       1.501   9.548  18.019  0.00  0.00    +0.000 A 
ATOM      7  C   UNL     1       2.331   8.444  17.800  0.00  0.00    +0.000 A 
ATOM      8  C   UNL     1       2.562   7.506  18.806  0.00  0.00    +0.000 A 
ATOM      9  C   UNL     1       1.895   7.684  20.025  0.00  0.00    +0.000 A 
ATOM     10  C   UNL     1       1.067   8.790  20.249  0.00  0.00    +0.000 A 
BRANCH   5  11
ATOM     11  N   UNL     1       0.017  10.828  19.437  0.00  0.00    +0.000 N 
ATOM     12  H   UNL     1       0.082  11.537  18.714  0.00  0.00    +0.000 HD
ATOM     13  H   UNL     1       0.037  11.233  20.369  0.00  0.00    +0.000 HD
ENDBRANCH   5  11
BRANCH   9  14
ATOM     14  O   UNL     1       2.031   6.805  21.068  0.00  0.00    +0.000 OA
ATOM     15  H   UNL     1       1.598   5.977  20.811  0.00  0.00    +0.000 HD
ENDBRANCH   9  14
ENDBRANCH   1   8
BRANCH   2  16
ATOM     16  C   UNL     1       4.093   4.091  18.114  0.00  0.00    +0.000 C 
BRANCH  16  17
ATOM     17  C   UNL     1       5.059   4.307  16.971  0.00  0.00    +0.000 A 
ATOM     18  C   UNL     1       4.620   4.187  15.643  0.00  0.00    +0.000 A 
ATOM     19  C   UNL     1       5.496   4.438  14.584  0.00  0.00    +0.000 A 
ATOM     20  C   UNL     1       6.811   4.816  14.842  0.00  0.00    +0.000 A 
ATOM     21 CL   UNL     1       7.879   5.142  13.533  0.00  0.00    +0.000 Cl
ATOM     22  C   UNL     1       7.263   4.942  16.152  0.00  0.00    +0.000 A 
ATOM     23  C   UNL     1       6.388   4.691  17.212  0.00  0.00    +0.000 A 
ENDBRANCH  16  17
ENDBRANCH   2  16
TORSDOF 5
ENDMDL
MODEL 8
REMARK VINA RESULT:      -7.0      6.497      8.119
REMARK  Name = 
REMARK  5 active torsions:
REMARK  status: ('A' for Active; 'I' for Inactive)
REMARK    1  A    between atoms: N_1  and  C_2
REMARK    2  A    between atoms: C_5  and  N_6
REMARK    3  A    between atoms: C_7  and  C_9
REMARK    4  A    between atoms: C_9  and  C_10
REMARK    5  A    between atoms: C_17  and  O_18
REMARK                            x       y       z     vdW  Elec       q    Type
REMARK                         _______ _______ _______ _____ _____    ______ ____
ROOT
ATOM      1  N   UNL     1       3.630   6.008  18.295  0.00  0.00    +0.000 N 
ATOM      2  C   UNL     1       3.190   4.772  17.847  0.00  0.00    +0.000 C 
ATOM      3  O   UNL     1       2.024   4.454  17.627  0.00  0.00    +0.000 OA
ATOM      4  H   UNL     1       4.630   6.165  18.339  0.00  0.00    +0.000 HD
ENDROOT
BRANCH   1   8
ATOM      5  C   UNL     1       1.164   9.268  19.480  0.00  0.00    +0.000 A 
ATOM      6  C   UNL     1       1.669   9.196  18.182  0.00  0.00    +0.000 A 
ATOM      7  C   UNL     1       2.493   8.136  17.789  0.00  0.00    +0.000 A 
ATOM      8  C   UNL     1       2.798   7.096  18.667  0.00  0.00    +0.000 A 
ATOM      9  C   UNL     1       2.210   7.126  19.938  0.00  0.00    +0.000 A 
ATOM     10  C   UNL     1       1.387   8.188  20.337  0.00  0.00    +0.000 A 
BRANCH   5  11
ATOM     11  N   UNL     1       0.269  10.286  19.826  0.00  0.00    +0.000 N 
ATOM     12  H   UNL     1       0.368  11.123  19.261  0.00  0.00    +0.000 HD
ATOM     13  H   UNL     1       0.256  10.499  20.820  0.00  0.00    +0.000 HD
ENDBRANCH   5  11
BRANCH   9  14
ATOM     14  O   UNL     1       2.421   6.140  20.866  0.00  0.00    +0.000 OA
ATOM     15  H   UNL     1       2.568   5.312  20.383  0.00  0.00    +0.000 HD
ENDBRANCH   9  14
ENDBRANCH   1   8
BRANCH   2  16
ATOM     16  C   UNL     1       4.312   3.779  17.577  0.00  0.00    +0.000 C 
BRANCH  16  17
ATOM     17  C   UNL     1       5.217   4.189  16.437  0.00  0.00    +0.000 A 
ATOM     18  C   UNL     1       6.525   4.628  16.696  0.00  0.00    +0.000 A 
ATOM     19  C   UNL     1       7.382   4.956  15.642  0.00  0.00    +0.000 A 
ATOM     20  C   UNL     1       6.942   4.842  14.325  0.00  0.00    +0.000 A 
ATOM     21 CL   UNL     1       8.009   5.230  13.033  0.00  0.00    +0.000 Cl
ATOM     22  C   UNL     1       5.650   4.407  14.050  0.00  0.00    +0.000 A 
ATOM     23  C   UNL     1       4.792   4.079  15.103  0.00  0.00    +0.000 A 
ENDBRANCH  16  17
ENDBRANCH   2  16
TORSDOF 5
ENDMDL
MODEL 9
REMARK VINA RESULT:      -7.0      6.313      7.936
REMARK  Name = 
REMARK  5 active torsions:
REMARK  status: ('A' for Active; 'I' for Inactive)
REMARK    1  A    between atoms: N_1  and  C_2
REMARK    2  A    between atoms: C_5  and  N_6
REMARK    3  A    between atoms: C_7  and  C_9
REMARK    4  A    between atoms: C_9  and  C_10
REMARK    5  A    between atoms: C_17  and  O_18
REMARK                            x       y       z     vdW  Elec       q    Type
REMARK                         _______ _______ _______ _____ _____    ______ ____
ROOT
ATOM      1  N   UNL     1       3.155   5.677  18.255  0.00  0.00    +0.000 N 
ATOM      2  C   UNL     1       4.357   5.161  18.715  0.00  0.00    +0.000 C 
ATOM      3  O   UNL     1       5.025   5.604  19.647  0.00  0.00    +0.000 OA
ATOM      4  H   UNL     1       2.660   5.153  17.542  0.00  0.00    +0.000 HD
ENDROOT
BRANCH   1   8
ATOM      5  C   UNL     1       1.324   9.228  19.718  0.00  0.00    +0.000 A 
ATOM      6  C   UNL     1       1.703   9.125  18.380  0.00  0.00    +0.000 A 
ATOM      7  C   UNL     1       2.319   7.967  17.894  0.00  0.00    +0.000 A 
ATOM      8  C   UNL     1       2.533   6.864  18.721  0.00  0.00    +0.000 A 
ATOM      9  C   UNL     1       2.063   6.940  20.038  0.00  0.00    +0.000 A 
ATOM     10  C   UNL     1       1.449   8.099  20.529  0.00  0.00    +0.000 A 
BRANCH   5  11
ATOM     11  N   UNL     1       0.627  10.358  20.161  0.00  0.00    +0.000 N 
ATOM     12  H   UNL     1      -0.128  10.142  20.804  0.00  0.00    +0.000 HD
ATOM     13  H   UNL     1       0.323  10.972  19.411  0.00  0.00    +0.000 HD
ENDBRANCH   5  11
BRANCH   9  14
ATOM     14  O   UNL     1       2.197   5.902  20.923  0.00  0.00    +0.000 OA
ATOM     15  H   UNL     1       3.120   5.606  20.889  0.00  0.00    +0.000 HD
ENDBRANCH   9  14
ENDBRANCH   1   8
BRANCH   2  16
ATOM     16  C   UNL     1       4.808   3.903  17.987  0.00  0.00    +0.000 C 
BRANCH  16  17
ATOM     17  C   UNL     1       5.567   4.186  16.710  0.00  0.00    +0.000 A 
ATOM     18  C   UNL     1       4.942   4.015  15.465  0.00  0.00    +0.000 A 
ATOM     19  C   UNL     1       5.622   4.327  14.285  0.00  0.00    +0.000 A 
ATOM     20  C   UNL     1       6.925   4.816  14.340  0.00  0.00    +0.000 A 
ATOM     21 CL   UNL     1       7.750   5.215  12.884  0.00  0.00    +0.000 Cl
ATOM     22  C   UNL     1       7.559   4.993  15.565  0.00  0.00    +0.000 A 
ATOM     23  C   UNL     1       6.880   4.682  16.746  0.00  0.00    +0.000 A 
ENDBRANCH  16  17
ENDBRANCH   2  16
TORSDOF 5
ENDMDL
