MODEL 1
REMARK VINA RESULT:      -7.7      0.000      0.000
REMARK  Name = 
REMARK  9 active torsions:
REMARK  status: ('A' for Active; 'I' for Inactive)
REMARK    1  A    between atoms: N_1  and  C_2
REMARK    2  A    between atoms: C_2  and  C_3
REMARK    3  A    between atoms: C_3  and  C_4
REMARK    4  A    between atoms: C_4  and  C_5
REMARK    5  A    between atoms: C_5  and  C_6
REMARK    6  A    between atoms: C_6  and  N_7
REMARK    7  A    between atoms: N_7  and  C_8
REMARK    8  A    between atoms: N_7  and  C_19
REMARK    9  A    between atoms: C_8  and  C_9
REMARK                            x       y       z     vdW  Elec       q    Type
REMARK                         _______ _______ _______ _____ _____    ______ ____
ROOT
ATOM      1  N   UNL     1       2.276   6.818  19.173  0.00  0.00    +0.000 NA
ENDROOT
BRANCH   1   2
ATOM      2  C   UNL     1       2.249   8.310  19.292  0.00  0.00    +0.000 C 
ATOM      3  C   UNL     1       2.132   9.110  17.975  0.00  0.00    +0.000 C 
ATOM      4  C   UNL     1       0.691   9.312  17.528  0.00  0.00    +0.000 C 
ATOM      5  C   UNL     1      -0.087  10.094  18.575  0.00  0.00    +0.000 C 
ATOM      6  C   UNL     1       0.190   9.672  19.993  0.00  0.00    +0.000 A 
ATOM      7  C   UNL     1      -0.618  10.185  21.016  0.00  0.00    +0.000 A 
ATOM      8  C   UNL     1      -0.332   9.887  22.341  0.00  0.00    +0.000 A 
ATOM      9  C   UNL     1       0.763   9.088  22.604  0.00  0.00    +0.000 A 
ATOM     10  N   UNL     1       1.572   8.581  21.651  0.00  0.00    +0.000 NA
ATOM     11  C   UNL     1       1.278   8.861  20.351  0.00  0.00    +0.000 A 
ENDBRANCH   1   2
BRANCH   1  12
ATOM     12  C   UNL     1       2.095   6.105  20.453  0.00  0.00    +0.000 C 
BRANCH  12  13
ATOM     13  C   UNL     1       1.201   4.851  20.495  0.00  0.00    +0.000 C 
BRANCH  13  14
ATOM     14  C   UNL     1       1.749   3.638  21.255  0.00  0.00    +0.000 C 
BRANCH  14  15
ATOM     15  C   UNL     1       1.412   2.366  20.462  0.00  0.00    +0.000 C 
BRANCH  15  16
ATOM     16  C   UNL     1       0.880   2.646  19.061  0.00  0.00    +0.000 C 
BRANCH  16  17
ATOM     17  N   UNL     1       1.611   1.829  18.093  0.00  0.00    +0.000 NA
ATOM     18  H   UNL     1       1.560   0.849  18.367  0.00  0.00    +0.000 HD
ATOM     19  H   UNL     1       2.599   2.080  18.111  0.00  0.00    +0.000 HD
ENDBRANCH  16  17
ENDBRANCH  15  16
ENDBRANCH  14  15
ENDBRANCH  13  14
ENDBRANCH  12  13
ENDBRANCH   1  12
BRANCH   1  20
ATOM     20  C   UNL     1       3.447   6.289  18.427  0.00  0.00    +0.000 C 
BRANCH  20  21
ATOM     21  C   UNL     1       4.253   5.117  19.100  0.00  0.00    +0.000 C 
ATOM     22  C   UNL     1       4.384   3.886  18.188  0.00  0.00    +0.000 C 
ATOM     23  C   UNL     1       5.278   4.218  17.027  0.00  0.00    +0.000 A 
ATOM     24  C   UNL     1       4.994   3.775  15.735  0.00  0.00    +0.000 A 
ATOM     25  C   UNL     1       5.818   4.153  14.675  0.00  0.00    +0.000 A 
ATOM     26  C   UNL     1       6.932   4.958  14.911  0.00  0.00    +0.000 A 
ATOM     27  C   UNL     1       7.226   5.390  16.206  0.00  0.00    +0.000 A 
ATOM     28  C   UNL     1       6.393   5.032  17.273  0.00  0.00    +0.000 A 
ATOM     29  C   UNL     1       6.700   5.485  18.678  0.00  0.00    +0.000 C 
ATOM     30  N   UNL     1       5.572   5.555  19.616  0.00  0.00    +0.000 NA
ATOM     31  H   UNL     1       5.510   6.489  20.013  0.00  0.00    +0.000 HD
ENDBRANCH  20  21
ENDBRANCH   1  20
TORSDOF 9
ENDMDL
MODEL 2
REMARK VINA RESULT:      -7.6      1.326      1.960
REMARK  Name = 
REMARK  9 active torsions:
REMARK  status: ('A' for Active; 'I' for Inactive)
REMARK    1  A    between atoms: N_1  and  C_2
REMARK    2  A    between atoms: C_2  and  C_3
REMARK    3  A    between atoms: C_3  and  C_4
REMARK    4  A    between atoms: C_4  and  C_5
REMARK    5  A    between atoms: C_5  and  C_6
REMARK    6  A    between atoms: C_6  and  N_7
REMARK    7  A    between atoms: N_7  and  C_8
REMARK    8  A    between atoms: N_7  and  C_19
REMARK    9  A    between atoms: C_8  and  C_9
REMARK                            x       y       z     vdW  Elec       q    Type
REMARK                         _______ _______ _______ _____ _____    ______ ____
ROOT
ATOM      1  N   UNL     1       2.274   6.502  19.356  0.00  0.00    +0.000 NA
ENDROOT
BRANCH   1   2
ATOM      2  C   UNL     1       2.352   7.998  19.387  0.00  0.00    +0.000 C 
ATOM      3  C   UNL     1       2.376   8.720  18.021  0.00  0.00    +0.000 C 
ATOM      4  C   UNL     1       0.985   8.996  17.470  0.00  0.00    +0.000 C 
ATOM      5  C   UNL     1       0.205   9.895  18.417  0.00  0.00    +0.000 C 
ATOM      6  C   UNL     1       0.362   9.544  19.871  0.00  0.00    +0.000 A 
ATOM      7  C   UNL     1      -0.466  10.176  20.808  0.00  0.00    +0.000 A 
ATOM      8  C   UNL     1      -0.285   9.942  22.164  0.00  0.00    +0.000 A 
ATOM      9  C   UNL     1       0.729   9.084  22.544  0.00  0.00    +0.000 A 
ATOM     10  N   UNL     1       1.555   8.462  21.677  0.00  0.00    +0.000 NA
ATOM     11  C   UNL     1       1.363   8.681  20.346  0.00  0.00    +0.000 A 
ENDBRANCH   1   2
BRANCH   1  12
ATOM     12  C   UNL     1       1.391   5.921  20.387  0.00  0.00    +0.000 C 
BRANCH  12  13
ATOM     13  C   UNL     1       1.839   4.647  21.128  0.00  0.00    +0.000 C 
BRANCH  13  14
ATOM     14  C   UNL     1       1.035   3.371  20.855  0.00  0.00    +0.000 C 
BRANCH  14  15
ATOM     15  C   UNL     1       1.065   3.083  19.346  0.00  0.00    +0.000 C 
BRANCH  15  16
ATOM     16  C   UNL     1       2.004   1.944  18.962  0.00  0.00    +0.000 C 
BRANCH  16  17
ATOM     17  N   UNL     1       2.278   2.005  17.527  0.00  0.00    +0.000 NA
ATOM     18  H   UNL     1       1.450   2.340  17.036  0.00  0.00    +0.000 HD
ATOM     19  H   UNL     1       2.461   1.067  17.174  0.00  0.00    +0.000 HD
ENDBRANCH  16  17
ENDBRANCH  15  16
ENDBRANCH  14  15
ENDBRANCH  13  14
ENDBRANCH  12  13
ENDBRANCH   1  12
BRANCH   1  20
ATOM     20  C   UNL     1       3.597   5.825  19.340  0.00  0.00    +0.000 C 
BRANCH  20  21
ATOM     21  C   UNL     1       4.004   5.085  18.013  0.00  0.00    +0.000 C 
ATOM     22  C   UNL     1       4.574   6.041  16.952  0.00  0.00    +0.000 C 
ATOM     23  C   UNL     1       5.907   6.560  17.411  0.00  0.00    +0.000 A 
ATOM     24  C   UNL     1       6.280   7.890  17.221  0.00  0.00    +0.000 A 
ATOM     25  C   UNL     1       7.503   8.345  17.714  0.00  0.00    +0.000 A 
ATOM     26  C   UNL     1       8.357   7.466  18.380  0.00  0.00    +0.000 A 
ATOM     27  C   UNL     1       7.992   6.131  18.559  0.00  0.00    +0.000 A 
ATOM     28  C   UNL     1       6.757   5.670  18.085  0.00  0.00    +0.000 A 
ATOM     29  C   UNL     1       6.351   4.229  18.263  0.00  0.00    +0.000 C 
ATOM     30  N   UNL     1       4.911   3.937  18.255  0.00  0.00    +0.000 NA
ATOM     31  H   UNL     1       4.652   3.449  19.108  0.00  0.00    +0.000 HD
ENDBRANCH  20  21
ENDBRANCH   1  20
TORSDOF 9
ENDMDL
MODEL 3
REMARK VINA RESULT:      -7.5      1.949      6.845
REMARK  Name = 
REMARK  9 active torsions:
REMARK  status: ('A' for Active; 'I' for Inactive)
REMARK    1  A    between atoms: N_1  and  C_2
REMARK    2  A    between atoms: C_2  and  C_3
REMARK    3  A    between atoms: C_3  and  C_4
REMARK    4  A    between atoms: C_4  and  C_5
REMARK    5  A    between atoms: C_5  and  C_6
REMARK    6  A    between atoms: C_6  and  N_7
REMARK    7  A    between atoms: N_7  and  C_8
REMARK    8  A    between atoms: N_7  and  C_19
REMARK    9  A    between atoms: C_8  and  C_9
REMARK                            x       y       z     vdW  Elec       q    Type
REMARK                         _______ _______ _______ _____ _____    ______ ____
ROOT
ATOM      1  N   UNL     1       3.861   5.310  17.642  0.00  0.00    +0.000 NA
ENDROOT
BRANCH   1   2
ATOM      2  C   UNL     1       4.555   6.170  16.631  0.00  0.00    +0.000 C 
ATOM      3  C   UNL     1       5.310   7.405  17.171  0.00  0.00    +0.000 C 
ATOM      4  C   UNL     1       6.736   7.090  17.597  0.00  0.00    +0.000 C 
ATOM      5  C   UNL     1       7.545   6.576  16.416  0.00  0.00    +0.000 C 
ATOM      6  C   UNL     1       6.807   5.599  15.542  0.00  0.00    +0.000 A 
ATOM      7  C   UNL     1       7.520   4.914  14.549  0.00  0.00    +0.000 A 
ATOM      8  C   UNL     1       6.852   4.074  13.669  0.00  0.00    +0.000 A 
ATOM      9  C   UNL     1       5.483   3.951  13.803  0.00  0.00    +0.000 A 
ATOM     10  N   UNL     1       4.756   4.598  14.737  0.00  0.00    +0.000 NA
ATOM     11  C   UNL     1       5.418   5.408  15.610  0.00  0.00    +0.000 A 
ENDBRANCH   1   2
BRANCH   1  12
ATOM     12  C   UNL     1       2.652   5.921  18.228  0.00  0.00    +0.000 C 
BRANCH  12  13
ATOM     13  C   UNL     1       2.678   6.375  19.699  0.00  0.00    +0.000 C 
BRANCH  13  14
ATOM     14  C   UNL     1       1.914   7.660  20.039  0.00  0.00    +0.000 C 
BRANCH  14  15
ATOM     15  C   UNL     1       1.891   8.563  18.796  0.00  0.00    +0.000 C 
BRANCH  15  16
ATOM     16  C   UNL     1       1.032   9.812  18.967  0.00  0.00    +0.000 C 
BRANCH  16  17
ATOM     17  N   UNL     1       0.139   9.946  17.817  0.00  0.00    +0.000 NA
ATOM     18  H   UNL     1       0.363  10.801  17.310  0.00  0.00    +0.000 HD
ATOM     19  H   UNL     1      -0.822  10.048  18.140  0.00  0.00    +0.000 HD
ENDBRANCH  16  17
ENDBRANCH  15  16
ENDBRANCH  14  15
ENDBRANCH  13  14
ENDBRANCH  12  13
ENDBRANCH   1  12
BRANCH   1  20
ATOM     20  C   UNL     1       4.757   4.774  18.700  0.00  0.00    +0.000 C 
BRANCH  20  21
ATOM     21  C   UNL     1       5.011   3.222  18.701  0.00  0.00    +0.000 C 
ATOM     22  C   UNL     1       4.594   2.553  20.022  0.00  0.00    +0.000 C 
ATOM     23  C   UNL     1       3.098   2.598  20.154  0.00  0.00    +0.000 A 
ATOM     24  C   UNL     1       2.479   2.871  21.374  0.00  0.00    +0.000 A 
ATOM     25  C   UNL     1       1.090   2.961  21.442  0.00  0.00    +0.000 A 
ATOM     26  C   UNL     1       0.321   2.761  20.295  0.00  0.00    +0.000 A 
ATOM     27  C   UNL     1       0.937   2.474  19.076  0.00  0.00    +0.000 A 
ATOM     28  C   UNL     1       2.334   2.402  18.995  0.00  0.00    +0.000 A 
ATOM     29  C   UNL     1       3.015   2.085  17.688  0.00  0.00    +0.000 C 
ATOM     30  N   UNL     1       4.402   2.543  17.532  0.00  0.00    +0.000 NA
ATOM     31  H   UNL     1       4.484   3.121  16.699  0.00  0.00    +0.000 HD
ENDBRANCH  20  21
ENDBRANCH   1  20
TORSDOF 9
ENDMDL
MODEL 4
REMARK VINA RESULT:      -7.4      1.793      6.752
REMARK  Name = 
REMARK  9 active torsions:
REMARK  status: ('A' for Active; 'I' for Inactive)
REMARK    1  A    between atoms: N_1  and  C_2
REMARK    2  A    between atoms: C_2  and  C_3
REMARK    3  A    between atoms: C_3  and  C_4
REMARK    4  A    between atoms: C_4  and  C_5
REMARK    5  A    between atoms: C_5  and  C_6
REMARK    6  A    between atoms: C_6  and  N_7
REMARK    7  A    between atoms: N_7  and  C_8
REMARK    8  A    between atoms: N_7  and  C_19
REMARK    9  A    between atoms: C_8  and  C_9
REMARK                            x       y       z     vdW  Elec       q    Type
REMARK                         _______ _______ _______ _____ _____    ______ ____
ROOT
ATOM      1  N   UNL     1       3.904   5.424  17.804  0.00  0.00    +0.000 NA
ENDROOT
BRANCH   1   2
ATOM      2  C   UNL     1       4.639   6.246  16.790  0.00  0.00    +0.000 C 
ATOM      3  C   UNL     1       5.487   7.419  17.331  0.00  0.00    +0.000 C 
ATOM      4  C   UNL     1       6.894   7.002  17.729  0.00  0.00    +0.000 C 
ATOM      5  C   UNL     1       7.646   6.447  16.529  0.00  0.00    +0.000 C 
ATOM      6  C   UNL     1       6.828   5.533  15.657  0.00  0.00    +0.000 A 
ATOM      7  C   UNL     1       7.476   4.812  14.645  0.00  0.00    +0.000 A 
ATOM      8  C   UNL     1       6.737   4.031  13.767  0.00  0.00    +0.000 A 
ATOM      9  C   UNL     1       5.365   4.001  13.924  0.00  0.00    +0.000 A 
ATOM     10  N   UNL     1       4.700   4.686  14.878  0.00  0.00    +0.000 NA
ATOM     11  C   UNL     1       5.430   5.438  15.748  0.00  0.00    +0.000 A 
ENDBRANCH   1   2
BRANCH   1  12
ATOM     12  C   UNL     1       2.780   6.127  18.453  0.00  0.00    +0.000 C 
BRANCH  12  13
ATOM     13  C   UNL     1       2.719   6.186  19.991  0.00  0.00    +0.000 C 
BRANCH  13  14
ATOM     14  C   UNL     1       1.448   6.779  20.610  0.00  0.00    +0.000 C 
BRANCH  14  15
ATOM     15  C   UNL     1       1.572   8.310  20.620  0.00  0.00    +0.000 C 
BRANCH  15  16
ATOM     16  C   UNL     1       0.549   8.998  21.517  0.00  0.00    +0.000 C 
BRANCH  16  17
ATOM     17  N   UNL     1      -0.588   8.104  21.728  0.00  0.00    +0.000 NA
ATOM     18  H   UNL     1      -0.407   7.505  22.532  0.00  0.00    +0.000 HD
ATOM     19  H   UNL     1      -0.689   7.484  20.926  0.00  0.00    +0.000 HD
ENDBRANCH  16  17
ENDBRANCH  15  16
ENDBRANCH  14  15
ENDBRANCH  13  14
ENDBRANCH  12  13
ENDBRANCH   1  12
BRANCH   1  20
ATOM     20  C   UNL     1       4.783   4.774  18.812  0.00  0.00    +0.000 C 
BRANCH  20  21
ATOM     21  C   UNL     1       4.984   3.219  18.687  0.00  0.00    +0.000 C 
ATOM     22  C   UNL     1       4.596   2.466  19.970  0.00  0.00    +0.000 C 
ATOM     23  C   UNL     1       3.109   2.547  20.167  0.00  0.00    +0.000 A 
ATOM     24  C   UNL     1       2.548   2.746  21.429  0.00  0.00    +0.000 A 
ATOM     25  C   UNL     1       1.166   2.874  21.561  0.00  0.00    +0.000 A 
ATOM     26  C   UNL     1       0.346   2.785  20.435  0.00  0.00    +0.000 A 
ATOM     27  C   UNL     1       0.905   2.572  19.174  0.00  0.00    +0.000 A 
ATOM     28  C   UNL     1       2.294   2.463  19.029  0.00  0.00    +0.000 A 
ATOM     29  C   UNL     1       2.912   2.225  17.675  0.00  0.00    +0.000 C 
ATOM     30  N   UNL     1       4.307   2.650  17.496  0.00  0.00    +0.000 NA
ATOM     31  H   UNL     1       4.377   3.287  16.707  0.00  0.00    +0.000 HD
ENDBRANCH  20  21
ENDBRANCH   1  20
TORSDOF 9
ENDMDL
MODEL 5
REMARK VINA RESULT:      -7.3      1.730      7.193
REMARK  Name = 
REMARK  9 active torsions:
REMARK  status: ('A' for Active; 'I' for Inactive)
REMARK    1  A    between atoms: N_1  and  C_2
REMARK    2  A    between atoms: C_2  and  C_3
REMARK    3  A    between atoms: C_3  and  C_4
REMARK    4  A    between atoms: C_4  and  C_5
REMARK    5  A    between atoms: C_5  and  C_6
REMARK    6  A    between atoms: C_6  and  N_7
REMARK    7  A    between atoms: N_7  and  C_8
REMARK    8  A    between atoms: N_7  and  C_19
REMARK    9  A    between atoms: C_8  and  C_9
REMARK                            x       y       z     vdW  Elec       q    Type
REMARK                         _______ _______ _______ _____ _____    ______ ____
ROOT
ATOM      1  N   UNL     1       3.015   6.937  18.009  0.00  0.00    +0.000 NA
ENDROOT
BRANCH   1   2
ATOM      2  C   UNL     1       3.196   5.902  19.076  0.00  0.00    +0.000 C 
ATOM      3  C   UNL     1       2.611   6.232  20.468  0.00  0.00    +0.000 C 
ATOM      4  C   UNL     1       1.148   5.842  20.606  0.00  0.00    +0.000 C 
ATOM      5  C   UNL     1       0.975   4.343  20.413  0.00  0.00    +0.000 C 
ATOM      6  C   UNL     1       1.784   3.769  19.281  0.00  0.00    +0.000 A 
ATOM      7  C   UNL     1       1.547   2.445  18.890  0.00  0.00    +0.000 A 
ATOM      8  C   UNL     1       2.338   1.858  17.912  0.00  0.00    +0.000 A 
ATOM      9  C   UNL     1       3.352   2.615  17.358  0.00  0.00    +0.000 A 
ATOM     10  N   UNL     1       3.621   3.889  17.711  0.00  0.00    +0.000 NA
ATOM     11  C   UNL     1       2.832   4.467  18.660  0.00  0.00    +0.000 A 
ENDBRANCH   1   2
BRANCH   1  12
ATOM     12  C   UNL     1       4.138   7.023  17.054  0.00  0.00    +0.000 C 
BRANCH  12  13
ATOM     13  C   UNL     1       5.580   6.869  17.574  0.00  0.00    +0.000 C 
BRANCH  13  14
ATOM     14  C   UNL     1       6.492   5.905  16.806  0.00  0.00    +0.000 C 
BRANCH  14  15
ATOM     15  C   UNL     1       7.480   5.268  17.795  0.00  0.00    +0.000 C 
BRANCH  15  16
ATOM     16  C   UNL     1       7.868   6.190  18.946  0.00  0.00    +0.000 C 
BRANCH  16  17
ATOM     17  N   UNL     1       7.848   5.435  20.198  0.00  0.00    +0.000 NA
ATOM     18  H   UNL     1       7.522   6.035  20.954  0.00  0.00    +0.000 HD
ATOM     19  H   UNL     1       8.797   5.156  20.444  0.00  0.00    +0.000 HD
ENDBRANCH  16  17
ENDBRANCH  15  16
ENDBRANCH  14  15
ENDBRANCH  13  14
ENDBRANCH  12  13
ENDBRANCH   1  12
BRANCH   1  20
ATOM     20  C   UNL     1       2.645   8.282  18.522  0.00  0.00    +0.000 C 
BRANCH  20  21
ATOM     21  C   UNL     1       1.734   9.173  17.599  0.00  0.00    +0.000 C 
ATOM     22  C   UNL     1       0.284   9.258  18.102  0.00  0.00    +0.000 C 
ATOM     23  C   UNL     1       0.245  10.042  19.384  0.00  0.00    +0.000 A 
ATOM     24  C   UNL     1      -0.571   9.661  20.449  0.00  0.00    +0.000 A 
ATOM     25  C   UNL     1      -0.534  10.382  21.642  0.00  0.00    +0.000 A 
ATOM     26  C   UNL     1       0.304  11.490  21.762  0.00  0.00    +0.000 A 
ATOM     27  C   UNL     1       1.110  11.882  20.692  0.00  0.00    +0.000 A 
ATOM     28  C   UNL     1       1.095  11.151  19.497  0.00  0.00    +0.000 A 
ATOM     29  C   UNL     1       1.954  11.565  18.329  0.00  0.00    +0.000 C 
ATOM     30  N   UNL     1       2.308  10.519  17.360  0.00  0.00    +0.000 NA
ATOM     31  H   UNL     1       3.319  10.465  17.262  0.00  0.00    +0.000 HD
ENDBRANCH  20  21
ENDBRANCH   1  20
TORSDOF 9
ENDMDL
MODEL 6
REMARK VINA RESULT:      -7.1      2.161      7.066
REMARK  Name = 
REMARK  9 active torsions:
REMARK  status: ('A' for Active; 'I' for Inactive)
REMARK    1  A    between atoms: N_1  and  C_2
REMARK    2  A    between atoms: C_2  and  C_3
REMARK    3  A    between atoms: C_3  and  C_4
REMARK    4  A    between atoms: C_4  and  C_5
REMARK    5  A    between atoms: C_5  and  C_6
REMARK    6  A    between atoms: C_6  and  N_7
REMARK    7  A    between atoms: N_7  and  C_8
REMARK    8  A    between atoms: N_7  and  C_19
REMARK    9  A    between atoms: C_8  and  C_9
REMARK                            x       y       z     vdW  Elec       q    Type
REMARK                         _______ _______ _______ _____ _____    ______ ____
ROOT
ATOM      1  N   UNL     1       4.140   5.180  17.717  0.00  0.00    +0.000 NA
ENDROOT
BRANCH   1   2
ATOM      2  C   UNL     1       4.812   6.045  16.695  0.00  0.00    +0.000 C 
ATOM      3  C   UNL     1       5.723   7.171  17.231  0.00  0.00    +0.000 C 
ATOM      4  C   UNL     1       7.148   6.708  17.494  0.00  0.00    +0.000 C 
ATOM      5  C   UNL     1       7.793   6.209  16.210  0.00  0.00    +0.000 C 
ATOM      6  C   UNL     1       6.891   5.360  15.356  0.00  0.00    +0.000 A 
ATOM      7  C   UNL     1       7.443   4.686  14.259  0.00  0.00    +0.000 A 
ATOM      8  C   UNL     1       6.622   3.969  13.400  0.00  0.00    +0.000 A 
ATOM      9  C   UNL     1       5.266   3.953  13.662  0.00  0.00    +0.000 A 
ATOM     10  N   UNL     1       4.691   4.594  14.700  0.00  0.00    +0.000 NA
ATOM     11  C   UNL     1       5.502   5.283  15.550  0.00  0.00    +0.000 A 
ENDBRANCH   1   2
BRANCH   1  12
ATOM     12  C   UNL     1       4.060   5.783  19.062  0.00  0.00    +0.000 C 
BRANCH  12  13
ATOM     13  C   UNL     1       2.824   6.624  19.435  0.00  0.00    +0.000 C 
BRANCH  13  14
ATOM     14  C   UNL     1       1.964   7.139  18.275  0.00  0.00    +0.000 C 
BRANCH  14  15
ATOM     15  C   UNL     1       2.390   8.579  17.947  0.00  0.00    +0.000 C 
BRANCH  15  16
ATOM     16  C   UNL     1       1.229   9.567  17.923  0.00  0.00    +0.000 C 
BRANCH  16  17
ATOM     17  N   UNL     1       1.751  10.930  18.007  0.00  0.00    +0.000 NA
ATOM     18  H   UNL     1       1.084  11.520  18.501  0.00  0.00    +0.000 HD
ATOM     19  H   UNL     1       1.840  11.320  17.070  0.00  0.00    +0.000 HD
ENDBRANCH  16  17
ENDBRANCH  15  16
ENDBRANCH  14  15
ENDBRANCH  13  14
ENDBRANCH  12  13
ENDBRANCH   1  12
BRANCH   1  20
ATOM     20  C   UNL     1       4.672   3.793  17.782  0.00  0.00    +0.000 C 
BRANCH  20  21
ATOM     21  C   UNL     1       3.697   2.634  17.356  0.00  0.00    +0.000 C 
ATOM     22  C   UNL     1       3.473   1.605  18.476  0.00  0.00    +0.000 C 
ATOM     23  C   UNL     1       2.690   2.241  19.589  0.00  0.00    +0.000 A 
ATOM     24  C   UNL     1       2.992   1.995  20.929  0.00  0.00    +0.000 A 
ATOM     25  C   UNL     1       2.279   2.650  21.932  0.00  0.00    +0.000 A 
ATOM     26  C   UNL     1       1.256   3.536  21.595  0.00  0.00    +0.000 A 
ATOM     27  C   UNL     1       0.943   3.773  20.256  0.00  0.00    +0.000 A 
ATOM     28  C   UNL     1       1.667   3.135  19.241  0.00  0.00    +0.000 A 
ATOM     29  C   UNL     1       1.337   3.374  17.790  0.00  0.00    +0.000 C 
ATOM     30  N   UNL     1       2.412   3.139  16.815  0.00  0.00    +0.000 NA
ATOM     31  H   UNL     1       2.562   3.976  16.257  0.00  0.00    +0.000 HD
ENDBRANCH  20  21
ENDBRANCH   1  20
TORSDOF 9
ENDMDL
MODEL 7
REMARK VINA RESULT:      -7.1      2.158      7.195
REMARK  Name = 
REMARK  9 active torsions:
REMARK  status: ('A' for Active; 'I' for Inactive)
REMARK    1  A    between atoms: N_1  and  C_2
REMARK    2  A    between atoms: C_2  and  C_3
REMARK    3  A    between atoms: C_3  and  C_4
REMARK    4  A    between atoms: C_4  and  C_5
REMARK    5  A    between atoms: C_5  and  C_6
REMARK    6  A    between atoms: C_6  and  N_7
REMARK    7  A    between atoms: N_7  and  C_8
REMARK    8  A    between atoms: N_7  and  C_19
REMARK    9  A    between atoms: C_8  and  C_9
REMARK                            x       y       z     vdW  Elec       q    Type
REMARK                         _______ _______ _______ _____ _____    ______ ____
ROOT
ATOM      1  N   UNL     1       3.698   6.885  17.327  0.00  0.00    +0.000 NA
ENDROOT
BRANCH   1   2
ATOM      2  C   UNL     1       5.172   6.846  17.063  0.00  0.00    +0.000 C 
ATOM      3  C   UNL     1       6.100   6.873  18.298  0.00  0.00    +0.000 C 
ATOM      4  C   UNL     1       6.361   5.490  18.876  0.00  0.00    +0.000 C 
ATOM      5  C   UNL     1       7.045   4.603  17.847  0.00  0.00    +0.000 C 
ATOM      6  C   UNL     1       6.481   4.723  16.457  0.00  0.00    +0.000 A 
ATOM      7  C   UNL     1       6.899   3.809  15.481  0.00  0.00    +0.000 A 
ATOM      8  C   UNL     1       6.467   3.948  14.169  0.00  0.00    +0.000 A 
ATOM      9  C   UNL     1       5.633   5.008  13.871  0.00  0.00    +0.000 A 
ATOM     10  N   UNL     1       5.214   5.916  14.776  0.00  0.00    +0.000 NA
ATOM     11  C   UNL     1       5.626   5.766  16.065  0.00  0.00    +0.000 A 
ENDBRANCH   1   2
BRANCH   1  12
ATOM     12  C   UNL     1       3.212   8.176  17.851  0.00  0.00    +0.000 C 
BRANCH  12  13
ATOM     13  C   UNL     1       1.703   8.483  17.807  0.00  0.00    +0.000 C 
BRANCH  13  14
ATOM     14  C   UNL     1       1.234   9.748  18.535  0.00  0.00    +0.000 C 
BRANCH  14  15
ATOM     15  C   UNL     1      -0.153  10.139  18.002  0.00  0.00    +0.000 C 
BRANCH  15  16
ATOM     16  C   UNL     1      -0.659  11.472  18.542  0.00  0.00    +0.000 C 
BRANCH  16  17
ATOM     17  N   UNL     1      -1.413  12.163  17.498  0.00  0.00    +0.000 NA
ATOM     18  H   UNL     1      -1.789  11.481  16.841  0.00  0.00    +0.000 HD
ATOM     19  H   UNL     1      -0.785  12.761  16.962  0.00  0.00    +0.000 HD
ENDBRANCH  16  17
ENDBRANCH  15  16
ENDBRANCH  14  15
ENDBRANCH  13  14
ENDBRANCH  12  13
ENDBRANCH   1  12
BRANCH   1  20
ATOM     20  C   UNL     1       3.198   5.750  18.147  0.00  0.00    +0.000 C 
BRANCH  20  21
ATOM     21  C   UNL     1       2.843   4.420  17.385  0.00  0.00    +0.000 C 
ATOM     22  C   UNL     1       3.516   3.184  18.004  0.00  0.00    +0.000 C 
ATOM     23  C   UNL     1       2.913   2.911  19.353  0.00  0.00    +0.000 A 
ATOM     24  C   UNL     1       3.696   2.516  20.438  0.00  0.00    +0.000 A 
ATOM     25  C   UNL     1       3.106   2.328  21.687  0.00  0.00    +0.000 A 
ATOM     26  C   UNL     1       1.733   2.518  21.846  0.00  0.00    +0.000 A 
ATOM     27  C   UNL     1       0.945   2.899  20.758  0.00  0.00    +0.000 A 
ATOM     28  C   UNL     1       1.533   3.110  19.505  0.00  0.00    +0.000 A 
ATOM     29  C   UNL     1       0.695   3.514  18.318  0.00  0.00    +0.000 C 
ATOM     30  N   UNL     1       1.381   4.225  17.230  0.00  0.00    +0.000 NA
ATOM     31  H   UNL     1       0.918   5.112  17.050  0.00  0.00    +0.000 HD
ENDBRANCH  20  21
ENDBRANCH   1  20
TORSDOF 9
ENDMDL
MODEL 8
REMARK VINA RESULT:      -7.0      1.958      7.123
REMARK  Name = 
REMARK  9 active torsions:
REMARK  status: ('A' for Active; 'I' for Inactive)
REMARK    1  A    between atoms: N_1  and  C_2
REMARK    2  A    between atoms: C_2  and  C_3
REMARK    3  A    between atoms: C_3  and  C_4
REMARK    4  A    between atoms: C_4  and  C_5
REMARK    5  A    between atoms: C_5  and  C_6
REMARK    6  A    between atoms: C_6  and  N_7
REMARK    7  A    between atoms: N_7  and  C_8
REMARK    8  A    between atoms: N_7  and  C_19
REMARK    9  A    between atoms: C_8  and  C_9
REMARK                            x       y       z     vdW  Elec       q    Type
REMARK                         _______ _______ _______ _____ _____    ______ ____
ROOT
ATOM      1  N   UNL     1       3.080   6.919  18.000  0.00  0.00    +0.000 NA
ENDROOT
BRANCH   1   2
ATOM      2  C   UNL     1       3.230   5.898  19.085  0.00  0.00    +0.000 C 
ATOM      3  C   UNL     1       2.646   6.263  20.468  0.00  0.00    +0.000 C 
ATOM      4  C   UNL     1       1.173   5.909  20.604  0.00  0.00    +0.000 C 
ATOM      5  C   UNL     1       0.967   4.412  20.434  0.00  0.00    +0.000 C 
ATOM      6  C   UNL     1       1.769   3.801  19.316  0.00  0.00    +0.000 A 
ATOM      7  C   UNL     1       1.503   2.477  18.945  0.00  0.00    +0.000 A 
ATOM      8  C   UNL     1       2.286   1.856  17.980  0.00  0.00    +0.000 A 
ATOM      9  C   UNL     1       3.320   2.581  17.421  0.00  0.00    +0.000 A 
ATOM     10  N   UNL     1       3.616   3.854  17.755  0.00  0.00    +0.000 NA
ATOM     11  C   UNL     1       2.836   4.464  18.689  0.00  0.00    +0.000 A 
ENDBRANCH   1   2
BRANCH   1  12
ATOM     12  C   UNL     1       4.207   6.962  17.048  0.00  0.00    +0.000 C 
BRANCH  12  13
ATOM     13  C   UNL     1       5.641   6.762  17.575  0.00  0.00    +0.000 C 
BRANCH  13  14
ATOM     14  C   UNL     1       6.550   5.830  16.765  0.00  0.00    +0.000 C 
BRANCH  14  15
ATOM     15  C   UNL     1       5.864   5.512  15.428  0.00  0.00    +0.000 C 
BRANCH  15  16
ATOM     16  C   UNL     1       6.779   4.818  14.424  0.00  0.00    +0.000 C 
BRANCH  16  17
ATOM     17  N   UNL     1       6.216   3.514  14.076  0.00  0.00    +0.000 NA
ATOM     18  H   UNL     1       5.219   3.506  14.287  0.00  0.00    +0.000 HD
ATOM     19  H   UNL     1       6.638   2.793  14.660  0.00  0.00    +0.000 HD
ENDBRANCH  16  17
ENDBRANCH  15  16
ENDBRANCH  14  15
ENDBRANCH  13  14
ENDBRANCH  12  13
ENDBRANCH   1  12
BRANCH   1  20
ATOM     20  C   UNL     1       2.740   8.281  18.490  0.00  0.00    +0.000 C 
BRANCH  20  21
ATOM     21  C   UNL     1       1.800   9.153  17.579  0.00  0.00    +0.000 C 
ATOM     22  C   UNL     1       0.348   9.185  18.085  0.00  0.00    +0.000 C 
ATOM     23  C   UNL     1       0.285   9.950  19.377  0.00  0.00    +0.000 A 
ATOM     24  C   UNL     1      -0.516   9.529  20.438  0.00  0.00    +0.000 A 
ATOM     25  C   UNL     1      -0.501  10.235  21.640  0.00  0.00    +0.000 A 
ATOM     26  C   UNL     1       0.301  11.369  21.774  0.00  0.00    +0.000 A 
ATOM     27  C   UNL     1       1.092  11.800  20.708  0.00  0.00    +0.000 A 
ATOM     28  C   UNL     1       1.099  11.085  19.503  0.00  0.00    +0.000 A 
ATOM     29  C   UNL     1       1.943  11.542  18.340  0.00  0.00    +0.000 C 
ATOM     30  N   UNL     1       2.329  10.521  17.357  0.00  0.00    +0.000 NA
ATOM     31  H   UNL     1       3.341  10.501  17.257  0.00  0.00    +0.000 HD
ENDBRANCH  20  21
ENDBRANCH   1  20
TORSDOF 9
ENDMDL
MODEL 9
REMARK VINA RESULT:      -7.0      1.585      4.855
REMARK  Name = 
REMARK  9 active torsions:
REMARK  status: ('A' for Active; 'I' for Inactive)
REMARK    1  A    between atoms: N_1  and  C_2
REMARK    2  A    between atoms: C_2  and  C_3
REMARK    3  A    between atoms: C_3  and  C_4
REMARK    4  A    between atoms: C_4  and  C_5
REMARK    5  A    between atoms: C_5  and  C_6
REMARK    6  A    between atoms: C_6  and  N_7
REMARK    7  A    between atoms: N_7  and  C_8
REMARK    8  A    between atoms: N_7  and  C_19
REMARK    9  A    between atoms: C_8  and  C_9
REMARK                            x       y       z     vdW  Elec       q    Type
REMARK                         _______ _______ _______ _____ _____    ______ ____
ROOT
ATOM      1  N   UNL     1       3.026   6.537  18.639  0.00  0.00    +0.000 NA
ENDROOT
BRANCH   1   2
ATOM      2  C   UNL     1       1.949   5.497  18.683  0.00  0.00    +0.000 C 
ATOM      3  C   UNL     1       1.509   4.896  17.329  0.00  0.00    +0.000 C 
ATOM      4  C   UNL     1       2.365   3.715  16.898  0.00  0.00    +0.000 C 
ATOM      5  C   UNL     1       2.274   2.589  17.917  0.00  0.00    +0.000 C 
ATOM      6  C   UNL     1       2.325   3.048  19.349  0.00  0.00    +0.000 A 
ATOM      7  C   UNL     1       2.452   2.085  20.358  0.00  0.00    +0.000 A 
ATOM      8  C   UNL     1       2.411   2.468  21.692  0.00  0.00    +0.000 A 
ATOM      9  C   UNL     1       2.235   3.808  21.976  0.00  0.00    +0.000 A 
ATOM     10  N   UNL     1       2.099   4.766  21.037  0.00  0.00    +0.000 NA
ATOM     11  C   UNL     1       2.157   4.389  19.729  0.00  0.00    +0.000 A 
ENDBRANCH   1   2
BRANCH   1  12
ATOM     12  C   UNL     1       2.533   7.909  18.407  0.00  0.00    +0.000 C 
BRANCH  12  13
ATOM     13  C   UNL     1       1.323   8.418  19.213  0.00  0.00    +0.000 C 
BRANCH  13  14
ATOM     14  C   UNL     1       1.450   8.393  20.741  0.00  0.00    +0.000 C 
BRANCH  14  15
ATOM     15  C   UNL     1       0.598   9.530  21.325  0.00  0.00    +0.000 C 
BRANCH  15  16
ATOM     16  C   UNL     1      -0.017   9.195  22.680  0.00  0.00    +0.000 C 
BRANCH  16  17
ATOM     17  N   UNL     1      -0.347  10.434  23.382  0.00  0.00    +0.000 NA
ATOM     18  H   UNL     1      -1.330  10.423  23.648  0.00  0.00    +0.000 HD
ATOM     19  H   UNL     1      -0.230  11.226  22.751  0.00  0.00    +0.000 HD
ENDBRANCH  16  17
ENDBRANCH  15  16
ENDBRANCH  14  15
ENDBRANCH  13  14
ENDBRANCH  12  13
ENDBRANCH   1  12
BRANCH   1  20
ATOM     20  C   UNL     1       4.150   6.210  17.722  0.00  0.00    +0.000 C 
BRANCH  20  21
ATOM     21  C   UNL     1       5.409   5.512  18.357  0.00  0.00    +0.000 C 
ATOM     22  C   UNL     1       5.682   4.122  17.758  0.00  0.00    +0.000 C 
ATOM     23  C   UNL     1       6.127   4.273  16.331  0.00  0.00    +0.000 A 
ATOM     24  C   UNL     1       5.688   3.404  15.332  0.00  0.00    +0.000 A 
ATOM     25  C   UNL     1       6.080   3.612  14.010  0.00  0.00    +0.000 A 
ATOM     26  C   UNL     1       6.921   4.678  13.692  0.00  0.00    +0.000 A 
ATOM     27  C   UNL     1       7.373   5.540  14.692  0.00  0.00    +0.000 A 
ATOM     28  C   UNL     1       6.969   5.350  16.019  0.00  0.00    +0.000 A 
ATOM     29  C   UNL     1       7.454   6.268  17.113  0.00  0.00    +0.000 C 
ATOM     30  N   UNL     1       6.618   6.369  18.317  0.00  0.00    +0.000 NA
ATOM     31  H   UNL     1       6.373   7.341  18.488  0.00  0.00    +0.000 HD
ENDBRANCH  20  21
ENDBRANCH   1  20
TORSDOF 9
ENDMDL
