MODEL 1
REMARK VINA RESULT:      -7.9      0.000      0.000
REMARK  Name = 
REMARK  7 active torsions:
REMARK  status: ('A' for Active; 'I' for Inactive)
REMARK    1  A    between atoms: C_1  and  C_2
REMARK    2  A    between atoms: C_2  and  C_3
REMARK    3  A    between atoms: C_5  and  N_6
REMARK    4  A    between atoms: C_7  and  C_9
REMARK    5  A    between atoms: N_11  and  C_12
REMARK    6  A    between atoms: C_21  and  C_22
REMARK    7  A    between atoms: C_21  and  C_23
REMARK                            x       y       z     vdW  Elec       q    Type
REMARK                         _______ _______ _______ _____ _____    ______ ____
ROOT
ATOM      1  N   UNL     1       3.346   7.193  17.819  0.00  0.00    +0.000 N 
ATOM      2  C   UNL     1       2.462   7.546  18.821  0.00  0.00    +0.000 C 
ATOM      3  O   UNL     1       2.214   6.910  19.831  0.00  0.00    +0.000 OA
ATOM      4  H   UNL     1       3.383   7.817  17.015  0.00  0.00    +0.000 HD
ENDROOT
BRANCH   1   9
ATOM      5  C   UNL     1       6.386   4.401  15.109  0.00  0.00    +0.000 C 
ATOM      6  C   UNL     1       5.804   4.548  16.535  0.00  0.00    +0.000 C 
ATOM      7  C   UNL     1       7.010   4.629  17.488  0.00  0.00    +0.000 C 
ATOM      8  C   UNL     1       4.969   5.840  16.568  0.00  0.00    +0.000 C 
ATOM      9  C   UNL     1       4.126   5.961  17.838  0.00  0.00    +0.000 C 
ATOM     10  C   UNL     1       3.221   4.728  17.944  0.00  0.00    +0.000 C 
ATOM     11  C   UNL     1       4.013   3.400  17.907  0.00  0.00    +0.000 C 
ATOM     12  C   UNL     1       3.024   2.232  17.670  0.00  0.00    +0.000 C 
ATOM     13  C   UNL     1       4.686   3.112  19.262  0.00  0.00    +0.000 C 
ATOM     14  N   UNL     1       4.975   3.355  16.787  0.00  0.00    +0.000 NA
ATOM     15  H   UNL     1       4.457   3.142  15.932  0.00  0.00    +0.000 HD
ENDBRANCH   1   9
BRANCH   2  16
ATOM     16  C   UNL     1       1.782   8.906  18.594  0.00  0.00    +0.000 C 
ATOM     17  O   UNL     1       1.934   9.448  17.500  0.00  0.00    +0.000 OA
ATOM     18  N   UNL     1       1.113   9.390  19.704  0.00  0.00    +0.000 N 
ATOM     19  H   UNL     1       1.213   8.835  20.551  0.00  0.00    +0.000 HD
BRANCH  18  20
ATOM     20  C   UNL     1       0.460  10.635  19.770  0.00  0.00    +0.000 A 
ATOM     21  C   UNL     1       1.106  11.780  20.250  0.00  0.00    +0.000 A 
ATOM     22  C   UNL     1       0.433  12.999  20.335  0.00  0.00    +0.000 A 
ATOM     23  C   UNL     1      -0.907  13.082  19.961  0.00  0.00    +0.000 A 
ATOM     24 CL   UNL     1      -1.690  14.611  20.132  0.00  0.00    +0.000 Cl
ATOM     25  C   UNL     1      -1.560  11.945  19.471  0.00  0.00    +0.000 A 
ATOM     26 CL   UNL     1      -3.231  11.968  19.029  0.00  0.00    +0.000 Cl
ATOM     27  C   UNL     1      -0.868  10.730  19.352  0.00  0.00    +0.000 A 
ENDBRANCH  18  20
ENDBRANCH   2  16
TORSDOF 3
ENDMDL
MODEL 2
REMARK VINA RESULT:      -7.8      1.739      3.061
REMARK  Name = 
REMARK  7 active torsions:
REMARK  status: ('A' for Active; 'I' for Inactive)
REMARK    1  A    between atoms: C_1  and  C_2
REMARK    2  A    between atoms: C_2  and  C_3
REMARK    3  A    between atoms: C_5  and  N_6
REMARK    4  A    between atoms: C_7  and  C_9
REMARK    5  A    between atoms: N_11  and  C_12
REMARK    6  A    between atoms: C_21  and  C_22
REMARK    7  A    between atoms: C_21  and  C_23
REMARK                            x       y       z     vdW  Elec       q    Type
REMARK                         _______ _______ _______ _____ _____    ______ ____
ROOT
ATOM      1  N   UNL     1       2.616   6.665  18.839  0.00  0.00    +0.000 N 
ATOM      2  C   UNL     1       2.474   7.818  18.091  0.00  0.00    +0.000 C 
ATOM      3  O   UNL     1       2.990   8.055  17.012  0.00  0.00    +0.000 OA
ATOM      4  H   UNL     1       2.160   6.663  19.749  0.00  0.00    +0.000 HD
ENDROOT
BRANCH   1   9
ATOM      5  C   UNL     1       4.259   2.231  20.262  0.00  0.00    +0.000 C 
ATOM      6  C   UNL     1       4.209   3.186  19.046  0.00  0.00    +0.000 C 
ATOM      7  C   UNL     1       3.571   2.387  17.895  0.00  0.00    +0.000 C 
ATOM      8  C   UNL     1       3.348   4.399  19.438  0.00  0.00    +0.000 C 
ATOM      9  C   UNL     1       3.439   5.537  18.421  0.00  0.00    +0.000 C 
ATOM     10  C   UNL     1       4.910   5.942  18.271  0.00  0.00    +0.000 C 
ATOM     11  C   UNL     1       5.821   4.754  17.883  0.00  0.00    +0.000 C 
ATOM     12  C   UNL     1       7.299   5.166  18.092  0.00  0.00    +0.000 C 
ATOM     13  C   UNL     1       5.688   4.410  16.388  0.00  0.00    +0.000 C 
ATOM     14  N   UNL     1       5.599   3.576  18.747  0.00  0.00    +0.000 NA
ATOM     15  H   UNL     1       6.082   3.738  19.634  0.00  0.00    +0.000 HD
ENDBRANCH   1   9
BRANCH   2  16
ATOM     16  C   UNL     1       1.529   8.853  18.725  0.00  0.00    +0.000 C 
ATOM     17  O   UNL     1       0.935   9.624  17.972  0.00  0.00    +0.000 OA
ATOM     18  N   UNL     1       1.511   8.823  20.107  0.00  0.00    +0.000 N 
ATOM     19  H   UNL     1       2.174   8.182  20.539  0.00  0.00    +0.000 HD
BRANCH  18  20
ATOM     20  C   UNL     1       0.775   9.705  20.921  0.00  0.00    +0.000 A 
ATOM     21  C   UNL     1      -0.015   9.242  21.979  0.00  0.00    +0.000 A 
ATOM     22  C   UNL     1      -0.760  10.129  22.756  0.00  0.00    +0.000 A 
ATOM     23  C   UNL     1      -0.743  11.492  22.469  0.00  0.00    +0.000 A 
ATOM     24 CL   UNL     1      -1.721  12.527  23.443  0.00  0.00    +0.000 Cl
ATOM     25  C   UNL     1       0.051  11.966  21.417  0.00  0.00    +0.000 A 
ATOM     26 CL   UNL     1       0.087  13.638  20.979  0.00  0.00    +0.000 Cl
ATOM     27  C   UNL     1       0.829  11.076  20.662  0.00  0.00    +0.000 A 
ENDBRANCH  18  20
ENDBRANCH   2  16
TORSDOF 3
ENDMDL
MODEL 3
REMARK VINA RESULT:      -7.7      0.709      1.513
REMARK  Name = 
REMARK  7 active torsions:
REMARK  status: ('A' for Active; 'I' for Inactive)
REMARK    1  A    between atoms: C_1  and  C_2
REMARK    2  A    between atoms: C_2  and  C_3
REMARK    3  A    between atoms: C_5  and  N_6
REMARK    4  A    between atoms: C_7  and  C_9
REMARK    5  A    between atoms: N_11  and  C_12
REMARK    6  A    between atoms: C_21  and  C_22
REMARK    7  A    between atoms: C_21  and  C_23
REMARK                            x       y       z     vdW  Elec       q    Type
REMARK                         _______ _______ _______ _____ _____    ______ ____
ROOT
ATOM      1  N   UNL     1       3.293   7.206  17.851  0.00  0.00    +0.000 N 
ATOM      2  C   UNL     1       2.445   7.576  18.877  0.00  0.00    +0.000 C 
ATOM      3  O   UNL     1       2.218   6.947  19.897  0.00  0.00    +0.000 OA
ATOM      4  H   UNL     1       3.315   7.827  17.043  0.00  0.00    +0.000 HD
ENDROOT
BRANCH   1   9
ATOM      5  C   UNL     1       6.281   4.404  15.093  0.00  0.00    +0.000 C 
ATOM      6  C   UNL     1       5.708   4.544  16.524  0.00  0.00    +0.000 C 
ATOM      7  C   UNL     1       6.920   4.597  17.471  0.00  0.00    +0.000 C 
ATOM      8  C   UNL     1       4.892   5.846  16.576  0.00  0.00    +0.000 C 
ATOM      9  C   UNL     1       4.056   5.964  17.851  0.00  0.00    +0.000 C 
ATOM     10  C   UNL     1       3.135   4.742  17.948  0.00  0.00    +0.000 C 
ATOM     11  C   UNL     1       3.909   3.404  17.893  0.00  0.00    +0.000 C 
ATOM     12  C   UNL     1       2.903   2.253  17.648  0.00  0.00    +0.000 C 
ATOM     13  C   UNL     1       4.585   3.092  19.241  0.00  0.00    +0.000 C 
ATOM     14  N   UNL     1       4.864   3.359  16.767  0.00  0.00    +0.000 NA
ATOM     15  H   UNL     1       4.339   3.162  15.912  0.00  0.00    +0.000 HD
ENDBRANCH   1   9
BRANCH   2  16
ATOM     16  C   UNL     1       1.777   8.944  18.664  0.00  0.00    +0.000 C 
ATOM     17  O   UNL     1       1.941   9.501  17.579  0.00  0.00    +0.000 OA
ATOM     18  N   UNL     1       1.103   9.418  19.776  0.00  0.00    +0.000 N 
ATOM     19  H   UNL     1       1.193   8.849  20.615  0.00  0.00    +0.000 HD
BRANCH  18  20
ATOM     20  C   UNL     1       0.460  10.667  19.855  0.00  0.00    +0.000 A 
ATOM     21  C   UNL     1      -0.766  10.904  19.222  0.00  0.00    +0.000 A 
ATOM     22  C   UNL     1      -1.373  12.158  19.288  0.00  0.00    +0.000 A 
ATOM     23  C   UNL     1      -0.749  13.201  19.970  0.00  0.00    +0.000 A 
ATOM     24 CL   UNL     1      -1.535  14.737  19.975  0.00  0.00    +0.000 Cl
ATOM     25  C   UNL     1       0.474  12.971  20.613  0.00  0.00    +0.000 A 
ATOM     26 CL   UNL     1       1.324  14.229  21.440  0.00  0.00    +0.000 Cl
ATOM     27  C   UNL     1       1.063  11.699  20.576  0.00  0.00    +0.000 A 
ENDBRANCH  18  20
ENDBRANCH   2  16
TORSDOF 3
ENDMDL
MODEL 4
REMARK VINA RESULT:      -7.6      2.664      3.818
REMARK  Name = 
REMARK  7 active torsions:
REMARK  status: ('A' for Active; 'I' for Inactive)
REMARK    1  A    between atoms: C_1  and  C_2
REMARK    2  A    between atoms: C_2  and  C_3
REMARK    3  A    between atoms: C_5  and  N_6
REMARK    4  A    between atoms: C_7  and  C_9
REMARK    5  A    between atoms: N_11  and  C_12
REMARK    6  A    between atoms: C_21  and  C_22
REMARK    7  A    between atoms: C_21  and  C_23
REMARK                            x       y       z     vdW  Elec       q    Type
REMARK                         _______ _______ _______ _____ _____    ______ ____
ROOT
ATOM      1  N   UNL     1       1.687   7.263  20.864  0.00  0.00    +0.000 N 
ATOM      2  C   UNL     1       1.470   8.491  20.268  0.00  0.00    +0.000 C 
ATOM      3  O   UNL     1       1.512   8.739  19.075  0.00  0.00    +0.000 OA
ATOM      4  H   UNL     1       1.673   7.252  21.883  0.00  0.00    +0.000 HD
ENDROOT
BRANCH   1   9
ATOM      5  C   UNL     1       1.917   2.343  21.208  0.00  0.00    +0.000 C 
ATOM      6  C   UNL     1       2.020   3.506  20.193  0.00  0.00    +0.000 C 
ATOM      7  C   UNL     1       0.993   3.206  19.087  0.00  0.00    +0.000 C 
ATOM      8  C   UNL     1       1.685   4.809  20.938  0.00  0.00    +0.000 C 
ATOM      9  C   UNL     1       2.011   6.056  20.115  0.00  0.00    +0.000 C 
ATOM     10  C   UNL     1       3.495   6.016  19.732  0.00  0.00    +0.000 C 
ATOM     11  C   UNL     1       3.885   4.719  18.985  0.00  0.00    +0.000 C 
ATOM     12  C   UNL     1       5.429   4.607  18.948  0.00  0.00    +0.000 C 
ATOM     13  C   UNL     1       3.432   4.762  17.514  0.00  0.00    +0.000 C 
ATOM     14  N   UNL     1       3.403   3.509  19.680  0.00  0.00    +0.000 NA
ATOM     15  H   UNL     1       4.033   3.321  20.464  0.00  0.00    +0.000 HD
ENDBRANCH   1   9
BRANCH   2  16
ATOM     16  C   UNL     1       1.113   9.607  21.263  0.00  0.00    +0.000 C 
ATOM     17  O   UNL     1       1.554   9.518  22.409  0.00  0.00    +0.000 OA
ATOM     18  N   UNL     1       0.265  10.569  20.746  0.00  0.00    +0.000 N 
ATOM     19  H   UNL     1      -0.079  10.387  19.805  0.00  0.00    +0.000 HD
BRANCH  18  20
ATOM     20  C   UNL     1      -0.254  11.659  21.470  0.00  0.00    +0.000 A 
ATOM     21  C   UNL     1       0.386  12.903  21.486  0.00  0.00    +0.000 A 
ATOM     22  C   UNL     1      -0.128  13.962  22.234  0.00  0.00    +0.000 A 
ATOM     23  C   UNL     1      -1.280  13.783  22.996  0.00  0.00    +0.000 A 
ATOM     24 CL   UNL     1      -1.837  15.122  23.931  0.00  0.00    +0.000 Cl
ATOM     25  C   UNL     1      -1.932  12.544  22.981  0.00  0.00    +0.000 A 
ATOM     26 CL   UNL     1      -3.341  12.239  23.936  0.00  0.00    +0.000 Cl
ATOM     27  C   UNL     1      -1.433  11.493  22.198  0.00  0.00    +0.000 A 
ENDBRANCH  18  20
ENDBRANCH   2  16
TORSDOF 3
ENDMDL
MODEL 5
REMARK VINA RESULT:      -7.6      1.073      2.521
REMARK  Name = 
REMARK  7 active torsions:
REMARK  status: ('A' for Active; 'I' for Inactive)
REMARK    1  A    between atoms: C_1  and  C_2
REMARK    2  A    between atoms: C_2  and  C_3
REMARK    3  A    between atoms: C_5  and  N_6
REMARK    4  A    between atoms: C_7  and  C_9
REMARK    5  A    between atoms: N_11  and  C_12
REMARK    6  A    between atoms: C_21  and  C_22
REMARK    7  A    between atoms: C_21  and  C_23
REMARK                            x       y       z     vdW  Elec       q    Type
REMARK                         _______ _______ _______ _____ _____    ______ ____
ROOT
ATOM      1  N   UNL     1       2.744   6.807  19.000  0.00  0.00    +0.000 N 
ATOM      2  C   UNL     1       2.432   7.928  18.255  0.00  0.00    +0.000 C 
ATOM      3  O   UNL     1       2.700   8.120  17.081  0.00  0.00    +0.000 OA
ATOM      4  H   UNL     1       2.496   6.843  19.987  0.00  0.00    +0.000 HD
ENDROOT
BRANCH   1   9
ATOM      5  C   UNL     1       4.324   2.258  20.093  0.00  0.00    +0.000 C 
ATOM      6  C   UNL     1       4.191   3.260  18.921  0.00  0.00    +0.000 C 
ATOM      7  C   UNL     1       3.402   2.532  17.818  0.00  0.00    +0.000 C 
ATOM      8  C   UNL     1       3.431   4.491  19.442  0.00  0.00    +0.000 C 
ATOM      9  C   UNL     1       3.467   5.663  18.460  0.00  0.00    +0.000 C 
ATOM     10  C   UNL     1       4.931   6.012  18.169  0.00  0.00    +0.000 C 
ATOM     11  C   UNL     1       5.742   4.803  17.648  0.00  0.00    +0.000 C 
ATOM     12  C   UNL     1       7.251   5.146  17.712  0.00  0.00    +0.000 C 
ATOM     13  C   UNL     1       5.439   4.522  16.164  0.00  0.00    +0.000 C 
ATOM     14  N   UNL     1       5.559   3.604  18.490  0.00  0.00    +0.000 NA
ATOM     15  H   UNL     1       6.138   3.711  19.326  0.00  0.00    +0.000 HD
ENDBRANCH   1   9
BRANCH   2  16
ATOM     16  C   UNL     1       1.638   8.988  19.035  0.00  0.00    +0.000 C 
ATOM     17  O   UNL     1       1.338   8.737  20.203  0.00  0.00    +0.000 OA
ATOM     18  N   UNL     1       1.299  10.100  18.285  0.00  0.00    +0.000 N 
ATOM     19  H   UNL     1       1.545  10.052  17.299  0.00  0.00    +0.000 HD
BRANCH  18  20
ATOM     20  C   UNL     1       0.527  11.180  18.751  0.00  0.00    +0.000 A 
ATOM     21  C   UNL     1       1.116  12.310  19.330  0.00  0.00    +0.000 A 
ATOM     22  C   UNL     1       0.331  13.357  19.813  0.00  0.00    +0.000 A 
ATOM     23  C   UNL     1      -1.058  13.277  19.743  0.00  0.00    +0.000 A 
ATOM     24 CL   UNL     1      -1.969  14.589  20.397  0.00  0.00    +0.000 Cl
ATOM     25  C   UNL     1      -1.657  12.155  19.158  0.00  0.00    +0.000 A 
ATOM     26 CL   UNL     1      -3.375  11.971  19.076  0.00  0.00    +0.000 Cl
ATOM     27  C   UNL     1      -0.864  11.121  18.640  0.00  0.00    +0.000 A 
ENDBRANCH  18  20
ENDBRANCH   2  16
TORSDOF 3
ENDMDL
MODEL 6
REMARK VINA RESULT:      -7.5      1.234      2.930
REMARK  Name = 
REMARK  7 active torsions:
REMARK  status: ('A' for Active; 'I' for Inactive)
REMARK    1  A    between atoms: C_1  and  C_2
REMARK    2  A    between atoms: C_2  and  C_3
REMARK    3  A    between atoms: C_5  and  N_6
REMARK    4  A    between atoms: C_7  and  C_9
REMARK    5  A    between atoms: N_11  and  C_12
REMARK    6  A    between atoms: C_21  and  C_22
REMARK    7  A    between atoms: C_21  and  C_23
REMARK                            x       y       z     vdW  Elec       q    Type
REMARK                         _______ _______ _______ _____ _____    ______ ____
ROOT
ATOM      1  N   UNL     1       2.717   6.617  19.309  0.00  0.00    +0.000 N 
ATOM      2  C   UNL     1       2.379   7.768  18.624  0.00  0.00    +0.000 C 
ATOM      3  O   UNL     1       2.639   8.027  17.461  0.00  0.00    +0.000 OA
ATOM      4  H   UNL     1       2.471   6.596  20.297  0.00  0.00    +0.000 HD
ENDROOT
BRANCH   1   9
ATOM      5  C   UNL     1       4.414   2.060  20.168  0.00  0.00    +0.000 C 
ATOM      6  C   UNL     1       4.245   3.113  19.047  0.00  0.00    +0.000 C 
ATOM      7  C   UNL     1       3.463   2.420  17.917  0.00  0.00    +0.000 C 
ATOM      8  C   UNL     1       3.462   4.300  19.633  0.00  0.00    +0.000 C 
ATOM      9  C   UNL     1       3.461   5.517  18.708  0.00  0.00    +0.000 C 
ATOM     10  C   UNL     1       4.914   5.915  18.422  0.00  0.00    +0.000 C 
ATOM     11  C   UNL     1       5.748   4.752  17.836  0.00  0.00    +0.000 C 
ATOM     12  C   UNL     1       7.249   5.128  17.905  0.00  0.00    +0.000 C 
ATOM     13  C   UNL     1       5.438   4.535  16.344  0.00  0.00    +0.000 C 
ATOM     14  N   UNL     1       5.601   3.510  18.622  0.00  0.00    +0.000 NA
ATOM     15  H   UNL     1       6.185   3.591  19.457  0.00  0.00    +0.000 HD
ENDBRANCH   1   9
BRANCH   2  16
ATOM     16  C   UNL     1       1.566   8.770  19.460  0.00  0.00    +0.000 C 
ATOM     17  O   UNL     1       1.321   8.475  20.630  0.00  0.00    +0.000 OA
ATOM     18  N   UNL     1       1.149   9.883  18.753  0.00  0.00    +0.000 N 
ATOM     19  H   UNL     1       1.360   9.871  17.757  0.00  0.00    +0.000 HD
BRANCH  18  20
ATOM     20  C   UNL     1       0.345  10.913  19.275  0.00  0.00    +0.000 A 
ATOM     21  C   UNL     1      -1.014  11.018  18.959  0.00  0.00    +0.000 A 
ATOM     22  C   UNL     1      -1.787  12.063  19.463  0.00  0.00    +0.000 A 
ATOM     23  C   UNL     1      -1.203  13.034  20.274  0.00  0.00    +0.000 A 
ATOM     24 CL   UNL     1      -2.208  14.324  20.828  0.00  0.00    +0.000 Cl
ATOM     25  C   UNL     1       0.154  12.935  20.603  0.00  0.00    +0.000 A 
ATOM     26 CL   UNL     1       0.953  14.126  21.569  0.00  0.00    +0.000 Cl
ATOM     27  C   UNL     1       0.920  11.861  20.125  0.00  0.00    +0.000 A 
ENDBRANCH  18  20
ENDBRANCH   2  16
TORSDOF 3
ENDMDL
MODEL 7
REMARK VINA RESULT:      -7.5      1.465      2.765
REMARK  Name = 
REMARK  7 active torsions:
REMARK  status: ('A' for Active; 'I' for Inactive)
REMARK    1  A    between atoms: C_1  and  C_2
REMARK    2  A    between atoms: C_2  and  C_3
REMARK    3  A    between atoms: C_5  and  N_6
REMARK    4  A    between atoms: C_7  and  C_9
REMARK    5  A    between atoms: N_11  and  C_12
REMARK    6  A    between atoms: C_21  and  C_22
REMARK    7  A    between atoms: C_21  and  C_23
REMARK                            x       y       z     vdW  Elec       q    Type
REMARK                         _______ _______ _______ _____ _____    ______ ____
ROOT
ATOM      1  N   UNL     1       2.683   6.470  19.835  0.00  0.00    +0.000 N 
ATOM      2  C   UNL     1       2.216   7.619  19.226  0.00  0.00    +0.000 C 
ATOM      3  O   UNL     1       2.358   7.933  18.056  0.00  0.00    +0.000 OA
ATOM      4  H   UNL     1       2.525   6.400  20.839  0.00  0.00    +0.000 HD
ENDROOT
BRANCH   1   9
ATOM      5  C   UNL     1       4.433   1.871  20.249  0.00  0.00    +0.000 C 
ATOM      6  C   UNL     1       4.255   3.027  19.236  0.00  0.00    +0.000 C 
ATOM      7  C   UNL     1       3.484   2.440  18.041  0.00  0.00    +0.000 C 
ATOM      8  C   UNL     1       3.455   4.141  19.933  0.00  0.00    +0.000 C 
ATOM      9  C   UNL     1       3.442   5.444  19.132  0.00  0.00    +0.000 C 
ATOM     10  C   UNL     1       4.891   5.885  18.892  0.00  0.00    +0.000 C 
ATOM     11  C   UNL     1       5.741   4.795  18.198  0.00  0.00    +0.000 C 
ATOM     12  C   UNL     1       7.237   5.179  18.309  0.00  0.00    +0.000 C 
ATOM     13  C   UNL     1       5.437   4.722  16.690  0.00  0.00    +0.000 C 
ATOM     14  N   UNL     1       5.607   3.480  18.858  0.00  0.00    +0.000 NA
ATOM     15  H   UNL     1       6.188   3.485  19.699  0.00  0.00    +0.000 HD
ENDBRANCH   1   9
BRANCH   2  16
ATOM     16  C   UNL     1       1.414   8.535  20.165  0.00  0.00    +0.000 C 
ATOM     17  O   UNL     1       1.289   8.185  21.339  0.00  0.00    +0.000 OA
ATOM     18  N   UNL     1       0.869   9.641  19.539  0.00  0.00    +0.000 N 
ATOM     19  H   UNL     1       0.995   9.677  18.530  0.00  0.00    +0.000 HD
BRANCH  18  20
ATOM     20  C   UNL     1       0.048  10.597  20.165  0.00  0.00    +0.000 A 
ATOM     21  C   UNL     1       0.382  11.155  21.404  0.00  0.00    +0.000 A 
ATOM     22  C   UNL     1      -0.459  12.079  22.023  0.00  0.00    +0.000 A 
ATOM     23  C   UNL     1      -1.661  12.441  21.419  0.00  0.00    +0.000 A 
ATOM     24 CL   UNL     1      -2.674  13.558  22.259  0.00  0.00    +0.000 Cl
ATOM     25  C   UNL     1      -2.001  11.896  20.175  0.00  0.00    +0.000 A 
ATOM     26 CL   UNL     1      -3.495  12.268  19.389  0.00  0.00    +0.000 Cl
ATOM     27  C   UNL     1      -1.135  10.995  19.538  0.00  0.00    +0.000 A 
ENDBRANCH  18  20
ENDBRANCH   2  16
TORSDOF 3
ENDMDL
MODEL 8
REMARK VINA RESULT:      -7.5      2.455      3.867
REMARK  Name = 
REMARK  7 active torsions:
REMARK  status: ('A' for Active; 'I' for Inactive)
REMARK    1  A    between atoms: C_1  and  C_2
REMARK    2  A    between atoms: C_2  and  C_3
REMARK    3  A    between atoms: C_5  and  N_6
REMARK    4  A    between atoms: C_7  and  C_9
REMARK    5  A    between atoms: N_11  and  C_12
REMARK    6  A    between atoms: C_21  and  C_22
REMARK    7  A    between atoms: C_21  and  C_23
REMARK                            x       y       z     vdW  Elec       q    Type
REMARK                         _______ _______ _______ _____ _____    ______ ____
ROOT
ATOM      1  N   UNL     1       1.930   7.663  19.642  0.00  0.00    +0.000 N 
ATOM      2  C   UNL     1       1.843   8.637  18.666  0.00  0.00    +0.000 C 
ATOM      3  O   UNL     1       1.999   8.484  17.467  0.00  0.00    +0.000 OA
ATOM      4  H   UNL     1       1.830   7.983  20.604  0.00  0.00    +0.000 HD
ENDROOT
BRANCH   1   9
ATOM      5  C   UNL     1       2.133   3.163  21.666  0.00  0.00    +0.000 C 
ATOM      6  C   UNL     1       2.230   3.902  20.310  0.00  0.00    +0.000 C 
ATOM      7  C   UNL     1       1.187   3.248  19.386  0.00  0.00    +0.000 C 
ATOM      8  C   UNL     1       1.913   5.386  20.561  0.00  0.00    +0.000 C 
ATOM      9  C   UNL     1       2.236   6.267  19.354  0.00  0.00    +0.000 C 
ATOM     10  C   UNL     1       3.715   6.082  18.994  0.00  0.00    +0.000 C 
ATOM     11  C   UNL     1       4.087   4.603  18.738  0.00  0.00    +0.000 C 
ATOM     12  C   UNL     1       5.630   4.469  18.728  0.00  0.00    +0.000 C 
ATOM     13  C   UNL     1       3.616   4.138  17.348  0.00  0.00    +0.000 C 
ATOM     14  N   UNL     1       3.606   3.713  19.815  0.00  0.00    +0.000 NA
ATOM     15  H   UNL     1       4.245   3.801  20.609  0.00  0.00    +0.000 HD
ENDBRANCH   1   9
BRANCH   2  16
ATOM     16  C   UNL     1       1.476  10.027  19.212  0.00  0.00    +0.000 C 
ATOM     17  O   UNL     1       1.000  10.092  20.345  0.00  0.00    +0.000 OA
ATOM     18  N   UNL     1       1.678  11.055  18.309  0.00  0.00    +0.000 N 
ATOM     19  H   UNL     1       1.968  10.766  17.377  0.00  0.00    +0.000 HD
BRANCH  18  20
ATOM     20  C   UNL     1       1.367  12.407  18.545  0.00  0.00    +0.000 A 
ATOM     21  C   UNL     1       0.043  12.858  18.601  0.00  0.00    +0.000 A 
ATOM     22  C   UNL     1      -0.244  14.208  18.807  0.00  0.00    +0.000 A 
ATOM     23  C   UNL     1       0.792  15.129  18.938  0.00  0.00    +0.000 A 
ATOM     24 CL   UNL     1       0.365  16.788  19.148  0.00  0.00    +0.000 Cl
ATOM     25  C   UNL     1       2.120  14.687  18.892  0.00  0.00    +0.000 A 
ATOM     26 CL   UNL     1       3.454  15.781  19.004  0.00  0.00    +0.000 Cl
ATOM     27  C   UNL     1       2.405  13.324  18.722  0.00  0.00    +0.000 A 
ENDBRANCH  18  20
ENDBRANCH   2  16
TORSDOF 3
ENDMDL
MODEL 9
REMARK VINA RESULT:      -7.4      1.890      3.022
REMARK  Name = 
REMARK  7 active torsions:
REMARK  status: ('A' for Active; 'I' for Inactive)
REMARK    1  A    between atoms: C_1  and  C_2
REMARK    2  A    between atoms: C_2  and  C_3
REMARK    3  A    between atoms: C_5  and  N_6
REMARK    4  A    between atoms: C_7  and  C_9
REMARK    5  A    between atoms: N_11  and  C_12
REMARK    6  A    between atoms: C_21  and  C_22
REMARK    7  A    between atoms: C_21  and  C_23
REMARK                            x       y       z     vdW  Elec       q    Type
REMARK                         _______ _______ _______ _____ _____    ______ ____
ROOT
ATOM      1  N   UNL     1       2.164   7.446  19.014  0.00  0.00    +0.000 N 
ATOM      2  C   UNL     1       2.038   8.604  18.271  0.00  0.00    +0.000 C 
ATOM      3  O   UNL     1       2.398   8.772  17.118  0.00  0.00    +0.000 OA
ATOM      4  H   UNL     1       1.862   7.503  19.985  0.00  0.00    +0.000 HD
ENDROOT
BRANCH   1   9
ATOM      5  C   UNL     1       2.652   2.607  19.872  0.00  0.00    +0.000 C 
ATOM      6  C   UNL     1       2.947   3.700  18.817  0.00  0.00    +0.000 C 
ATOM      7  C   UNL     1       2.292   3.224  17.508  0.00  0.00    +0.000 C 
ATOM      8  C   UNL     1       2.323   5.014  19.317  0.00  0.00    +0.000 C 
ATOM      9  C   UNL     1       2.771   6.225  18.498  0.00  0.00    +0.000 C 
ATOM     10  C   UNL     1       4.302   6.303  18.536  0.00  0.00    +0.000 C 
ATOM     11  C   UNL     1       4.978   5.000  18.049  0.00  0.00    +0.000 C 
ATOM     12  C   UNL     1       6.476   5.036  18.442  0.00  0.00    +0.000 C 
ATOM     13  C   UNL     1       4.950   4.895  16.513  0.00  0.00    +0.000 C 
ATOM     14  N   UNL     1       4.413   3.801  18.700  0.00  0.00    +0.000 NA
ATOM     15  H   UNL     1       4.813   3.731  19.639  0.00  0.00    +0.000 HD
ENDBRANCH   1   9
BRANCH   2  16
ATOM     16  C   UNL     1       1.335   9.747  19.021  0.00  0.00    +0.000 C 
ATOM     17  O   UNL     1       1.631  10.902  18.715  0.00  0.00    +0.000 OA
ATOM     18  N   UNL     1       0.475   9.319  20.016  0.00  0.00    +0.000 N 
ATOM     19  H   UNL     1       0.467   8.315  20.184  0.00  0.00    +0.000 HD
BRANCH  18  20
ATOM     20  C   UNL     1      -0.241  10.168  20.880  0.00  0.00    +0.000 A 
ATOM     21  C   UNL     1      -0.278   9.951  22.262  0.00  0.00    +0.000 A 
ATOM     22  C   UNL     1      -1.018  10.787  23.098  0.00  0.00    +0.000 A 
ATOM     23  C   UNL     1      -1.752  11.840  22.558  0.00  0.00    +0.000 A 
ATOM     24 CL   UNL     1      -2.679  12.809  23.645  0.00  0.00    +0.000 Cl
ATOM     25  C   UNL     1      -1.716  12.072  21.178  0.00  0.00    +0.000 A 
ATOM     26 CL   UNL     1      -2.635  13.334  20.436  0.00  0.00    +0.000 Cl
ATOM     27  C   UNL     1      -0.940  11.252  20.344  0.00  0.00    +0.000 A 
ENDBRANCH  18  20
ENDBRANCH   2  16
TORSDOF 3
ENDMDL
