MODEL 1
REMARK VINA RESULT:      -7.6      0.000      0.000
REMARK  Name = 
REMARK  4 active torsions:
REMARK  status: ('A' for Active; 'I' for Inactive)
REMARK    1  A    between atoms: C_1  and  C_2
REMARK    2  A    between atoms: C_7  and  O_8
REMARK    3  A    between atoms: C_9  and  C_10
REMARK    4  A    between atoms: C_10  and  O_12
REMARK                            x       y       z     vdW  Elec       q    Type
REMARK                         _______ _______ _______ _____ _____    ______ ____
ROOT
ATOM      1  C   UNL     1       0.926   7.024  20.612  0.00  0.00    +0.000 C 
ATOM      2  C   UNL     1       2.100   6.095  20.355  0.00  0.00    +0.000 C 
ATOM      3  O   UNL     1       2.912   6.764  19.373  0.00  0.00    +0.000 OA
ATOM      4  C   UNL     1       3.917   5.961  18.905  0.00  0.00    +0.000 A 
ATOM      5  C   UNL     1       4.801   6.559  18.052  0.00  0.00    +0.000 A 
ATOM      6  C   UNL     1       5.910   5.847  17.669  0.00  0.00    +0.000 A 
ATOM      7  C   UNL     1       6.889   6.489  16.956  0.00  0.00    +0.000 A 
ATOM      8  C   UNL     1       7.903   6.918  17.757  0.00  0.00    +0.000 A 
ATOM      9  C   UNL     1       8.286   5.970  18.691  0.00  0.00    +0.000 A 
ATOM     10  N   UNL     1       7.565   4.797  18.882  0.00  0.00    +0.000 NA
ATOM     11  C   UNL     1       6.272   4.790  18.490  0.00  0.00    +0.000 A 
ATOM     12  N   UNL     1       5.307   4.034  19.064  0.00  0.00    +0.000 NA
ATOM     13  C   UNL     1       4.090   4.596  19.226  0.00  0.00    +0.000 A 
ATOM     14  N   UNL     1       3.007   3.947  19.792  0.00  0.00    +0.000 N 
ATOM     15  C   UNL     1       2.788   2.528  19.909  0.00  0.00    +0.000 C 
ATOM     16  C   UNL     1       1.415   2.445  20.603  0.00  0.00    +0.000 C 
ATOM     17  C   UNL     1       0.810   3.853  20.609  0.00  0.00    +0.000 C 
ATOM     18  C   UNL     1       1.758   4.707  19.787  0.00  0.00    +0.000 C 
ENDROOT
BRANCH   7  19
ATOM     19  O   UNL     1       7.336   5.788  15.811  0.00  0.00    +0.000 OA
ATOM     20  H   UNL     1       6.791   6.068  15.051  0.00  0.00    +0.000 HD
ENDBRANCH   7  19
BRANCH   8  21
ATOM     21  C   UNL     1       7.968   8.364  18.083  0.00  0.00    +0.000 C 
ATOM     22  O   UNL     1       7.321   9.199  17.477  0.00  0.00    +0.000 OA
BRANCH  21  23
ATOM     23  O   UNL     1       8.867   8.693  19.042  0.00  0.00    +0.000 OA
ATOM     24  H   UNL     1       8.544   9.186  19.825  0.00  0.00    +0.000 HD
ENDBRANCH  21  23
ENDBRANCH   8  21
TORSDOF 3
ENDMDL
MODEL 2
REMARK VINA RESULT:      -7.4      2.768      6.630
REMARK  Name = 
REMARK  4 active torsions:
REMARK  status: ('A' for Active; 'I' for Inactive)
REMARK    1  A    between atoms: C_1  and  C_2
REMARK    2  A    between atoms: C_7  and  O_8
REMARK    3  A    between atoms: C_9  and  C_10
REMARK    4  A    between atoms: C_10  and  O_12
REMARK                            x       y       z     vdW  Elec       q    Type
REMARK                         _______ _______ _______ _____ _____    ______ ____
ROOT
ATOM      1  C   UNL     1       8.111   5.690  18.669  0.00  0.00    +0.000 C 
ATOM      2  C   UNL     1       6.805   5.292  18.003  0.00  0.00    +0.000 C 
ATOM      3  O   UNL     1       6.160   4.394  18.925  0.00  0.00    +0.000 OA
ATOM      4  C   UNL     1       5.051   3.807  18.379  0.00  0.00    +0.000 A 
ATOM      5  C   UNL     1       4.320   3.026  19.229  0.00  0.00    +0.000 A 
ATOM      6  C   UNL     1       3.120   2.533  18.779  0.00  0.00    +0.000 A 
ATOM      7  C   UNL     1       2.296   1.895  19.670  0.00  0.00    +0.000 A 
ATOM      8  C   UNL     1       1.340   2.728  20.166  0.00  0.00    +0.000 A 
ATOM      9  C   UNL     1       0.762   3.521  19.190  0.00  0.00    +0.000 A 
ATOM     10  N   UNL     1       1.261   3.567  17.893  0.00  0.00    +0.000 NA
ATOM     11  C   UNL     1       2.547   3.200  17.707  0.00  0.00    +0.000 A 
ATOM     12  N   UNL     1       3.343   3.685  16.725  0.00  0.00    +0.000 NA
ATOM     13  C   UNL     1       4.631   3.941  17.037  0.00  0.00    +0.000 A 
ATOM     14  N   UNL     1       5.562   4.434  16.140  0.00  0.00    +0.000 N 
ATOM     15  C   UNL     1       5.526   4.366  14.701  0.00  0.00    +0.000 C 
ATOM     16  C   UNL     1       6.835   5.066  14.288  0.00  0.00    +0.000 C 
ATOM     17  C   UNL     1       7.674   5.268  15.554  0.00  0.00    +0.000 C 
ATOM     18  C   UNL     1       6.923   4.551  16.660  0.00  0.00    +0.000 C 
ENDROOT
BRANCH   7  19
ATOM     19  O   UNL     1       1.781   0.659  19.211  0.00  0.00    +0.000 OA
ATOM     20  H   UNL     1       0.872   0.810  18.889  0.00  0.00    +0.000 HD
ENDBRANCH   7  19
BRANCH   8  21
ATOM     21  C   UNL     1       1.515   3.241  21.547  0.00  0.00    +0.000 C 
ATOM     22  O   UNL     1       1.117   2.635  22.525  0.00  0.00    +0.000 OA
BRANCH  21  23
ATOM     23  O   UNL     1       2.069   4.476  21.631  0.00  0.00    +0.000 OA
ATOM     24  H   UNL     1       1.826   5.038  22.395  0.00  0.00    +0.000 HD
ENDBRANCH  21  23
ENDBRANCH   8  21
TORSDOF 3
ENDMDL
MODEL 3
REMARK VINA RESULT:      -7.4      2.813      4.253
REMARK  Name = 
REMARK  4 active torsions:
REMARK  status: ('A' for Active; 'I' for Inactive)
REMARK    1  A    between atoms: C_1  and  C_2
REMARK    2  A    between atoms: C_7  and  O_8
REMARK    3  A    between atoms: C_9  and  C_10
REMARK    4  A    between atoms: C_10  and  O_12
REMARK                            x       y       z     vdW  Elec       q    Type
REMARK                         _______ _______ _______ _____ _____    ______ ____
ROOT
ATOM      1  C   UNL     1       0.690   2.095  18.584  0.00  0.00    +0.000 C 
ATOM      2  C   UNL     1       1.535   3.328  18.318  0.00  0.00    +0.000 C 
ATOM      3  O   UNL     1       2.673   2.862  17.572  0.00  0.00    +0.000 OA
ATOM      4  C   UNL     1       3.620   3.838  17.417  0.00  0.00    +0.000 A 
ATOM      5  C   UNL     1       4.683   3.507  16.624  0.00  0.00    +0.000 A 
ATOM      6  C   UNL     1       5.586   4.493  16.313  0.00  0.00    +0.000 A 
ATOM      7  C   UNL     1       6.558   4.224  15.383  0.00  0.00    +0.000 A 
ATOM      8  C   UNL     1       6.212   4.670  14.144  0.00  0.00    +0.000 A 
ATOM      9  C   UNL     1       5.657   5.937  14.164  0.00  0.00    +0.000 A 
ATOM     10  N   UNL     1       5.331   6.574  15.356  0.00  0.00    +0.000 NA
ATOM     11  C   UNL     1       5.137   5.798  16.445  0.00  0.00    +0.000 A 
ATOM     12  N   UNL     1       4.311   6.116  17.469  0.00  0.00    +0.000 NA
ATOM     13  C   UNL     1       3.580   5.119  18.011  0.00  0.00    +0.000 A 
ATOM     14  N   UNL     1       2.697   5.290  19.063  0.00  0.00    +0.000 N 
ATOM     15  C   UNL     1       2.681   6.348  20.041  0.00  0.00    +0.000 C 
ATOM     16  C   UNL     1       1.489   5.969  20.941  0.00  0.00    +0.000 C 
ATOM     17  C   UNL     1       1.049   4.552  20.559  0.00  0.00    +0.000 C 
ATOM     18  C   UNL     1       2.077   4.062  19.557  0.00  0.00    +0.000 C 
ENDROOT
BRANCH   7  19
ATOM     19  O   UNL     1       7.864   4.605  15.773  0.00  0.00    +0.000 OA
ATOM     20  H   UNL     1       8.098   5.422  15.294  0.00  0.00    +0.000 HD
ENDBRANCH   7  19
BRANCH   8  21
ATOM     21  C   UNL     1       5.763   3.668  13.146  0.00  0.00    +0.000 C 
ATOM     22  O   UNL     1       4.596   3.550  12.819  0.00  0.00    +0.000 OA
BRANCH  21  23
ATOM     23  O   UNL     1       6.734   2.836  12.696  0.00  0.00    +0.000 OA
ATOM     24  H   UNL     1       7.267   2.349  13.358  0.00  0.00    +0.000 HD
ENDBRANCH  21  23
ENDBRANCH   8  21
TORSDOF 3
ENDMDL
MODEL 4
REMARK VINA RESULT:      -6.9      2.316      3.572
REMARK  Name = 
REMARK  4 active torsions:
REMARK  status: ('A' for Active; 'I' for Inactive)
REMARK    1  A    between atoms: C_1  and  C_2
REMARK    2  A    between atoms: C_7  and  O_8
REMARK    3  A    between atoms: C_9  and  C_10
REMARK    4  A    between atoms: C_10  and  O_12
REMARK                            x       y       z     vdW  Elec       q    Type
REMARK                         _______ _______ _______ _____ _____    ______ ____
ROOT
ATOM      1  C   UNL     1       1.888  10.698  17.735  0.00  0.00    +0.000 C 
ATOM      2  C   UNL     1       2.361   9.459  18.476  0.00  0.00    +0.000 C 
ATOM      3  O   UNL     1       2.909   8.593  17.466  0.00  0.00    +0.000 OA
ATOM      4  C   UNL     1       3.212   7.354  17.962  0.00  0.00    +0.000 A 
ATOM      5  C   UNL     1       3.841   6.508  17.093  0.00  0.00    +0.000 A 
ATOM      6  C   UNL     1       4.300   5.309  17.578  0.00  0.00    +0.000 A 
ATOM      7  C   UNL     1       5.081   4.528  16.766  0.00  0.00    +0.000 A 
ATOM      8  C   UNL     1       6.408   4.707  17.011  0.00  0.00    +0.000 A 
ATOM      9  C   UNL     1       6.704   4.749  18.362  0.00  0.00    +0.000 A 
ATOM     10  N   UNL     1       5.706   4.790  19.329  0.00  0.00    +0.000 NA
ATOM     11  C   UNL     1       4.489   5.236  18.950  0.00  0.00    +0.000 A 
ATOM     12  N   UNL     1       3.616   5.862  19.774  0.00  0.00    +0.000 NA
ATOM     13  C   UNL     1       2.918   6.901  19.268  0.00  0.00    +0.000 A 
ATOM     14  N   UNL     1       1.991   7.634  19.987  0.00  0.00    +0.000 N 
ATOM     15  C   UNL     1       1.272   7.234  21.170  0.00  0.00    +0.000 C 
ATOM     16  C   UNL     1       0.393   8.462  21.473  0.00  0.00    +0.000 C 
ATOM     17  C   UNL     1       0.482   9.407  20.270  0.00  0.00    +0.000 C 
ATOM     18  C   UNL     1       1.281   8.657  19.221  0.00  0.00    +0.000 C 
ENDROOT
BRANCH   7  19
ATOM     19  O   UNL     1       4.699   3.166  16.719  0.00  0.00    +0.000 OA
ATOM     20  H   UNL     1       5.207   2.683  17.398  0.00  0.00    +0.000 HD
ENDBRANCH   7  19
BRANCH   8  21
ATOM     21  C   UNL     1       7.189   5.519  16.045  0.00  0.00    +0.000 C 
ATOM     22  O   UNL     1       7.497   5.104  14.942  0.00  0.00    +0.000 OA
BRANCH  21  23
ATOM     23  O   UNL     1       7.608   6.719  16.516  0.00  0.00    +0.000 OA
ATOM     24  H   UNL     1       7.775   6.803  17.477  0.00  0.00    +0.000 HD
ENDBRANCH  21  23
ENDBRANCH   8  21
TORSDOF 3
ENDMDL
MODEL 5
REMARK VINA RESULT:      -6.8      2.679      4.285
REMARK  Name = 
REMARK  4 active torsions:
REMARK  status: ('A' for Active; 'I' for Inactive)
REMARK    1  A    between atoms: C_1  and  C_2
REMARK    2  A    between atoms: C_7  and  O_8
REMARK    3  A    between atoms: C_9  and  C_10
REMARK    4  A    between atoms: C_10  and  O_12
REMARK                            x       y       z     vdW  Elec       q    Type
REMARK                         _______ _______ _______ _____ _____    ______ ____
ROOT
ATOM      1  C   UNL     1       1.567  11.595  18.048  0.00  0.00    +0.000 C 
ATOM      2  C   UNL     1       1.896  10.301  18.772  0.00  0.00    +0.000 C 
ATOM      3  O   UNL     1       2.360   9.397  17.753  0.00  0.00    +0.000 OA
ATOM      4  C   UNL     1       2.523   8.124  18.231  0.00  0.00    +0.000 A 
ATOM      5  C   UNL     1       3.067   7.230  17.354  0.00  0.00    +0.000 A 
ATOM      6  C   UNL     1       3.389   5.981  17.823  0.00  0.00    +0.000 A 
ATOM      7  C   UNL     1       4.091   5.133  17.006  0.00  0.00    +0.000 A 
ATOM      8  C   UNL     1       5.427   5.165  17.267  0.00  0.00    +0.000 A 
ATOM      9  C   UNL     1       5.710   5.154  18.622  0.00  0.00    +0.000 A 
ATOM     10  N   UNL     1       4.711   5.286  19.579  0.00  0.00    +0.000 NA
ATOM     11  C   UNL     1       3.553   5.867  19.195  0.00  0.00    +0.000 A 
ATOM     12  N   UNL     1       2.743   6.570  20.021  0.00  0.00    +0.000 NA
ATOM     13  C   UNL     1       2.166   7.686  19.526  0.00  0.00    +0.000 A 
ATOM     14  N   UNL     1       1.315   8.502  20.248  0.00  0.00    +0.000 N 
ATOM     15  C   UNL     1       0.544   8.164  21.418  0.00  0.00    +0.000 C 
ATOM     16  C   UNL     1      -0.202   9.474  21.733  0.00  0.00    +0.000 C 
ATOM     17  C   UNL     1       0.001  10.423  20.547  0.00  0.00    +0.000 C 
ATOM     18  C   UNL     1       0.727   9.608  19.493  0.00  0.00    +0.000 C 
ENDROOT
BRANCH   7  19
ATOM     19  O   UNL     1       3.565   3.821  16.932  0.00  0.00    +0.000 OA
ATOM     20  H   UNL     1       2.644   3.845  17.251  0.00  0.00    +0.000 HD
ENDBRANCH   7  19
BRANCH   8  21
ATOM     21  C   UNL     1       6.301   5.903  16.322  0.00  0.00    +0.000 C 
ATOM     22  O   UNL     1       7.440   6.230  16.605  0.00  0.00    +0.000 OA
BRANCH  21  23
ATOM     23  O   UNL     1       5.707   6.265  15.159  0.00  0.00    +0.000 OA
ATOM     24  H   UNL     1       5.857   5.702  14.371  0.00  0.00    +0.000 HD
ENDBRANCH  21  23
ENDBRANCH   8  21
TORSDOF 3
ENDMDL
MODEL 6
REMARK VINA RESULT:      -6.6      3.136      5.459
REMARK  Name = 
REMARK  4 active torsions:
REMARK  status: ('A' for Active; 'I' for Inactive)
REMARK    1  A    between atoms: C_1  and  C_2
REMARK    2  A    between atoms: C_7  and  O_8
REMARK    3  A    between atoms: C_9  and  C_10
REMARK    4  A    between atoms: C_10  and  O_12
REMARK                            x       y       z     vdW  Elec       q    Type
REMARK                         _______ _______ _______ _____ _____    ______ ____
ROOT
ATOM      1  C   UNL     1      -0.474   8.502  21.938  0.00  0.00    +0.000 C 
ATOM      2  C   UNL     1       0.349   8.248  20.686  0.00  0.00    +0.000 C 
ATOM      3  O   UNL     1       1.255   7.184  21.031  0.00  0.00    +0.000 OA
ATOM      4  C   UNL     1       2.188   6.968  20.053  0.00  0.00    +0.000 A 
ATOM      5  C   UNL     1       3.016   5.900  20.255  0.00  0.00    +0.000 A 
ATOM      6  C   UNL     1       3.871   5.548  19.240  0.00  0.00    +0.000 A 
ATOM      7  C   UNL     1       4.583   4.381  19.357  0.00  0.00    +0.000 A 
ATOM      8  C   UNL     1       3.980   3.351  18.701  0.00  0.00    +0.000 A 
ATOM      9  C   UNL     1       3.512   3.711  17.450  0.00  0.00    +0.000 A 
ATOM     10  N   UNL     1       3.507   5.034  17.023  0.00  0.00    +0.000 NA
ATOM     11  C   UNL     1       3.534   5.995  17.972  0.00  0.00    +0.000 A 
ATOM     12  N   UNL     1       2.990   7.226  17.826  0.00  0.00    +0.000 NA
ATOM     13  C   UNL     1       2.355   7.756  18.893  0.00  0.00    +0.000 A 
ATOM     14  N   UNL     1       1.754   9.002  18.895  0.00  0.00    +0.000 N 
ATOM     15  C   UNL     1       2.022  10.116  18.021  0.00  0.00    +0.000 C 
ATOM     16  C   UNL     1       1.056  11.201  18.534  0.00  0.00    +0.000 C 
ATOM     17  C   UNL     1       0.466  10.709  19.860  0.00  0.00    +0.000 C 
ATOM     18  C   UNL     1       1.204   9.423  20.183  0.00  0.00    +0.000 C 
ENDROOT
BRANCH   7  19
ATOM     19  O   UNL     1       5.962   4.503  19.063  0.00  0.00    +0.000 OA
ATOM     20  H   UNL     1       6.128   5.415  18.758  0.00  0.00    +0.000 HD
ENDBRANCH   7  19
BRANCH   8  21
ATOM     21  C   UNL     1       3.258   2.340  19.512  0.00  0.00    +0.000 C 
ATOM     22  O   UNL     1       3.333   2.301  20.727  0.00  0.00    +0.000 OA
BRANCH  21  23
ATOM     23  O   UNL     1       2.581   1.410  18.794  0.00  0.00    +0.000 OA
ATOM     24  H   UNL     1       2.977   0.518  18.709  0.00  0.00    +0.000 HD
ENDBRANCH  21  23
ENDBRANCH   8  21
TORSDOF 3
ENDMDL
MODEL 7
REMARK VINA RESULT:      -6.6      2.995      4.879
REMARK  Name = 
REMARK  4 active torsions:
REMARK  status: ('A' for Active; 'I' for Inactive)
REMARK    1  A    between atoms: C_1  and  C_2
REMARK    2  A    between atoms: C_7  and  O_8
REMARK    3  A    between atoms: C_9  and  C_10
REMARK    4  A    between atoms: C_10  and  O_12
REMARK                            x       y       z     vdW  Elec       q    Type
REMARK                         _______ _______ _______ _____ _____    ______ ____
ROOT
ATOM      1  C   UNL     1       2.211  11.209  17.831  0.00  0.00    +0.000 C 
ATOM      2  C   UNL     1       2.212   9.958  18.693  0.00  0.00    +0.000 C 
ATOM      3  O   UNL     1       2.399   8.861  17.779  0.00  0.00    +0.000 OA
ATOM      4  C   UNL     1       2.238   7.648  18.393  0.00  0.00    +0.000 A 
ATOM      5  C   UNL     1       2.509   6.556  17.620  0.00  0.00    +0.000 A 
ATOM      6  C   UNL     1       2.508   5.323  18.224  0.00  0.00    +0.000 A 
ATOM      7  C   UNL     1       2.946   4.239  17.505  0.00  0.00    +0.000 A 
ATOM      8  C   UNL     1       4.250   3.950  17.766  0.00  0.00    +0.000 A 
ATOM      9  C   UNL     1       4.554   4.008  19.115  0.00  0.00    +0.000 A 
ATOM     10  N   UNL     1       3.647   4.497  20.049  0.00  0.00    +0.000 NA
ATOM     11  C   UNL     1       2.671   5.315  19.600  0.00  0.00    +0.000 A 
ATOM     12  N   UNL     1       2.092   6.288  20.342  0.00  0.00    +0.000 NA
ATOM     13  C   UNL     1       1.812   7.457  19.727  0.00  0.00    +0.000 A 
ATOM     14  N   UNL     1       1.220   8.539  20.353  0.00  0.00    +0.000 N 
ATOM     15  C   UNL     1       0.417   8.538  21.550  0.00  0.00    +0.000 C 
ATOM     16  C   UNL     1       0.045  10.024  21.718  0.00  0.00    +0.000 C 
ATOM     17  C   UNL     1       0.458  10.756  20.437  0.00  0.00    +0.000 C 
ATOM     18  C   UNL     1       0.921   9.673  19.480  0.00  0.00    +0.000 C 
ENDROOT
BRANCH   7  19
ATOM     19  O   UNL     1       2.096   3.110  17.572  0.00  0.00    +0.000 OA
ATOM     20  H   UNL     1       1.841   2.975  18.505  0.00  0.00    +0.000 HD
ENDBRANCH   7  19
BRANCH   8  21
ATOM     21  C   UNL     1       5.262   4.331  16.750  0.00  0.00    +0.000 C 
ATOM     22  O   UNL     1       4.963   4.862  15.696  0.00  0.00    +0.000 OA
BRANCH  21  23
ATOM     23  O   UNL     1       6.533   3.961  17.045  0.00  0.00    +0.000 OA
ATOM     24  H   UNL     1       6.768   3.014  16.959  0.00  0.00    +0.000 HD
ENDBRANCH  21  23
ENDBRANCH   8  21
TORSDOF 3
ENDMDL
MODEL 8
REMARK VINA RESULT:      -6.6      3.771      6.341
REMARK  Name = 
REMARK  4 active torsions:
REMARK  status: ('A' for Active; 'I' for Inactive)
REMARK    1  A    between atoms: C_1  and  C_2
REMARK    2  A    between atoms: C_7  and  O_8
REMARK    3  A    between atoms: C_9  and  C_10
REMARK    4  A    between atoms: C_10  and  O_12
REMARK                            x       y       z     vdW  Elec       q    Type
REMARK                         _______ _______ _______ _____ _____    ______ ____
ROOT
ATOM      1  C   UNL     1      -0.514   9.996  22.493  0.00  0.00    +0.000 C 
ATOM      2  C   UNL     1       0.096   9.459  21.210  0.00  0.00    +0.000 C 
ATOM      3  O   UNL     1       0.786   8.253  21.586  0.00  0.00    +0.000 OA
ATOM      4  C   UNL     1       1.541   7.753  20.560  0.00  0.00    +0.000 A 
ATOM      5  C   UNL     1       2.139   6.549  20.802  0.00  0.00    +0.000 A 
ATOM      6  C   UNL     1       2.786   5.930  19.761  0.00  0.00    +0.000 A 
ATOM      7  C   UNL     1       3.240   4.648  19.939  0.00  0.00    +0.000 A 
ATOM      8  C   UNL     1       2.365   3.726  19.451  0.00  0.00    +0.000 A 
ATOM      9  C   UNL     1       1.853   4.074  18.213  0.00  0.00    +0.000 A 
ATOM     10  N   UNL     1       2.085   5.324  17.650  0.00  0.00    +0.000 NA
ATOM     11  C   UNL     1       2.417   6.332  18.486  0.00  0.00    +0.000 A 
ATOM     12  N   UNL     1       2.135   7.635  18.257  0.00  0.00    +0.000 NA
ATOM     13  C   UNL     1       1.746   8.383  19.312  0.00  0.00    +0.000 A 
ATOM     14  N   UNL     1       1.428   9.727  19.233  0.00  0.00    +0.000 N 
ATOM     15  C   UNL     1       1.832  10.674  18.226  0.00  0.00    +0.000 C 
ATOM     16  C   UNL     1       1.181  11.987  18.702  0.00  0.00    +0.000 C 
ATOM     17  C   UNL     1       0.645  11.753  20.119  0.00  0.00    +0.000 C 
ATOM     18  C   UNL     1       1.122  10.367  20.512  0.00  0.00    +0.000 C 
ENDROOT
BRANCH   7  19
ATOM     19  O   UNL     1       4.574   4.435  19.516  0.00  0.00    +0.000 OA
ATOM     20  H   UNL     1       4.555   3.855  18.731  0.00  0.00    +0.000 HD
ENDBRANCH   7  19
BRANCH   8  21
ATOM     21  C   UNL     1       1.535   2.974  20.424  0.00  0.00    +0.000 C 
ATOM     22  O   UNL     1       2.000   2.481  21.436  0.00  0.00    +0.000 OA
BRANCH  21  23
ATOM     23  O   UNL     1       0.242   2.801  20.057  0.00  0.00    +0.000 OA
ATOM     24  H   UNL     1      -0.032   3.119  19.171  0.00  0.00    +0.000 HD
ENDBRANCH  21  23
ENDBRANCH   8  21
TORSDOF 3
ENDMDL
MODEL 9
REMARK VINA RESULT:      -6.5      3.045      4.950
REMARK  Name = 
REMARK  4 active torsions:
REMARK  status: ('A' for Active; 'I' for Inactive)
REMARK    1  A    between atoms: C_1  and  C_2
REMARK    2  A    between atoms: C_7  and  O_8
REMARK    3  A    between atoms: C_9  and  C_10
REMARK    4  A    between atoms: C_10  and  O_12
REMARK                            x       y       z     vdW  Elec       q    Type
REMARK                         _______ _______ _______ _____ _____    ______ ____
ROOT
ATOM      1  C   UNL     1       1.356  12.166  18.573  0.00  0.00    +0.000 C 
ATOM      2  C   UNL     1       1.543  10.840  19.290  0.00  0.00    +0.000 C 
ATOM      3  O   UNL     1       1.870   9.888  18.261  0.00  0.00    +0.000 OA
ATOM      4  C   UNL     1       1.888   8.605  18.735  0.00  0.00    +0.000 A 
ATOM      5  C   UNL     1       2.299   7.653  17.846  0.00  0.00    +0.000 A 
ATOM      6  C   UNL     1       2.478   6.373  18.308  0.00  0.00    +0.000 A 
ATOM      7  C   UNL     1       3.053   5.448  17.474  0.00  0.00    +0.000 A 
ATOM      8  C   UNL     1       4.389   5.318  17.704  0.00  0.00    +0.000 A 
ATOM      9  C   UNL     1       4.700   5.269  19.051  0.00  0.00    +0.000 A 
ATOM     10  N   UNL     1       3.747   5.519  20.032  0.00  0.00    +0.000 NA
ATOM     11  C   UNL     1       2.659   6.236  19.676  0.00  0.00    +0.000 A 
ATOM     12  N   UNL     1       1.961   7.030  20.520  0.00  0.00    +0.000 NA
ATOM     13  C   UNL     1       1.512   8.209  20.038  0.00  0.00    +0.000 A 
ATOM     14  N   UNL     1       0.783   9.121  20.780  0.00  0.00    +0.000 N 
ATOM     15  C   UNL     1       0.004   8.875  21.968  0.00  0.00    +0.000 C 
ATOM     16  C   UNL     1      -0.570  10.266  22.300  0.00  0.00    +0.000 C 
ATOM     17  C   UNL     1      -0.281  11.185  21.109  0.00  0.00    +0.000 C 
ATOM     18  C   UNL     1       0.316  10.291  20.039  0.00  0.00    +0.000 C 
ENDROOT
BRANCH   7  19
ATOM     19  O   UNL     1       2.371   4.210  17.413  0.00  0.00    +0.000 OA
ATOM     20  H   UNL     1       2.135   3.947  18.323  0.00  0.00    +0.000 HD
ENDBRANCH   7  19
BRANCH   8  21
ATOM     21  C   UNL     1       5.324   5.947  16.738  0.00  0.00    +0.000 C 
ATOM     22  O   UNL     1       5.620   5.424  15.679  0.00  0.00    +0.000 OA
BRANCH  21  23
ATOM     23  O   UNL     1       5.891   7.102  17.164  0.00  0.00    +0.000 OA
ATOM     24  H   UNL     1       5.592   7.940  16.753  0.00  0.00    +0.000 HD
ENDBRANCH  21  23
ENDBRANCH   8  21
TORSDOF 3
ENDMDL
