MODEL 1
REMARK VINA RESULT:      -7.8      0.000      0.000
REMARK  Name = 
REMARK  8 active torsions:
REMARK  status: ('A' for Active; 'I' for Inactive)
REMARK    1  A    between atoms: C_1  and  C_2
REMARK    2  A    between atoms: C_2  and  O_3
REMARK    3  A    between atoms: O_3  and  C_4
REMARK    4  A    between atoms: C_4  and  C_6
REMARK    5  A    between atoms: C_6  and  O_7
REMARK    6  A    between atoms: O_7  and  N_8
REMARK    7  A    between atoms: C_9  and  C_10
REMARK    8  A    between atoms: C_20  and  N_21
REMARK                            x       y       z     vdW  Elec       q    Type
REMARK                         _______ _______ _______ _____ _____    ______ ____
ROOT
ATOM      1  N   UNL     1       2.662   6.975  19.670  0.00  0.00    +0.000 N 
ATOM      2  C   UNL     1       2.945   7.114  18.320  0.00  0.00    +0.000 A 
ATOM      3  N   UNL     1       2.382   8.222  17.858  0.00  0.00    +0.000 NA
ATOM      4  C   UNL     1       1.716   8.784  18.909  0.00  0.00    +0.000 A 
ATOM      5  C   UNL     1       0.941   9.955  18.947  0.00  0.00    +0.000 A 
ATOM      6  C   UNL     1       0.330  10.336  20.152  0.00  0.00    +0.000 A 
ATOM      7  C   UNL     1       0.490   9.556  21.300  0.00  0.00    +0.000 A 
ATOM      8  C   UNL     1       1.249   8.378  21.276  0.00  0.00    +0.000 A 
ATOM      9  C   UNL     1       1.857   8.023  20.062  0.00  0.00    +0.000 A 
ENDROOT
BRANCH   2  10
ATOM     10  C   UNL     1       3.706   6.170  17.490  0.00  0.00    +0.000 A 
ATOM     11  C   UNL     1       3.334   4.814  17.480  0.00  0.00    +0.000 A 
ATOM     12  C   UNL     1       4.015   3.886  16.689  0.00  0.00    +0.000 A 
ATOM     13  C   UNL     1       5.074   4.303  15.888  0.00  0.00    +0.000 A 
ATOM     14  C   UNL     1       5.450   5.644  15.879  0.00  0.00    +0.000 A 
ATOM     15  C   UNL     1       4.771   6.571  16.675  0.00  0.00    +0.000 A 
ENDBRANCH   2  10
BRANCH   7  16
ATOM     16  N   UNL     1      -0.131   9.956  22.571  0.00  0.00    +0.000 N 
ATOM     17  O   UNL     1       0.439   9.621  23.618  0.00  0.00    +0.000 OA
ATOM     18  O   UNL     1      -1.190  10.596  22.519  0.00  0.00    +0.000 OA
ENDBRANCH   7  16
BRANCH   1  19
ATOM     19  O   UNL     1       2.985   5.846  20.445  0.00  0.00    +0.000 OA
BRANCH  19  20
ATOM     20  C   UNL     1       1.823   5.101  20.787  0.00  0.00    +0.000 C 
BRANCH  20  21
ATOM     21  C   UNL     1       2.153   3.665  21.128  0.00  0.00    +0.000 C 
ATOM     22  O   UNL     1       2.027   3.156  22.226  0.00  0.00    +0.000 OA
BRANCH  21  23
ATOM     23  O   UNL     1       2.708   3.072  20.028  0.00  0.00    +0.000 OA
BRANCH  23  25
ATOM     24  C   UNL     1       0.812   2.404  18.758  0.00  0.00    +0.000 C 
ATOM     25  C   UNL     1       1.995   1.914  19.571  0.00  0.00    +0.000 C 
ENDBRANCH  23  25
ENDBRANCH  21  23
ENDBRANCH  20  21
ENDBRANCH  19  20
ENDBRANCH   1  19
TORSDOF 7
ENDMDL
MODEL 2
REMARK VINA RESULT:      -7.7      0.492      1.089
REMARK  Name = 
REMARK  8 active torsions:
REMARK  status: ('A' for Active; 'I' for Inactive)
REMARK    1  A    between atoms: C_1  and  C_2
REMARK    2  A    between atoms: C_2  and  O_3
REMARK    3  A    between atoms: O_3  and  C_4
REMARK    4  A    between atoms: C_4  and  C_6
REMARK    5  A    between atoms: C_6  and  O_7
REMARK    6  A    between atoms: O_7  and  N_8
REMARK    7  A    between atoms: C_9  and  C_10
REMARK    8  A    between atoms: C_20  and  N_21
REMARK                            x       y       z     vdW  Elec       q    Type
REMARK                         _______ _______ _______ _____ _____    ______ ____
ROOT
ATOM      1  N   UNL     1       2.551   6.869  19.785  0.00  0.00    +0.000 N 
ATOM      2  C   UNL     1       2.856   7.013  18.440  0.00  0.00    +0.000 A 
ATOM      3  N   UNL     1       2.355   8.155  17.988  0.00  0.00    +0.000 NA
ATOM      4  C   UNL     1       1.706   8.735  19.041  0.00  0.00    +0.000 A 
ATOM      5  C   UNL     1       0.991   9.943  19.087  0.00  0.00    +0.000 A 
ATOM      6  C   UNL     1       0.387  10.337  20.292  0.00  0.00    +0.000 A 
ATOM      7  C   UNL     1       0.493   9.533  21.429  0.00  0.00    +0.000 A 
ATOM      8  C   UNL     1       1.192   8.319  21.395  0.00  0.00    +0.000 A 
ATOM      9  C   UNL     1       1.795   7.951  20.183  0.00  0.00    +0.000 A 
ENDROOT
BRANCH   2  10
ATOM     10  C   UNL     1       3.578   6.043  17.605  0.00  0.00    +0.000 A 
ATOM     11  C   UNL     1       4.632   6.493  16.790  0.00  0.00    +0.000 A 
ATOM     12  C   UNL     1       5.359   5.601  15.996  0.00  0.00    +0.000 A 
ATOM     13  C   UNL     1       5.048   4.245  16.015  0.00  0.00    +0.000 A 
ATOM     14  C   UNL     1       4.013   3.781  16.824  0.00  0.00    +0.000 A 
ATOM     15  C   UNL     1       3.283   4.675  17.613  0.00  0.00    +0.000 A 
ENDBRANCH   2  10
BRANCH   7  16
ATOM     16  N   UNL     1      -0.122   9.946  22.699  0.00  0.00    +0.000 N 
ATOM     17  O   UNL     1       0.452   9.619  23.747  0.00  0.00    +0.000 OA
ATOM     18  O   UNL     1      -1.179  10.588  22.645  0.00  0.00    +0.000 OA
ENDBRANCH   7  16
BRANCH   1  19
ATOM     19  O   UNL     1       2.806   5.714  20.546  0.00  0.00    +0.000 OA
BRANCH  19  20
ATOM     20  C   UNL     1       1.628   4.940  20.728  0.00  0.00    +0.000 C 
BRANCH  20  21
ATOM     21  C   UNL     1       1.915   3.633  21.434  0.00  0.00    +0.000 C 
ATOM     22  O   UNL     1       2.485   3.523  22.503  0.00  0.00    +0.000 OA
BRANCH  21  23
ATOM     23  O   UNL     1       1.519   2.604  20.627  0.00  0.00    +0.000 OA
BRANCH  23  25
ATOM     24  C   UNL     1       0.885   2.104  18.390  0.00  0.00    +0.000 C 
ATOM     25  C   UNL     1       0.612   2.996  19.587  0.00  0.00    +0.000 C 
ENDBRANCH  23  25
ENDBRANCH  21  23
ENDBRANCH  20  21
ENDBRANCH  19  20
ENDBRANCH   1  19
TORSDOF 7
ENDMDL
MODEL 3
REMARK VINA RESULT:      -7.5      0.818      1.374
REMARK  Name = 
REMARK  8 active torsions:
REMARK  status: ('A' for Active; 'I' for Inactive)
REMARK    1  A    between atoms: C_1  and  C_2
REMARK    2  A    between atoms: C_2  and  O_3
REMARK    3  A    between atoms: O_3  and  C_4
REMARK    4  A    between atoms: C_4  and  C_6
REMARK    5  A    between atoms: C_6  and  O_7
REMARK    6  A    between atoms: O_7  and  N_8
REMARK    7  A    between atoms: C_9  and  C_10
REMARK    8  A    between atoms: C_20  and  N_21
REMARK                            x       y       z     vdW  Elec       q    Type
REMARK                         _______ _______ _______ _____ _____    ______ ____
ROOT
ATOM      1  N   UNL     1       2.390   6.880  19.918  0.00  0.00    +0.000 N 
ATOM      2  C   UNL     1       2.689   7.010  18.571  0.00  0.00    +0.000 A 
ATOM      3  N   UNL     1       2.209   8.159  18.115  0.00  0.00    +0.000 NA
ATOM      4  C   UNL     1       1.580   8.759  19.169  0.00  0.00    +0.000 A 
ATOM      5  C   UNL     1       0.891   9.983  19.213  0.00  0.00    +0.000 A 
ATOM      6  C   UNL     1       0.304  10.397  20.419  0.00  0.00    +0.000 A 
ATOM      7  C   UNL     1       0.401   9.598  21.561  0.00  0.00    +0.000 A 
ATOM      8  C   UNL     1       1.074   8.369  21.530  0.00  0.00    +0.000 A 
ATOM      9  C   UNL     1       1.660   7.981  20.315  0.00  0.00    +0.000 A 
ENDROOT
BRANCH   2  10
ATOM     10  C   UNL     1       3.384   6.020  17.736  0.00  0.00    +0.000 A 
ATOM     11  C   UNL     1       4.662   6.324  17.235  0.00  0.00    +0.000 A 
ATOM     12  C   UNL     1       5.367   5.403  16.456  0.00  0.00    +0.000 A 
ATOM     13  C   UNL     1       4.808   4.160  16.175  0.00  0.00    +0.000 A 
ATOM     14  C   UNL     1       3.546   3.839  16.672  0.00  0.00    +0.000 A 
ATOM     15  C   UNL     1       2.839   4.764  17.447  0.00  0.00    +0.000 A 
ENDBRANCH   2  10
BRANCH   7  16
ATOM     16  N   UNL     1      -0.195  10.031  22.832  0.00  0.00    +0.000 N 
ATOM     17  O   UNL     1       0.339   9.641  23.879  0.00  0.00    +0.000 OA
ATOM     18  O   UNL     1      -1.201  10.753  22.781  0.00  0.00    +0.000 OA
ENDBRANCH   7  16
BRANCH   1  19
ATOM     19  O   UNL     1       2.626   5.725  20.684  0.00  0.00    +0.000 OA
BRANCH  19  20
ATOM     20  C   UNL     1       1.494   4.865  20.692  0.00  0.00    +0.000 C 
BRANCH  20  21
ATOM     21  C   UNL     1       1.851   3.466  21.141  0.00  0.00    +0.000 C 
ATOM     22  O   UNL     1       1.688   3.025  22.264  0.00  0.00    +0.000 OA
BRANCH  21  23
ATOM     23  O   UNL     1       2.476   2.822  20.110  0.00  0.00    +0.000 OA
BRANCH  23  25
ATOM     24  C   UNL     1       4.818   3.080  19.786  0.00  0.00    +0.000 C 
ATOM     25  C   UNL     1       3.743   2.251  20.464  0.00  0.00    +0.000 C 
ENDBRANCH  23  25
ENDBRANCH  21  23
ENDBRANCH  20  21
ENDBRANCH  19  20
ENDBRANCH   1  19
TORSDOF 7
ENDMDL
MODEL 4
REMARK VINA RESULT:      -7.4      1.281      1.543
REMARK  Name = 
REMARK  8 active torsions:
REMARK  status: ('A' for Active; 'I' for Inactive)
REMARK    1  A    between atoms: C_1  and  C_2
REMARK    2  A    between atoms: C_2  and  O_3
REMARK    3  A    between atoms: O_3  and  C_4
REMARK    4  A    between atoms: C_4  and  C_6
REMARK    5  A    between atoms: C_6  and  O_7
REMARK    6  A    between atoms: O_7  and  N_8
REMARK    7  A    between atoms: C_9  and  C_10
REMARK    8  A    between atoms: C_20  and  N_21
REMARK                            x       y       z     vdW  Elec       q    Type
REMARK                         _______ _______ _______ _____ _____    ______ ____
ROOT
ATOM      1  N   UNL     1       3.514   6.575  19.103  0.00  0.00    +0.000 N 
ATOM      2  C   UNL     1       3.858   6.730  17.769  0.00  0.00    +0.000 A 
ATOM      3  N   UNL     1       3.158   7.724  17.240  0.00  0.00    +0.000 NA
ATOM      4  C   UNL     1       2.345   8.195  18.232  0.00  0.00    +0.000 A 
ATOM      5  C   UNL     1       1.395   9.229  18.186  0.00  0.00    +0.000 A 
ATOM      6  C   UNL     1       0.656   9.532  19.341  0.00  0.00    +0.000 A 
ATOM      7  C   UNL     1       0.862   8.811  20.519  0.00  0.00    +0.000 A 
ATOM      8  C   UNL     1       1.797   7.769  20.577  0.00  0.00    +0.000 A 
ATOM      9  C   UNL     1       2.530   7.490  19.413  0.00  0.00    +0.000 A 
ENDROOT
BRANCH   2  10
ATOM     10  C   UNL     1       4.809   5.902  17.016  0.00  0.00    +0.000 A 
ATOM     11  C   UNL     1       4.382   4.665  16.502  0.00  0.00    +0.000 A 
ATOM     12  C   UNL     1       5.248   3.855  15.761  0.00  0.00    +0.000 A 
ATOM     13  C   UNL     1       6.551   4.277  15.516  0.00  0.00    +0.000 A 
ATOM     14  C   UNL     1       6.988   5.505  16.010  0.00  0.00    +0.000 A 
ATOM     15  C   UNL     1       6.122   6.311  16.755  0.00  0.00    +0.000 A 
ENDBRANCH   2  10
BRANCH   7  16
ATOM     16  N   UNL     1       0.105   9.134  21.737  0.00  0.00    +0.000 N 
ATOM     17  O   UNL     1       0.431  10.152  22.363  0.00  0.00    +0.000 OA
ATOM     18  O   UNL     1      -0.807   8.365  22.070  0.00  0.00    +0.000 OA
ENDBRANCH   7  16
BRANCH   1  19
ATOM     19  O   UNL     1       3.959   5.528  19.930  0.00  0.00    +0.000 OA
BRANCH  19  20
ATOM     20  C   UNL     1       3.057   4.430  19.910  0.00  0.00    +0.000 C 
BRANCH  20  21
ATOM     21  C   UNL     1       3.777   3.111  19.736  0.00  0.00    +0.000 C 
ATOM     22  O   UNL     1       4.984   2.975  19.658  0.00  0.00    +0.000 OA
BRANCH  21  23
ATOM     23  O   UNL     1       2.847   2.122  19.582  0.00  0.00    +0.000 OA
BRANCH  23  25
ATOM     24  C   UNL     1       0.633   2.251  18.723  0.00  0.00    +0.000 C 
ATOM     25  C   UNL     1       2.105   2.207  18.357  0.00  0.00    +0.000 C 
ENDBRANCH  23  25
ENDBRANCH  21  23
ENDBRANCH  20  21
ENDBRANCH  19  20
ENDBRANCH   1  19
TORSDOF 7
ENDMDL
MODEL 5
REMARK VINA RESULT:      -7.3      1.404      1.849
REMARK  Name = 
REMARK  8 active torsions:
REMARK  status: ('A' for Active; 'I' for Inactive)
REMARK    1  A    between atoms: C_1  and  C_2
REMARK    2  A    between atoms: C_2  and  O_3
REMARK    3  A    between atoms: O_3  and  C_4
REMARK    4  A    between atoms: C_4  and  C_6
REMARK    5  A    between atoms: C_6  and  O_7
REMARK    6  A    between atoms: O_7  and  N_8
REMARK    7  A    between atoms: C_9  and  C_10
REMARK    8  A    between atoms: C_20  and  N_21
REMARK                            x       y       z     vdW  Elec       q    Type
REMARK                         _______ _______ _______ _____ _____    ______ ____
ROOT
ATOM      1  N   UNL     1       3.440   6.711  19.029  0.00  0.00    +0.000 N 
ATOM      2  C   UNL     1       3.912   6.830  17.731  0.00  0.00    +0.000 A 
ATOM      3  N   UNL     1       3.284   7.824  17.117  0.00  0.00    +0.000 NA
ATOM      4  C   UNL     1       2.390   8.330  18.017  0.00  0.00    +0.000 A 
ATOM      5  C   UNL     1       1.468   9.378  17.860  0.00  0.00    +0.000 A 
ATOM      6  C   UNL     1       0.628   9.719  18.932  0.00  0.00    +0.000 A 
ATOM      7  C   UNL     1       0.707   9.021  20.139  0.00  0.00    +0.000 A 
ATOM      8  C   UNL     1       1.613   7.965  20.308  0.00  0.00    +0.000 A 
ATOM      9  C   UNL     1       2.448   7.648  19.225  0.00  0.00    +0.000 A 
ENDROOT
BRANCH   2  10
ATOM     10  C   UNL     1       4.916   5.969  17.090  0.00  0.00    +0.000 A 
ATOM     11  C   UNL     1       6.278   6.187  17.361  0.00  0.00    +0.000 A 
ATOM     12  C   UNL     1       7.264   5.379  16.790  0.00  0.00    +0.000 A 
ATOM     13  C   UNL     1       6.900   4.333  15.947  0.00  0.00    +0.000 A 
ATOM     14  C   UNL     1       5.554   4.097  15.675  0.00  0.00    +0.000 A 
ATOM     15  C   UNL     1       4.569   4.910  16.243  0.00  0.00    +0.000 A 
ENDBRANCH   2  10
BRANCH   7  16
ATOM     16  N   UNL     1      -0.156   9.383  21.273  0.00  0.00    +0.000 N 
ATOM     17  O   UNL     1      -0.537   8.471  22.019  0.00  0.00    +0.000 OA
ATOM     18  O   UNL     1      -0.457  10.577  21.410  0.00  0.00    +0.000 OA
ENDBRANCH   7  16
BRANCH   1  19
ATOM     19  O   UNL     1       3.785   5.675  19.917  0.00  0.00    +0.000 OA
BRANCH  19  20
ATOM     20  C   UNL     1       2.986   4.519  19.703  0.00  0.00    +0.000 C 
BRANCH  20  21
ATOM     21  C   UNL     1       3.829   3.281  19.491  0.00  0.00    +0.000 C 
ATOM     22  O   UNL     1       5.044   3.241  19.547  0.00  0.00    +0.000 OA
BRANCH  21  23
ATOM     23  O   UNL     1       3.008   2.250  19.130  0.00  0.00    +0.000 OA
BRANCH  23  25
ATOM     24  C   UNL     1       0.658   2.198  18.769  0.00  0.00    +0.000 C 
ATOM     25  C   UNL     1       1.994   2.618  18.184  0.00  0.00    +0.000 C 
ENDBRANCH  23  25
ENDBRANCH  21  23
ENDBRANCH  20  21
ENDBRANCH  19  20
ENDBRANCH   1  19
TORSDOF 7
ENDMDL
MODEL 6
REMARK VINA RESULT:      -7.3      1.565      2.185
REMARK  Name = 
REMARK  8 active torsions:
REMARK  status: ('A' for Active; 'I' for Inactive)
REMARK    1  A    between atoms: C_1  and  C_2
REMARK    2  A    between atoms: C_2  and  O_3
REMARK    3  A    between atoms: O_3  and  C_4
REMARK    4  A    between atoms: C_4  and  C_6
REMARK    5  A    between atoms: C_6  and  O_7
REMARK    6  A    between atoms: O_7  and  N_8
REMARK    7  A    between atoms: C_9  and  C_10
REMARK    8  A    between atoms: C_20  and  N_21
REMARK                            x       y       z     vdW  Elec       q    Type
REMARK                         _______ _______ _______ _____ _____    ______ ____
ROOT
ATOM      1  N   UNL     1       3.513   6.322  18.903  0.00  0.00    +0.000 N 
ATOM      2  C   UNL     1       4.110   6.601  17.683  0.00  0.00    +0.000 A 
ATOM      3  N   UNL     1       3.639   7.745  17.207  0.00  0.00    +0.000 NA
ATOM      4  C   UNL     1       2.720   8.192  18.114  0.00  0.00    +0.000 A 
ATOM      5  C   UNL     1       1.922   9.347  18.074  0.00  0.00    +0.000 A 
ATOM      6  C   UNL     1       1.025   9.598  19.126  0.00  0.00    +0.000 A 
ATOM      7  C   UNL     1       0.928   8.706  20.196  0.00  0.00    +0.000 A 
ATOM      8  C   UNL     1       1.709   7.543  20.244  0.00  0.00    +0.000 A 
ATOM      9  C   UNL     1       2.603   7.318  19.186  0.00  0.00    +0.000 A 
ENDROOT
BRANCH   2  10
ATOM     10  C   UNL     1       5.079   5.752  16.976  0.00  0.00    +0.000 A 
ATOM     11  C   UNL     1       6.357   5.564  17.532  0.00  0.00    +0.000 A 
ATOM     12  C   UNL     1       7.302   4.748  16.905  0.00  0.00    +0.000 A 
ATOM     13  C   UNL     1       6.977   4.098  15.717  0.00  0.00    +0.000 A 
ATOM     14  C   UNL     1       5.712   4.266  15.158  0.00  0.00    +0.000 A 
ATOM     15  C   UNL     1       4.770   5.088  15.784  0.00  0.00    +0.000 A 
ENDBRANCH   2  10
BRANCH   7  16
ATOM     16  N   UNL     1       0.005   8.969  21.310  0.00  0.00    +0.000 N 
ATOM     17  O   UNL     1       0.019  10.102  21.811  0.00  0.00    +0.000 OA
ATOM     18  O   UNL     1      -0.724   8.041  21.686  0.00  0.00    +0.000 OA
ENDBRANCH   7  16
BRANCH   1  19
ATOM     19  O   UNL     1       3.675   5.122  19.619  0.00  0.00    +0.000 OA
BRANCH  19  20
ATOM     20  C   UNL     1       3.248   4.000  18.858  0.00  0.00    +0.000 C 
BRANCH  20  21
ATOM     21  C   UNL     1       1.761   4.037  18.583  0.00  0.00    +0.000 C 
ATOM     22  O   UNL     1       1.253   4.208  17.491  0.00  0.00    +0.000 OA
BRANCH  21  23
ATOM     23  O   UNL     1       1.094   3.949  19.773  0.00  0.00    +0.000 OA
BRANCH  23  25
ATOM     24  C   UNL     1       1.629   2.761  21.763  0.00  0.00    +0.000 C 
ATOM     25  C   UNL     1       1.099   2.634  20.346  0.00  0.00    +0.000 C 
ENDBRANCH  23  25
ENDBRANCH  21  23
ENDBRANCH  20  21
ENDBRANCH  19  20
ENDBRANCH   1  19
TORSDOF 7
ENDMDL
MODEL 7
REMARK VINA RESULT:      -7.3      2.087      6.893
REMARK  Name = 
REMARK  8 active torsions:
REMARK  status: ('A' for Active; 'I' for Inactive)
REMARK    1  A    between atoms: C_1  and  C_2
REMARK    2  A    between atoms: C_2  and  O_3
REMARK    3  A    between atoms: O_3  and  C_4
REMARK    4  A    between atoms: C_4  and  C_6
REMARK    5  A    between atoms: C_6  and  O_7
REMARK    6  A    between atoms: O_7  and  N_8
REMARK    7  A    between atoms: C_9  and  C_10
REMARK    8  A    between atoms: C_20  and  N_21
REMARK                            x       y       z     vdW  Elec       q    Type
REMARK                         _______ _______ _______ _____ _____    ______ ____
ROOT
ATOM      1  N   UNL     1       1.420   8.272  19.485  0.00  0.00    +0.000 N 
ATOM      2  C   UNL     1       1.445   9.317  18.575  0.00  0.00    +0.000 A 
ATOM      3  N   UNL     1       2.347   9.069  17.635  0.00  0.00    +0.000 NA
ATOM      4  C   UNL     1       2.918   7.871  17.955  0.00  0.00    +0.000 A 
ATOM      5  C   UNL     1       3.940   7.169  17.294  0.00  0.00    +0.000 A 
ATOM      6  C   UNL     1       4.384   5.946  17.820  0.00  0.00    +0.000 A 
ATOM      7  C   UNL     1       3.817   5.435  18.990  0.00  0.00    +0.000 A 
ATOM      8  C   UNL     1       2.805   6.129  19.668  0.00  0.00    +0.000 A 
ATOM      9  C   UNL     1       2.372   7.345  19.117  0.00  0.00    +0.000 A 
ENDROOT
BRANCH   2  10
ATOM     10  C   UNL     1       0.645  10.548  18.644  0.00  0.00    +0.000 A 
ATOM     11  C   UNL     1       1.293  11.772  18.887  0.00  0.00    +0.000 A 
ATOM     12  C   UNL     1       0.574  12.969  18.939  0.00  0.00    +0.000 A 
ATOM     13  C   UNL     1      -0.804  12.960  18.738  0.00  0.00    +0.000 A 
ATOM     14  C   UNL     1      -1.460  11.756  18.487  0.00  0.00    +0.000 A 
ATOM     15  C   UNL     1      -0.740  10.559  18.441  0.00  0.00    +0.000 A 
ENDBRANCH   2  10
BRANCH   7  16
ATOM     16  N   UNL     1       4.263   4.146  19.539  0.00  0.00    +0.000 N 
ATOM     17  O   UNL     1       3.422   3.450  20.124  0.00  0.00    +0.000 OA
ATOM     18  O   UNL     1       5.453   3.837  19.390  0.00  0.00    +0.000 OA
ENDBRANCH   7  16
BRANCH   1  19
ATOM     19  O   UNL     1       0.682   8.268  20.683  0.00  0.00    +0.000 OA
BRANCH  19  20
ATOM     20  C   UNL     1       1.386   8.924  21.729  0.00  0.00    +0.000 C 
BRANCH  20  21
ATOM     21  C   UNL     1       0.450   9.642  22.676  0.00  0.00    +0.000 C 
ATOM     22  O   UNL     1       0.507   9.593  23.891  0.00  0.00    +0.000 OA
BRANCH  21  23
ATOM     23  O   UNL     1      -0.521  10.263  21.943  0.00  0.00    +0.000 OA
BRANCH  23  25
ATOM     24  C   UNL     1      -2.011  11.871  22.865  0.00  0.00    +0.000 C 
ATOM     25  C   UNL     1      -0.653  11.664  22.222  0.00  0.00    +0.000 C 
ENDBRANCH  23  25
ENDBRANCH  21  23
ENDBRANCH  20  21
ENDBRANCH  19  20
ENDBRANCH   1  19
TORSDOF 7
ENDMDL
MODEL 8
REMARK VINA RESULT:      -7.3      2.077      6.833
REMARK  Name = 
REMARK  8 active torsions:
REMARK  status: ('A' for Active; 'I' for Inactive)
REMARK    1  A    between atoms: C_1  and  C_2
REMARK    2  A    between atoms: C_2  and  O_3
REMARK    3  A    between atoms: O_3  and  C_4
REMARK    4  A    between atoms: C_4  and  C_6
REMARK    5  A    between atoms: C_6  and  O_7
REMARK    6  A    between atoms: O_7  and  N_8
REMARK    7  A    between atoms: C_9  and  C_10
REMARK    8  A    between atoms: C_20  and  N_21
REMARK                            x       y       z     vdW  Elec       q    Type
REMARK                         _______ _______ _______ _____ _____    ______ ____
ROOT
ATOM      1  N   UNL     1       1.462   8.263  19.475  0.00  0.00    +0.000 N 
ATOM      2  C   UNL     1       1.487   9.297  18.553  0.00  0.00    +0.000 A 
ATOM      3  N   UNL     1       2.377   9.031  17.606  0.00  0.00    +0.000 NA
ATOM      4  C   UNL     1       2.941   7.831  17.934  0.00  0.00    +0.000 A 
ATOM      5  C   UNL     1       3.950   7.113  17.271  0.00  0.00    +0.000 A 
ATOM      6  C   UNL     1       4.389   5.892  17.807  0.00  0.00    +0.000 A 
ATOM      7  C   UNL     1       3.829   5.399  18.989  0.00  0.00    +0.000 A 
ATOM      8  C   UNL     1       2.830   6.110  19.668  0.00  0.00    +0.000 A 
ATOM      9  C   UNL     1       2.403   7.323  19.109  0.00  0.00    +0.000 A 
ENDROOT
BRANCH   2  10
ATOM     10  C   UNL     1       0.699  10.536  18.616  0.00  0.00    +0.000 A 
ATOM     11  C   UNL     1      -0.688  10.477  18.390  0.00  0.00    +0.000 A 
ATOM     12  C   UNL     1      -1.479  11.627  18.462  0.00  0.00    +0.000 A 
ATOM     13  C   UNL     1      -0.894  12.852  18.772  0.00  0.00    +0.000 A 
ATOM     14  C   UNL     1       0.477  12.926  19.008  0.00  0.00    +0.000 A 
ATOM     15  C   UNL     1       1.268  11.776  18.930  0.00  0.00    +0.000 A 
ENDBRANCH   2  10
BRANCH   7  16
ATOM     16  N   UNL     1       4.269   4.113  19.548  0.00  0.00    +0.000 N 
ATOM     17  O   UNL     1       5.452   3.788  19.376  0.00  0.00    +0.000 OA
ATOM     18  O   UNL     1       3.430   3.429  20.149  0.00  0.00    +0.000 OA
ENDBRANCH   7  16
BRANCH   1  19
ATOM     19  O   UNL     1       0.737   8.280  20.680  0.00  0.00    +0.000 OA
BRANCH  19  20
ATOM     20  C   UNL     1       1.419   9.016  21.687  0.00  0.00    +0.000 C 
BRANCH  20  21
ATOM     21  C   UNL     1       0.458   9.683  22.647  0.00  0.00    +0.000 C 
ATOM     22  O   UNL     1       0.482   9.568  23.858  0.00  0.00    +0.000 OA
BRANCH  21  23
ATOM     23  O   UNL     1      -0.493  10.346  21.923  0.00  0.00    +0.000 OA
BRANCH  23  25
ATOM     24  C   UNL     1      -2.064  11.826  22.921  0.00  0.00    +0.000 C 
ATOM     25  C   UNL     1      -0.677  11.713  22.318  0.00  0.00    +0.000 C 
ENDBRANCH  23  25
ENDBRANCH  21  23
ENDBRANCH  20  21
ENDBRANCH  19  20
ENDBRANCH   1  19
TORSDOF 7
ENDMDL
MODEL 9
REMARK VINA RESULT:      -7.3      1.478      2.011
REMARK  Name = 
REMARK  8 active torsions:
REMARK  status: ('A' for Active; 'I' for Inactive)
REMARK    1  A    between atoms: C_1  and  C_2
REMARK    2  A    between atoms: C_2  and  O_3
REMARK    3  A    between atoms: O_3  and  C_4
REMARK    4  A    between atoms: C_4  and  C_6
REMARK    5  A    between atoms: C_6  and  O_7
REMARK    6  A    between atoms: O_7  and  N_8
REMARK    7  A    between atoms: C_9  and  C_10
REMARK    8  A    between atoms: C_20  and  N_21
REMARK                            x       y       z     vdW  Elec       q    Type
REMARK                         _______ _______ _______ _____ _____    ______ ____
ROOT
ATOM      1  N   UNL     1       3.465   6.657  18.954  0.00  0.00    +0.000 N 
ATOM      2  C   UNL     1       4.043   6.838  17.707  0.00  0.00    +0.000 A 
ATOM      3  N   UNL     1       3.514   7.902  17.119  0.00  0.00    +0.000 NA
ATOM      4  C   UNL     1       2.577   8.393  17.983  0.00  0.00    +0.000 A 
ATOM      5  C   UNL     1       1.721   9.497  17.831  0.00  0.00    +0.000 A 
ATOM      6  C   UNL     1       0.816   9.810  18.858  0.00  0.00    +0.000 A 
ATOM      7  C   UNL     1       0.766   9.029  20.015  0.00  0.00    +0.000 A 
ATOM      8  C   UNL     1       1.605   7.918  20.176  0.00  0.00    +0.000 A 
ATOM      9  C   UNL     1       2.507   7.630  19.140  0.00  0.00    +0.000 A 
ENDROOT
BRANCH   2  10
ATOM     10  C   UNL     1       5.052   5.970  17.084  0.00  0.00    +0.000 A 
ATOM     11  C   UNL     1       6.313   5.840  17.692  0.00  0.00    +0.000 A 
ATOM     12  C   UNL     1       7.294   5.008  17.146  0.00  0.00    +0.000 A 
ATOM     13  C   UNL     1       7.024   4.286  15.987  0.00  0.00    +0.000 A 
ATOM     14  C   UNL     1       5.776   4.395  15.377  0.00  0.00    +0.000 A 
ATOM     15  C   UNL     1       4.797   5.232  15.922  0.00  0.00    +0.000 A 
ENDBRANCH   2  10
BRANCH   7  16
ATOM     16  N   UNL     1      -0.165   9.360  21.103  0.00  0.00    +0.000 N 
ATOM     17  O   UNL     1      -0.458  10.553  21.265  0.00  0.00    +0.000 OA
ATOM     18  O   UNL     1      -0.595   8.429  21.797  0.00  0.00    +0.000 OA
ENDBRANCH   7  16
BRANCH   1  19
ATOM     19  O   UNL     1       3.689   5.547  19.789  0.00  0.00    +0.000 OA
BRANCH  19  20
ATOM     20  C   UNL     1       3.045   4.382  19.289  0.00  0.00    +0.000 C 
BRANCH  20  21
ATOM     21  C   UNL     1       3.811   3.123  19.632  0.00  0.00    +0.000 C 
ATOM     22  O   UNL     1       5.023   3.015  19.627  0.00  0.00    +0.000 OA
BRANCH  21  23
ATOM     23  O   UNL     1       2.917   2.112  19.846  0.00  0.00    +0.000 OA
BRANCH  23  25
ATOM     24  C   UNL     1       1.534   2.528  21.736  0.00  0.00    +0.000 C 
ATOM     25  C   UNL     1       1.608   2.564  20.221  0.00  0.00    +0.000 C 
ENDBRANCH  23  25
ENDBRANCH  21  23
ENDBRANCH  20  21
ENDBRANCH  19  20
ENDBRANCH   1  19
TORSDOF 7
ENDMDL
