MODEL 1
REMARK VINA RESULT:      -7.7      0.000      0.000
REMARK  Name = 
REMARK  6 active torsions:
REMARK  status: ('A' for Active; 'I' for Inactive)
REMARK    1  A    between atoms: C_1  and  O_2
REMARK    2  A    between atoms: O_2  and  C_3
REMARK    3  A    between atoms: C_6  and  C_7
REMARK    4  A    between atoms: C_7  and  N_8
REMARK    5  A    between atoms: C_12  and  C_13
REMARK    6  A    between atoms: C_16  and  N_17
REMARK                            x       y       z     vdW  Elec       q    Type
REMARK                         _______ _______ _______ _____ _____    ______ ____
ROOT
ATOM      1  N   UNL     1       1.424   8.314  20.324  0.00  0.00    +0.000 N 
ATOM      2  C   UNL     1       1.991   7.158  19.923  0.00  0.00    +0.000 A 
ATOM      3  N   UNL     1       2.087   5.999  20.521  0.00  0.00    +0.000 NA
ATOM      4  C   UNL     1       2.841   5.216  19.677  0.00  0.00    +0.000 A 
ATOM      5  C   UNL     1       3.257   5.928  18.564  0.00  0.00    +0.000 A 
ATOM      6  N   UNL     1       2.640   7.143  18.722  0.00  0.00    +0.000 N 
ATOM      7  H   UNL     1       0.530   8.507  19.874  0.00  0.00    +0.000 HD
ATOM      8  H   UNL     1       2.707   7.941  18.112  0.00  0.00    +0.000 HD
ENDROOT
BRANCH   5   9
ATOM      9  C   UNL     1       4.138   5.601  17.445  0.00  0.00    +0.000 A 
ATOM     10  C   UNL     1       4.386   4.267  17.093  0.00  0.00    +0.000 A 
ATOM     11  C   UNL     1       5.244   3.954  16.031  0.00  0.00    +0.000 A 
ATOM     12  C   UNL     1       5.866   4.985  15.317  0.00  0.00    +0.000 A 
ATOM     13  C   UNL     1       5.631   6.322  15.654  0.00  0.00    +0.000 A 
ATOM     14  C   UNL     1       4.771   6.621  16.716  0.00  0.00    +0.000 A 
BRANCH  12  15
ATOM     15  N   UNL     1       6.777   4.664  14.212  0.00  0.00    +0.000 N 
ATOM     16  O   UNL     1       6.438   3.768  13.426  0.00  0.00    +0.000 OA
ATOM     17  O   UNL     1       7.832   5.311  14.129  0.00  0.00    +0.000 OA
ENDBRANCH  12  15
ENDBRANCH   5   9
BRANCH   1  18
ATOM     18  C   UNL     1       1.295   8.520  21.760  0.00  0.00    +0.000 C 
BRANCH  18  22
ATOM     19  C   UNL     1      -1.093  12.071  22.483  0.00  0.00    +0.000 A 
ATOM     20  C   UNL     1      -1.288  10.919  23.246  0.00  0.00    +0.000 A 
ATOM     21  C   UNL     1      -0.518   9.772  23.020  0.00  0.00    +0.000 A 
ATOM     22  C   UNL     1       0.455   9.757  22.013  0.00  0.00    +0.000 A 
ATOM     23  C   UNL     1       0.621  10.909  21.227  0.00  0.00    +0.000 A 
ATOM     24  C   UNL     1      -0.144  12.059  21.463  0.00  0.00    +0.000 A 
BRANCH  19  26
ATOM     25  C   UNL     1      -1.329  14.148  23.594  0.00  0.00    +0.000 C 
ATOM     26  O   UNL     1      -1.910  13.124  22.795  0.00  0.00    +0.000 OA
ENDBRANCH  19  26
ENDBRANCH  18  22
ENDBRANCH   1  18
TORSDOF 5
ENDMDL
MODEL 2
REMARK VINA RESULT:      -7.6      0.598      1.150
REMARK  Name = 
REMARK  6 active torsions:
REMARK  status: ('A' for Active; 'I' for Inactive)
REMARK    1  A    between atoms: C_1  and  O_2
REMARK    2  A    between atoms: O_2  and  C_3
REMARK    3  A    between atoms: C_6  and  C_7
REMARK    4  A    between atoms: C_7  and  N_8
REMARK    5  A    between atoms: C_12  and  C_13
REMARK    6  A    between atoms: C_16  and  N_17
REMARK                            x       y       z     vdW  Elec       q    Type
REMARK                         _______ _______ _______ _____ _____    ______ ____
ROOT
ATOM      1  N   UNL     1       1.332   8.619  20.367  0.00  0.00    +0.000 N 
ATOM      2  C   UNL     1       1.850   7.433  19.986  0.00  0.00    +0.000 A 
ATOM      3  N   UNL     1       1.871   6.274  20.591  0.00  0.00    +0.000 NA
ATOM      4  C   UNL     1       2.606   5.449  19.770  0.00  0.00    +0.000 A 
ATOM      5  C   UNL     1       3.086   6.132  18.665  0.00  0.00    +0.000 A 
ATOM      6  N   UNL     1       2.528   7.378  18.802  0.00  0.00    +0.000 N 
ATOM      7  H   UNL     1       0.461   8.853  19.893  0.00  0.00    +0.000 HD
ATOM      8  H   UNL     1       2.651   8.168  18.190  0.00  0.00    +0.000 HD
ENDROOT
BRANCH   5   9
ATOM      9  C   UNL     1       3.978   5.755  17.571  0.00  0.00    +0.000 A 
ATOM     10  C   UNL     1       4.166   4.408  17.230  0.00  0.00    +0.000 A 
ATOM     11  C   UNL     1       5.034   4.047  16.193  0.00  0.00    +0.000 A 
ATOM     12  C   UNL     1       5.726   5.041  15.490  0.00  0.00    +0.000 A 
ATOM     13  C   UNL     1       5.552   6.390  15.816  0.00  0.00    +0.000 A 
ATOM     14  C   UNL     1       4.681   6.738  16.854  0.00  0.00    +0.000 A 
BRANCH  12  15
ATOM     15  N   UNL     1       6.648   4.668  14.411  0.00  0.00    +0.000 N 
ATOM     16  O   UNL     1       6.351   3.689  13.710  0.00  0.00    +0.000 OA
ATOM     17  O   UNL     1       7.669   5.355  14.262  0.00  0.00    +0.000 OA
ENDBRANCH  12  15
ENDBRANCH   5   9
BRANCH   1  18
ATOM     18  C   UNL     1       1.177   8.838  21.798  0.00  0.00    +0.000 C 
BRANCH  18  22
ATOM     19  C   UNL     1      -1.404  12.268  22.443  0.00  0.00    +0.000 A 
ATOM     20  C   UNL     1      -0.427  12.293  21.445  0.00  0.00    +0.000 A 
ATOM     21  C   UNL     1       0.405  11.188  21.230  0.00  0.00    +0.000 A 
ATOM     22  C   UNL     1       0.281  10.040  22.023  0.00  0.00    +0.000 A 
ATOM     23  C   UNL     1      -0.681  10.036  23.047  0.00  0.00    +0.000 A 
ATOM     24  C   UNL     1      -1.520  11.139  23.252  0.00  0.00    +0.000 A 
BRANCH  19  26
ATOM     25  C   UNL     1      -3.542  13.221  22.788  0.00  0.00    +0.000 C 
ATOM     26  O   UNL     1      -2.151  13.408  22.559  0.00  0.00    +0.000 OA
ENDBRANCH  19  26
ENDBRANCH  18  22
ENDBRANCH   1  18
TORSDOF 5
ENDMDL
MODEL 3
REMARK VINA RESULT:      -7.6      7.070      7.921
REMARK  Name = 
REMARK  6 active torsions:
REMARK  status: ('A' for Active; 'I' for Inactive)
REMARK    1  A    between atoms: C_1  and  O_2
REMARK    2  A    between atoms: O_2  and  C_3
REMARK    3  A    between atoms: C_6  and  C_7
REMARK    4  A    between atoms: C_7  and  N_8
REMARK    5  A    between atoms: C_12  and  C_13
REMARK    6  A    between atoms: C_16  and  N_17
REMARK                            x       y       z     vdW  Elec       q    Type
REMARK                         _______ _______ _______ _____ _____    ______ ____
ROOT
ATOM      1  N   UNL     1       7.937   9.075  17.988  0.00  0.00    +0.000 N 
ATOM      2  C   UNL     1       7.677   7.762  17.820  0.00  0.00    +0.000 A 
ATOM      3  N   UNL     1       7.898   6.739  18.604  0.00  0.00    +0.000 NA
ATOM      4  C   UNL     1       7.507   5.636  17.880  0.00  0.00    +0.000 A 
ATOM      5  C   UNL     1       7.086   5.988  16.609  0.00  0.00    +0.000 A 
ATOM      6  N   UNL     1       7.145   7.359  16.630  0.00  0.00    +0.000 N 
ATOM      7  H   UNL     1       7.109   9.628  18.205  0.00  0.00    +0.000 HD
ATOM      8  H   UNL     1       6.921   7.987  15.875  0.00  0.00    +0.000 HD
ENDROOT
BRANCH   5   9
ATOM      9  C   UNL     1       6.677   5.208  15.443  0.00  0.00    +0.000 A 
ATOM     10  C   UNL     1       7.481   5.154  14.296  0.00  0.00    +0.000 A 
ATOM     11  C   UNL     1       7.079   4.419  13.174  0.00  0.00    +0.000 A 
ATOM     12  C   UNL     1       5.859   3.734  13.195  0.00  0.00    +0.000 A 
ATOM     13  C   UNL     1       5.043   3.775  14.331  0.00  0.00    +0.000 A 
ATOM     14  C   UNL     1       5.456   4.512  15.446  0.00  0.00    +0.000 A 
BRANCH  12  15
ATOM     15  N   UNL     1       5.426   2.973  12.017  0.00  0.00    +0.000 N 
ATOM     16  O   UNL     1       6.183   2.089  11.590  0.00  0.00    +0.000 OA
ATOM     17  O   UNL     1       4.327   3.257  11.519  0.00  0.00    +0.000 OA
ENDBRANCH  12  15
ENDBRANCH   5   9
BRANCH   1  18
ATOM     18  C   UNL     1       9.006   9.421  18.914  0.00  0.00    +0.000 C 
BRANCH  18  22
ATOM     19  C   UNL     1      10.443  13.420  18.027  0.00  0.00    +0.000 A 
ATOM     20  C   UNL     1       9.165  13.022  17.633  0.00  0.00    +0.000 A 
ATOM     21  C   UNL     1       8.694  11.735  17.920  0.00  0.00    +0.000 A 
ATOM     22  C   UNL     1       9.506  10.817  18.598  0.00  0.00    +0.000 A 
ATOM     23  C   UNL     1      10.803  11.213  18.961  0.00  0.00    +0.000 A 
ATOM     24  C   UNL     1      11.267  12.506  18.682  0.00  0.00    +0.000 A 
BRANCH  19  26
ATOM     25  C   UNL     1      11.757  15.326  18.519  0.00  0.00    +0.000 C 
ATOM     26  O   UNL     1      10.790  14.698  17.685  0.00  0.00    +0.000 OA
ENDBRANCH  19  26
ENDBRANCH  18  22
ENDBRANCH   1  18
TORSDOF 5
ENDMDL
MODEL 4
REMARK VINA RESULT:      -7.6      7.138      8.039
REMARK  Name = 
REMARK  6 active torsions:
REMARK  status: ('A' for Active; 'I' for Inactive)
REMARK    1  A    between atoms: C_1  and  O_2
REMARK    2  A    between atoms: O_2  and  C_3
REMARK    3  A    between atoms: C_6  and  C_7
REMARK    4  A    between atoms: C_7  and  N_8
REMARK    5  A    between atoms: C_12  and  C_13
REMARK    6  A    between atoms: C_16  and  N_17
REMARK                            x       y       z     vdW  Elec       q    Type
REMARK                         _______ _______ _______ _____ _____    ______ ____
ROOT
ATOM      1  N   UNL     1       7.925   9.189  18.017  0.00  0.00    +0.000 N 
ATOM      2  C   UNL     1       7.706   7.869  17.845  0.00  0.00    +0.000 A 
ATOM      3  N   UNL     1       7.978   6.849  18.615  0.00  0.00    +0.000 NA
ATOM      4  C   UNL     1       7.608   5.738  17.891  0.00  0.00    +0.000 A 
ATOM      5  C   UNL     1       7.148   6.085  16.632  0.00  0.00    +0.000 A 
ATOM      6  N   UNL     1       7.162   7.457  16.663  0.00  0.00    +0.000 N 
ATOM      7  H   UNL     1       7.084   9.712  18.258  0.00  0.00    +0.000 HD
ATOM      8  H   UNL     1       6.900   8.083  15.918  0.00  0.00    +0.000 HD
ENDROOT
BRANCH   5   9
ATOM      9  C   UNL     1       6.739   5.300  15.470  0.00  0.00    +0.000 A 
ATOM     10  C   UNL     1       5.611   4.469  15.525  0.00  0.00    +0.000 A 
ATOM     11  C   UNL     1       5.231   3.705  14.416  0.00  0.00    +0.000 A 
ATOM     12  C   UNL     1       5.988   3.765  13.240  0.00  0.00    +0.000 A 
ATOM     13  C   UNL     1       7.117   4.588  13.166  0.00  0.00    +0.000 A 
ATOM     14  C   UNL     1       7.486   5.348  14.281  0.00  0.00    +0.000 A 
BRANCH  12  15
ATOM     15  N   UNL     1       5.602   2.955  12.078  0.00  0.00    +0.000 N 
ATOM     16  O   UNL     1       6.430   2.144  11.639  0.00  0.00    +0.000 OA
ATOM     17  O   UNL     1       4.469   3.130  11.604  0.00  0.00    +0.000 OA
ENDBRANCH  12  15
ENDBRANCH   5   9
BRANCH   1  18
ATOM     18  C   UNL     1       9.002   9.564  18.923  0.00  0.00    +0.000 C 
BRANCH  18  22
ATOM     19  C   UNL     1      10.777  13.275  17.539  0.00  0.00    +0.000 A 
ATOM     20  C   UNL     1      11.581  12.239  18.017  0.00  0.00    +0.000 A 
ATOM     21  C   UNL     1      11.015  11.039  18.461  0.00  0.00    +0.000 A 
ATOM     22  C   UNL     1       9.626  10.861  18.444  0.00  0.00    +0.000 A 
ATOM     23  C   UNL     1       8.821  11.920  17.994  0.00  0.00    +0.000 A 
ATOM     24  C   UNL     1       9.392  13.117  17.540  0.00  0.00    +0.000 A 
BRANCH  19  26
ATOM     25  C   UNL     1      10.718  15.618  17.212  0.00  0.00    +0.000 C 
ATOM     26  O   UNL     1      11.447  14.399  17.139  0.00  0.00    +0.000 OA
ENDBRANCH  19  26
ENDBRANCH  18  22
ENDBRANCH   1  18
TORSDOF 5
ENDMDL
MODEL 5
REMARK VINA RESULT:      -7.6      0.323      1.215
REMARK  Name = 
REMARK  6 active torsions:
REMARK  status: ('A' for Active; 'I' for Inactive)
REMARK    1  A    between atoms: C_1  and  O_2
REMARK    2  A    between atoms: O_2  and  C_3
REMARK    3  A    between atoms: C_6  and  C_7
REMARK    4  A    between atoms: C_7  and  N_8
REMARK    5  A    between atoms: C_12  and  C_13
REMARK    6  A    between atoms: C_16  and  N_17
REMARK                            x       y       z     vdW  Elec       q    Type
REMARK                         _______ _______ _______ _____ _____    ______ ____
ROOT
ATOM      1  N   UNL     1       1.324   8.570  20.391  0.00  0.00    +0.000 N 
ATOM      2  C   UNL     1       1.839   7.389  19.990  0.00  0.00    +0.000 A 
ATOM      3  N   UNL     1       1.826   6.213  20.559  0.00  0.00    +0.000 NA
ATOM      4  C   UNL     1       2.577   5.403  19.737  0.00  0.00    +0.000 A 
ATOM      5  C   UNL     1       3.100   6.113  18.670  0.00  0.00    +0.000 A 
ATOM      6  N   UNL     1       2.553   7.361  18.827  0.00  0.00    +0.000 N 
ATOM      7  H   UNL     1       0.471   8.831  19.896  0.00  0.00    +0.000 HD
ATOM      8  H   UNL     1       2.706   8.168  18.244  0.00  0.00    +0.000 HD
ENDROOT
BRANCH   5   9
ATOM      9  C   UNL     1       4.022   5.757  17.594  0.00  0.00    +0.000 A 
ATOM     10  C   UNL     1       4.782   6.739  16.944  0.00  0.00    +0.000 A 
ATOM     11  C   UNL     1       5.653   6.399  15.902  0.00  0.00    +0.000 A 
ATOM     12  C   UNL     1       5.763   5.062  15.500  0.00  0.00    +0.000 A 
ATOM     13  C   UNL     1       5.013   4.068  16.136  0.00  0.00    +0.000 A 
ATOM     14  C   UNL     1       4.147   4.420  17.177  0.00  0.00    +0.000 A 
BRANCH  12  15
ATOM     15  N   UNL     1       6.664   4.700  14.399  0.00  0.00    +0.000 N 
ATOM     16  O   UNL     1       7.693   5.374  14.250  0.00  0.00    +0.000 OA
ATOM     17  O   UNL     1       6.342   3.740  13.683  0.00  0.00    +0.000 OA
ENDBRANCH  12  15
ENDBRANCH   5   9
BRANCH   1  18
ATOM     18  C   UNL     1       1.125   8.749  21.822  0.00  0.00    +0.000 C 
BRANCH  18  22
ATOM     19  C   UNL     1      -1.202  12.349  22.501  0.00  0.00    +0.000 A 
ATOM     20  C   UNL     1      -1.459  11.189  23.234  0.00  0.00    +0.000 A 
ATOM     21  C   UNL     1      -0.709  10.027  23.023  0.00  0.00    +0.000 A 
ATOM     22  C   UNL     1       0.307  10.003  22.059  0.00  0.00    +0.000 A 
ATOM     23  C   UNL     1       0.537  11.162  21.301  0.00  0.00    +0.000 A 
ATOM     24  C   UNL     1      -0.209  12.328  21.523  0.00  0.00    +0.000 A 
BRANCH  19  26
ATOM     25  C   UNL     1      -1.346  14.669  22.943  0.00  0.00    +0.000 C 
ATOM     26  O   UNL     1      -2.005  13.417  22.795  0.00  0.00    +0.000 OA
ENDBRANCH  19  26
ENDBRANCH  18  22
ENDBRANCH   1  18
TORSDOF 5
ENDMDL
MODEL 6
REMARK VINA RESULT:      -7.6      6.505      9.319
REMARK  Name = 
REMARK  6 active torsions:
REMARK  status: ('A' for Active; 'I' for Inactive)
REMARK    1  A    between atoms: C_1  and  O_2
REMARK    2  A    between atoms: O_2  and  C_3
REMARK    3  A    between atoms: C_6  and  C_7
REMARK    4  A    between atoms: C_7  and  N_8
REMARK    5  A    between atoms: C_12  and  C_13
REMARK    6  A    between atoms: C_16  and  N_17
REMARK                            x       y       z     vdW  Elec       q    Type
REMARK                         _______ _______ _______ _____ _____    ______ ____
ROOT
ATOM      1  N   UNL     1       7.943   5.796  18.810  0.00  0.00    +0.000 N 
ATOM      2  C   UNL     1       7.829   7.079  18.409  0.00  0.00    +0.000 A 
ATOM      3  N   UNL     1       7.125   7.616  17.448  0.00  0.00    +0.000 NA
ATOM      4  C   UNL     1       7.466   8.949  17.448  0.00  0.00    +0.000 A 
ATOM      5  C   UNL     1       8.436   9.223  18.398  0.00  0.00    +0.000 A 
ATOM      6  N   UNL     1       8.595   8.019  19.036  0.00  0.00    +0.000 N 
ATOM      7  H   UNL     1       7.434   5.592  19.669  0.00  0.00    +0.000 HD
ATOM      8  H   UNL     1       9.229   7.812  19.791  0.00  0.00    +0.000 HD
ENDROOT
BRANCH   5   9
ATOM      9  C   UNL     1       9.194  10.427  18.728  0.00  0.00    +0.000 A 
ATOM     10  C   UNL     1       9.486  11.384  17.746  0.00  0.00    +0.000 A 
ATOM     11  C   UNL     1      10.227  12.529  18.061  0.00  0.00    +0.000 A 
ATOM     12  C   UNL     1      10.687  12.720  19.369  0.00  0.00    +0.000 A 
ATOM     13  C   UNL     1      10.406  11.776  20.362  0.00  0.00    +0.000 A 
ATOM     14  C   UNL     1       9.664  10.636  20.036  0.00  0.00    +0.000 A 
BRANCH  12  15
ATOM     15  N   UNL     1      11.476  13.912  19.702  0.00  0.00    +0.000 N 
ATOM     16  O   UNL     1      12.330  14.286  18.886  0.00  0.00    +0.000 OA
ATOM     17  O   UNL     1      11.240  14.476  20.781  0.00  0.00    +0.000 OA
ENDBRANCH  12  15
ENDBRANCH   5   9
BRANCH   1  18
ATOM     18  C   UNL     1       7.649   4.769  17.820  0.00  0.00    +0.000 C 
BRANCH  18  22
ATOM     19  C   UNL     1       3.394   3.911  17.877  0.00  0.00    +0.000 A 
ATOM     20  C   UNL     1       4.084   3.999  16.667  0.00  0.00    +0.000 A 
ATOM     21  C   UNL     1       5.457   4.271  16.642  0.00  0.00    +0.000 A 
ATOM     22  C   UNL     1       6.162   4.474  17.835  0.00  0.00    +0.000 A 
ATOM     23  C   UNL     1       5.454   4.418  19.047  0.00  0.00    +0.000 A 
ATOM     24  C   UNL     1       4.082   4.134  19.069  0.00  0.00    +0.000 A 
BRANCH  19  26
ATOM     25  C   UNL     1       1.561   2.598  18.596  0.00  0.00    +0.000 C 
ATOM     26  O   UNL     1       2.056   3.646  17.770  0.00  0.00    +0.000 OA
ENDBRANCH  19  26
ENDBRANCH  18  22
ENDBRANCH   1  18
TORSDOF 5
ENDMDL
MODEL 7
REMARK VINA RESULT:      -7.5      5.576      7.583
REMARK  Name = 
REMARK  6 active torsions:
REMARK  status: ('A' for Active; 'I' for Inactive)
REMARK    1  A    between atoms: C_1  and  O_2
REMARK    2  A    between atoms: O_2  and  C_3
REMARK    3  A    between atoms: C_6  and  C_7
REMARK    4  A    between atoms: C_7  and  N_8
REMARK    5  A    between atoms: C_12  and  C_13
REMARK    6  A    between atoms: C_16  and  N_17
REMARK                            x       y       z     vdW  Elec       q    Type
REMARK                         _______ _______ _______ _____ _____    ______ ____
ROOT
ATOM      1  N   UNL     1       5.842   6.558  16.257  0.00  0.00    +0.000 N 
ATOM      2  C   UNL     1       6.821   6.951  17.098  0.00  0.00    +0.000 A 
ATOM      3  N   UNL     1       7.466   6.294  18.026  0.00  0.00    +0.000 NA
ATOM      4  C   UNL     1       8.291   7.222  18.620  0.00  0.00    +0.000 A 
ATOM      5  C   UNL     1       8.110   8.482  18.076  0.00  0.00    +0.000 A 
ATOM      6  N   UNL     1       7.212   8.258  17.063  0.00  0.00    +0.000 N 
ATOM      7  H   UNL     1       6.163   6.404  15.302  0.00  0.00    +0.000 HD
ATOM      8  H   UNL     1       6.823   8.943  16.435  0.00  0.00    +0.000 HD
ENDROOT
BRANCH   5   9
ATOM      9  C   UNL     1       8.651   9.798  18.410  0.00  0.00    +0.000 A 
ATOM     10  C   UNL     1       9.412   9.988  19.571  0.00  0.00    +0.000 A 
ATOM     11  C   UNL     1       9.915  11.252  19.898  0.00  0.00    +0.000 A 
ATOM     12  C   UNL     1       9.652  12.341  19.059  0.00  0.00    +0.000 A 
ATOM     13  C   UNL     1       8.894  12.171  17.896  0.00  0.00    +0.000 A 
ATOM     14  C   UNL     1       8.398  10.903  17.579  0.00  0.00    +0.000 A 
BRANCH  12  15
ATOM     15  N   UNL     1      10.166  13.673  19.403  0.00  0.00    +0.000 N 
ATOM     16  O   UNL     1      10.832  13.784  20.442  0.00  0.00    +0.000 OA
ATOM     17  O   UNL     1       9.905  14.608  18.632  0.00  0.00    +0.000 OA
ENDBRANCH  12  15
ENDBRANCH   5   9
BRANCH   1  18
ATOM     18  C   UNL     1       5.026   5.428  16.680  0.00  0.00    +0.000 C 
BRANCH  18  22
ATOM     19  C   UNL     1       2.295   6.747  19.785  0.00  0.00    +0.000 A 
ATOM     20  C   UNL     1       3.002   5.552  19.923  0.00  0.00    +0.000 A 
ATOM     21  C   UNL     1       3.887   5.123  18.927  0.00  0.00    +0.000 A 
ATOM     22  C   UNL     1       4.069   5.883  17.764  0.00  0.00    +0.000 A 
ATOM     23  C   UNL     1       3.328   7.067  17.617  0.00  0.00    +0.000 A 
ATOM     24  C   UNL     1       2.451   7.498  18.621  0.00  0.00    +0.000 A 
BRANCH  19  26
ATOM     25  C   UNL     1       1.308   8.439  21.112  0.00  0.00    +0.000 C 
ATOM     26  O   UNL     1       1.457   7.055  20.822  0.00  0.00    +0.000 OA
ENDBRANCH  19  26
ENDBRANCH  18  22
ENDBRANCH   1  18
TORSDOF 5
ENDMDL
MODEL 8
REMARK VINA RESULT:      -7.4      7.030      7.533
REMARK  Name = 
REMARK  6 active torsions:
REMARK  status: ('A' for Active; 'I' for Inactive)
REMARK    1  A    between atoms: C_1  and  O_2
REMARK    2  A    between atoms: O_2  and  C_3
REMARK    3  A    between atoms: C_6  and  C_7
REMARK    4  A    between atoms: C_7  and  N_8
REMARK    5  A    between atoms: C_12  and  C_13
REMARK    6  A    between atoms: C_16  and  N_17
REMARK                            x       y       z     vdW  Elec       q    Type
REMARK                         _______ _______ _______ _____ _____    ______ ____
ROOT
ATOM      1  N   UNL     1       8.046   8.974  18.093  0.00  0.00    +0.000 N 
ATOM      2  C   UNL     1       7.743   7.672  17.907  0.00  0.00    +0.000 A 
ATOM      3  N   UNL     1       7.909   6.636  18.687  0.00  0.00    +0.000 NA
ATOM      4  C   UNL     1       7.495   5.553  17.945  0.00  0.00    +0.000 A 
ATOM      5  C   UNL     1       7.116   5.931  16.668  0.00  0.00    +0.000 A 
ATOM      6  N   UNL     1       7.224   7.298  16.702  0.00  0.00    +0.000 N 
ATOM      7  H   UNL     1       7.234   9.555  18.297  0.00  0.00    +0.000 HD
ATOM      8  H   UNL     1       7.040   7.940  15.948  0.00  0.00    +0.000 HD
ENDROOT
BRANCH   5   9
ATOM      9  C   UNL     1       6.705   5.175  15.487  0.00  0.00    +0.000 A 
ATOM     10  C   UNL     1       7.484   5.184  14.321  0.00  0.00    +0.000 A 
ATOM     11  C   UNL     1       7.081   4.473  13.185  0.00  0.00    +0.000 A 
ATOM     12  C   UNL     1       5.883   3.748  13.210  0.00  0.00    +0.000 A 
ATOM     13  C   UNL     1       5.092   3.727  14.363  0.00  0.00    +0.000 A 
ATOM     14  C   UNL     1       5.507   4.441  15.493  0.00  0.00    +0.000 A 
BRANCH  12  15
ATOM     15  N   UNL     1       5.448   3.012  12.017  0.00  0.00    +0.000 N 
ATOM     16  O   UNL     1       4.325   3.267  11.559  0.00  0.00    +0.000 OA
ATOM     17  O   UNL     1       6.230   2.177  11.538  0.00  0.00    +0.000 OA
ENDBRANCH  12  15
ENDBRANCH   5   9
BRANCH   1  18
ATOM     18  C   UNL     1       9.106   9.273  19.045  0.00  0.00    +0.000 C 
BRANCH  18  22
ATOM     19  C   UNL     1       9.859  13.548  19.036  0.00  0.00    +0.000 A 
ATOM     20  C   UNL     1      10.160  12.777  20.160  0.00  0.00    +0.000 A 
ATOM     21  C   UNL     1       9.923  11.398  20.167  0.00  0.00    +0.000 A 
ATOM     22  C   UNL     1       9.366  10.767  19.048  0.00  0.00    +0.000 A 
ATOM     23  C   UNL     1       9.034  11.554  17.933  0.00  0.00    +0.000 A 
ATOM     24  C   UNL     1       9.282  12.934  17.925  0.00  0.00    +0.000 A 
BRANCH  19  26
ATOM     25  C   UNL     1      11.144  15.234  20.086  0.00  0.00    +0.000 C 
ATOM     26  O   UNL     1      10.130  14.884  19.152  0.00  0.00    +0.000 OA
ENDBRANCH  19  26
ENDBRANCH  18  22
ENDBRANCH   1  18
TORSDOF 5
ENDMDL
MODEL 9
REMARK VINA RESULT:      -7.4      4.418      9.296
REMARK  Name = 
REMARK  6 active torsions:
REMARK  status: ('A' for Active; 'I' for Inactive)
REMARK    1  A    between atoms: C_1  and  O_2
REMARK    2  A    between atoms: O_2  and  C_3
REMARK    3  A    between atoms: C_6  and  C_7
REMARK    4  A    between atoms: C_7  and  N_8
REMARK    5  A    between atoms: C_12  and  C_13
REMARK    6  A    between atoms: C_16  and  N_17
REMARK                            x       y       z     vdW  Elec       q    Type
REMARK                         _______ _______ _______ _____ _____    ______ ____
ROOT
ATOM      1  N   UNL     1       2.308   8.407  17.323  0.00  0.00    +0.000 N 
ATOM      2  C   UNL     1       1.499   9.250  17.996  0.00  0.00    +0.000 A 
ATOM      3  N   UNL     1       1.660   9.858  19.142  0.00  0.00    +0.000 NA
ATOM      4  C   UNL     1       0.475  10.522  19.370  0.00  0.00    +0.000 A 
ATOM      5  C   UNL     1      -0.445  10.273  18.366  0.00  0.00    +0.000 A 
ATOM      6  N   UNL     1       0.266   9.512  17.474  0.00  0.00    +0.000 N 
ATOM      7  H   UNL     1       2.772   8.838  16.525  0.00  0.00    +0.000 HD
ATOM      8  H   UNL     1      -0.069   9.123  16.607  0.00  0.00    +0.000 HD
ENDROOT
BRANCH   5   9
ATOM      9  C   UNL     1      -1.847  10.644  18.187  0.00  0.00    +0.000 A 
ATOM     10  C   UNL     1      -2.614  10.077  17.160  0.00  0.00    +0.000 A 
ATOM     11  C   UNL     1      -3.952  10.445  16.979  0.00  0.00    +0.000 A 
ATOM     12  C   UNL     1      -4.530  11.396  17.829  0.00  0.00    +0.000 A 
ATOM     13  C   UNL     1      -3.780  11.974  18.859  0.00  0.00    +0.000 A 
ATOM     14  C   UNL     1      -2.445  11.596  19.030  0.00  0.00    +0.000 A 
BRANCH  12  15
ATOM     15  N   UNL     1      -5.929  11.797  17.636  0.00  0.00    +0.000 N 
ATOM     16  O   UNL     1      -6.148  12.849  17.018  0.00  0.00    +0.000 OA
ATOM     17  O   UNL     1      -6.810  11.059  18.101  0.00  0.00    +0.000 OA
ENDBRANCH  12  15
ENDBRANCH   5   9
BRANCH   1  18
ATOM     18  C   UNL     1       3.287   7.667  18.109  0.00  0.00    +0.000 C 
BRANCH  18  22
ATOM     19  C   UNL     1       1.394   4.118  19.739  0.00  0.00    +0.000 A 
ATOM     20  C   UNL     1       1.781   5.164  20.578  0.00  0.00    +0.000 A 
ATOM     21  C   UNL     1       2.388   6.313  20.058  0.00  0.00    +0.000 A 
ATOM     22  C   UNL     1       2.630   6.427  18.683  0.00  0.00    +0.000 A 
ATOM     23  C   UNL     1       2.270   5.356  17.850  0.00  0.00    +0.000 A 
ATOM     24  C   UNL     1       1.652   4.211  18.373  0.00  0.00    +0.000 A 
BRANCH  19  26
ATOM     25  C   UNL     1       1.389   2.674  21.614  0.00  0.00    +0.000 C 
ATOM     26  O   UNL     1       0.817   3.048  20.367  0.00  0.00    +0.000 OA
ENDBRANCH  19  26
ENDBRANCH  18  22
ENDBRANCH   1  18
TORSDOF 5
ENDMDL
