MODEL 1
REMARK VINA RESULT:      -6.6      0.000      0.000
REMARK  Name = 
REMARK  4 active torsions:
REMARK  status: ('A' for Active; 'I' for Inactive)
REMARK    1  A    between atoms: C_1  and  C_2
REMARK    2  A    between atoms: C_2  and  C_3
REMARK    3  A    between atoms: C_2  and  N_4
REMARK    4  A    between atoms: C_8  and  C_9
REMARK                            x       y       z     vdW  Elec       q    Type
REMARK                         _______ _______ _______ _____ _____    ______ ____
ROOT
ATOM      1  N   UNL     1       3.148   2.639  19.318  0.00  0.00    +0.000 NA
ATOM      2  C   UNL     1       3.436   2.404  17.882  0.00  0.00    +0.000 C 
ATOM      3  C   UNL     1       3.661   3.668  17.017  0.00  0.00    +0.000 C 
ATOM      4  C   UNL     1       4.615   4.648  17.674  0.00  0.00    +0.000 C 
ATOM      5  C   UNL     1       5.647   5.215  17.010  0.00  0.00    +0.000 C 
ATOM      6  C   UNL     1       4.290   4.871  19.133  0.00  0.00    +0.000 C 
ATOM      7  C   UNL     1       4.220   3.517  19.849  0.00  0.00    +0.000 C 
ENDROOT
BRANCH   5   8
ATOM      8  C   UNL     1       6.625   6.096  17.550  0.00  0.00    +0.000 A 
ATOM      9  C   UNL     1       7.460   5.849  18.614  0.00  0.00    +0.000 A 
ATOM     10  N   UNL     1       8.229   6.978  18.723  0.00  0.00    +0.000 N 
ATOM     11  C   UNL     1       7.815   7.855  17.760  0.00  0.00    +0.000 A 
ATOM     12  N   UNL     1       6.827   7.358  17.056  0.00  0.00    +0.000 NA
ATOM     13  H   UNL     1       8.977   7.137  19.382  0.00  0.00    +0.000 HD
ENDBRANCH   5   8
BRANCH   1  15
ATOM     14  C   UNL     1       0.710   2.383  18.801  0.00  0.00    +0.000 C 
ATOM     15  C   UNL     1       1.781   3.148  19.594  0.00  0.00    +0.000 C 
ATOM     16  C   UNL     1       1.413   3.024  21.086  0.00  0.00    +0.000 C 
ENDBRANCH   1  15
TORSDOF 2
ENDMDL
MODEL 2
REMARK VINA RESULT:      -6.3      2.009      3.085
REMARK  Name = 
REMARK  4 active torsions:
REMARK  status: ('A' for Active; 'I' for Inactive)
REMARK    1  A    between atoms: C_1  and  C_2
REMARK    2  A    between atoms: C_2  and  C_3
REMARK    3  A    between atoms: C_2  and  N_4
REMARK    4  A    between atoms: C_8  and  C_9
REMARK                            x       y       z     vdW  Elec       q    Type
REMARK                         _______ _______ _______ _____ _____    ______ ____
ROOT
ATOM      1  N   UNL     1       2.334   4.445  19.066  0.00  0.00    +0.000 NA
ATOM      2  C   UNL     1       3.483   5.120  19.716  0.00  0.00    +0.000 C 
ATOM      3  C   UNL     1       4.881   4.526  19.416  0.00  0.00    +0.000 C 
ATOM      4  C   UNL     1       5.088   4.271  17.936  0.00  0.00    +0.000 C 
ATOM      5  C   UNL     1       6.203   4.661  17.278  0.00  0.00    +0.000 C 
ATOM      6  C   UNL     1       3.904   3.575  17.305  0.00  0.00    +0.000 C 
ATOM      7  C   UNL     1       2.628   4.368  17.613  0.00  0.00    +0.000 C 
ENDROOT
BRANCH   5   8
ATOM      8  C   UNL     1       6.464   4.519  15.887  0.00  0.00    +0.000 A 
ATOM      9  C   UNL     1       5.958   3.555  15.047  0.00  0.00    +0.000 A 
ATOM     10  N   UNL     1       6.473   3.862  13.815  0.00  0.00    +0.000 N 
ATOM     11  C   UNL     1       7.278   4.956  13.964  0.00  0.00    +0.000 A 
ATOM     12  N   UNL     1       7.313   5.356  15.212  0.00  0.00    +0.000 NA
ATOM     13  H   UNL     1       6.288   3.381  12.947  0.00  0.00    +0.000 HD
ENDBRANCH   5   8
BRANCH   1  15
ATOM     14  C   UNL     1       1.569   3.266  21.139  0.00  0.00    +0.000 C 
ATOM     15  C   UNL     1       1.974   3.135  19.662  0.00  0.00    +0.000 C 
ATOM     16  C   UNL     1       0.791   2.475  18.927  0.00  0.00    +0.000 C 
ENDBRANCH   1  15
TORSDOF 2
ENDMDL
MODEL 3
REMARK VINA RESULT:      -6.3      2.139      2.750
REMARK  Name = 
REMARK  4 active torsions:
REMARK  status: ('A' for Active; 'I' for Inactive)
REMARK    1  A    between atoms: C_1  and  C_2
REMARK    2  A    between atoms: C_2  and  C_3
REMARK    3  A    between atoms: C_2  and  N_4
REMARK    4  A    between atoms: C_8  and  C_9
REMARK                            x       y       z     vdW  Elec       q    Type
REMARK                         _______ _______ _______ _____ _____    ______ ____
ROOT
ATOM      1  N   UNL     1       3.354   4.101  19.915  0.00  0.00    +0.000 NA
ATOM      2  C   UNL     1       3.505   2.708  19.430  0.00  0.00    +0.000 C 
ATOM      3  C   UNL     1       3.450   2.512  17.895  0.00  0.00    +0.000 C 
ATOM      4  C   UNL     1       4.325   3.508  17.159  0.00  0.00    +0.000 C 
ATOM      5  C   UNL     1       5.184   3.140  16.182  0.00  0.00    +0.000 C 
ATOM      6  C   UNL     1       4.141   4.918  17.671  0.00  0.00    +0.000 C 
ATOM      7  C   UNL     1       4.345   4.934  19.191  0.00  0.00    +0.000 C 
ENDROOT
BRANCH   5   8
ATOM      8  C   UNL     1       6.083   3.987  15.476  0.00  0.00    +0.000 A 
ATOM      9  C   UNL     1       7.060   4.788  16.019  0.00  0.00    +0.000 A 
ATOM     10  N   UNL     1       7.670   5.372  14.940  0.00  0.00    +0.000 N 
ATOM     11  C   UNL     1       7.031   4.934  13.815  0.00  0.00    +0.000 A 
ATOM     12  N   UNL     1       6.050   4.117  14.112  0.00  0.00    +0.000 NA
ATOM     13  H   UNL     1       8.458   6.003  14.962  0.00  0.00    +0.000 HD
ENDBRANCH   5   8
BRANCH   1  15
ATOM     14  C   UNL     1       0.948   3.677  20.471  0.00  0.00    +0.000 C 
ATOM     15  C   UNL     1       1.970   4.631  19.834  0.00  0.00    +0.000 C 
ATOM     16  C   UNL     1       1.832   5.987  20.556  0.00  0.00    +0.000 C 
ENDBRANCH   1  15
TORSDOF 2
ENDMDL
MODEL 4
REMARK VINA RESULT:      -6.1      2.387      3.316
REMARK  Name = 
REMARK  4 active torsions:
REMARK  status: ('A' for Active; 'I' for Inactive)
REMARK    1  A    between atoms: C_1  and  C_2
REMARK    2  A    between atoms: C_2  and  C_3
REMARK    3  A    between atoms: C_2  and  N_4
REMARK    4  A    between atoms: C_8  and  C_9
REMARK                            x       y       z     vdW  Elec       q    Type
REMARK                         _______ _______ _______ _____ _____    ______ ____
ROOT
ATOM      1  N   UNL     1       2.087   4.429  18.455  0.00  0.00    +0.000 NA
ATOM      2  C   UNL     1       2.276   5.882  18.224  0.00  0.00    +0.000 C 
ATOM      3  C   UNL     1       3.737   6.356  18.030  0.00  0.00    +0.000 C 
ATOM      4  C   UNL     1       4.496   5.483  17.049  0.00  0.00    +0.000 C 
ATOM      5  C   UNL     1       5.240   5.994  16.043  0.00  0.00    +0.000 C 
ATOM      6  C   UNL     1       4.290   4.010  17.318  0.00  0.00    +0.000 C 
ATOM      7  C   UNL     1       2.786   3.710  17.362  0.00  0.00    +0.000 C 
ENDROOT
BRANCH   5   8
ATOM      8  C   UNL     1       5.938   5.262  15.043  0.00  0.00    +0.000 A 
ATOM      9  C   UNL     1       5.460   4.199  14.314  0.00  0.00    +0.000 A 
ATOM     10  N   UNL     1       6.486   3.866  13.469  0.00  0.00    +0.000 N 
ATOM     11  C   UNL     1       7.532   4.703  13.739  0.00  0.00    +0.000 A 
ATOM     12  N   UNL     1       7.237   5.538  14.705  0.00  0.00    +0.000 NA
ATOM     13  H   UNL     1       6.477   3.143  12.764  0.00  0.00    +0.000 HD
ENDBRANCH   5   8
BRANCH   1  15
ATOM     14  C   UNL     1       1.872   4.840  20.917  0.00  0.00    +0.000 C 
ATOM     15  C   UNL     1       2.483   3.968  19.809  0.00  0.00    +0.000 C 
ATOM     16  C   UNL     1       2.032   2.518  20.076  0.00  0.00    +0.000 C 
ENDBRANCH   1  15
TORSDOF 2
ENDMDL
MODEL 5
REMARK VINA RESULT:      -6.1      1.931      2.587
REMARK  Name = 
REMARK  4 active torsions:
REMARK  status: ('A' for Active; 'I' for Inactive)
REMARK    1  A    between atoms: C_1  and  C_2
REMARK    2  A    between atoms: C_2  and  C_3
REMARK    3  A    between atoms: C_2  and  N_4
REMARK    4  A    between atoms: C_8  and  C_9
REMARK                            x       y       z     vdW  Elec       q    Type
REMARK                         _______ _______ _______ _____ _____    ______ ____
ROOT
ATOM      1  N   UNL     1       2.321   3.061  19.188  0.00  0.00    +0.000 NA
ATOM      2  C   UNL     1       1.710   4.309  18.669  0.00  0.00    +0.000 C 
ATOM      3  C   UNL     1       2.669   5.509  18.478  0.00  0.00    +0.000 C 
ATOM      4  C   UNL     1       3.943   5.113  17.756  0.00  0.00    +0.000 C 
ATOM      5  C   UNL     1       4.440   5.820  16.716  0.00  0.00    +0.000 C 
ATOM      6  C   UNL     1       4.545   3.844  18.314  0.00  0.00    +0.000 C 
ATOM      7  C   UNL     1       3.481   2.740  18.320  0.00  0.00    +0.000 C 
ENDROOT
BRANCH   5   8
ATOM      8  C   UNL     1       5.590   5.500  15.942  0.00  0.00    +0.000 A 
ATOM      9  C   UNL     1       6.901   5.763  16.264  0.00  0.00    +0.000 A 
ATOM     10  N   UNL     1       7.627   5.238  15.228  0.00  0.00    +0.000 N 
ATOM     11  C   UNL     1       6.743   4.717  14.326  0.00  0.00    +0.000 A 
ATOM     12  N   UNL     1       5.504   4.887  14.720  0.00  0.00    +0.000 NA
ATOM     13  H   UNL     1       8.632   5.222  15.144  0.00  0.00    +0.000 HD
ENDBRANCH   5   8
BRANCH   1  15
ATOM     14  C   UNL     1       1.441   2.816  21.521  0.00  0.00    +0.000 C 
ATOM     15  C   UNL     1       2.662   3.101  20.632  0.00  0.00    +0.000 C 
ATOM     16  C   UNL     1       3.738   2.058  20.997  0.00  0.00    +0.000 C 
ENDBRANCH   1  15
TORSDOF 2
ENDMDL
MODEL 6
REMARK VINA RESULT:      -6.0      3.124      4.368
REMARK  Name = 
REMARK  4 active torsions:
REMARK  status: ('A' for Active; 'I' for Inactive)
REMARK    1  A    between atoms: C_1  and  C_2
REMARK    2  A    between atoms: C_2  and  C_3
REMARK    3  A    between atoms: C_2  and  N_4
REMARK    4  A    between atoms: C_8  and  C_9
REMARK                            x       y       z     vdW  Elec       q    Type
REMARK                         _______ _______ _______ _____ _____    ______ ____
ROOT
ATOM      1  N   UNL     1       4.541   6.335  18.355  0.00  0.00    +0.000 NA
ATOM      2  C   UNL     1       4.898   4.915  18.588  0.00  0.00    +0.000 C 
ATOM      3  C   UNL     1       4.701   3.957  17.387  0.00  0.00    +0.000 C 
ATOM      4  C   UNL     1       5.276   4.524  16.103  0.00  0.00    +0.000 C 
ATOM      5  C   UNL     1       6.068   3.803  15.279  0.00  0.00    +0.000 C 
ATOM      6  C   UNL     1       4.886   5.970  15.892  0.00  0.00    +0.000 C 
ATOM      7  C   UNL     1       5.261   6.781  17.138  0.00  0.00    +0.000 C 
ENDROOT
BRANCH   5   8
ATOM      8  C   UNL     1       6.698   4.260  14.088  0.00  0.00    +0.000 A 
ATOM      9  C   UNL     1       6.491   3.791  12.812  0.00  0.00    +0.000 A 
ATOM     10  N   UNL     1       7.297   4.566  12.020  0.00  0.00    +0.000 N 
ATOM     11  C   UNL     1       7.968   5.433  12.836  0.00  0.00    +0.000 A 
ATOM     12  N   UNL     1       7.645   5.250  14.094  0.00  0.00    +0.000 NA
ATOM     13  H   UNL     1       7.378   4.521  11.015  0.00  0.00    +0.000 HD
ENDBRANCH   5   8
BRANCH   1  15
ATOM     14  C   UNL     1       2.381   6.227  19.621  0.00  0.00    +0.000 C 
ATOM     15  C   UNL     1       3.081   6.599  18.304  0.00  0.00    +0.000 C 
ATOM     16  C   UNL     1       2.776   8.087  18.035  0.00  0.00    +0.000 C 
ENDBRANCH   1  15
TORSDOF 2
ENDMDL
MODEL 7
REMARK VINA RESULT:      -6.0      2.616      3.432
REMARK  Name = 
REMARK  4 active torsions:
REMARK  status: ('A' for Active; 'I' for Inactive)
REMARK    1  A    between atoms: C_1  and  C_2
REMARK    2  A    between atoms: C_2  and  C_3
REMARK    3  A    between atoms: C_2  and  N_4
REMARK    4  A    between atoms: C_8  and  C_9
REMARK                            x       y       z     vdW  Elec       q    Type
REMARK                         _______ _______ _______ _____ _____    ______ ____
ROOT
ATOM      1  N   UNL     1       3.910   5.242  19.488  0.00  0.00    +0.000 NA
ATOM      2  C   UNL     1       4.147   3.782  19.377  0.00  0.00    +0.000 C 
ATOM      3  C   UNL     1       3.989   3.172  17.962  0.00  0.00    +0.000 C 
ATOM      4  C   UNL     1       4.712   3.985  16.905  0.00  0.00    +0.000 C 
ATOM      5  C   UNL     1       5.521   3.421  15.980  0.00  0.00    +0.000 C 
ATOM      6  C   UNL     1       4.443   5.466  17.041  0.00  0.00    +0.000 C 
ATOM      7  C   UNL     1       4.763   5.909  18.474  0.00  0.00    +0.000 C 
ENDROOT
BRANCH   5   8
ATOM      8  C   UNL     1       6.283   4.101  14.989  0.00  0.00    +0.000 A 
ATOM      9  C   UNL     1       7.153   5.146  15.191  0.00  0.00    +0.000 A 
ATOM     10  N   UNL     1       7.658   5.424  13.948  0.00  0.00    +0.000 N 
ATOM     11  C   UNL     1       7.061   4.574  13.060  0.00  0.00    +0.000 A 
ATOM     12  N   UNL     1       6.205   3.782  13.659  0.00  0.00    +0.000 NA
ATOM     13  H   UNL     1       8.353   6.120  13.721  0.00  0.00    +0.000 HD
ENDBRANCH   5   8
BRANCH   1  15
ATOM     14  C   UNL     1       1.660   5.077  20.577  0.00  0.00    +0.000 C 
ATOM     15  C   UNL     1       2.482   5.639  19.407  0.00  0.00    +0.000 C 
ATOM     16  C   UNL     1       2.310   7.171  19.430  0.00  0.00    +0.000 C 
ENDBRANCH   1  15
TORSDOF 2
ENDMDL
MODEL 8
REMARK VINA RESULT:      -5.9      1.239      1.328
REMARK  Name = 
REMARK  4 active torsions:
REMARK  status: ('A' for Active; 'I' for Inactive)
REMARK    1  A    between atoms: C_1  and  C_2
REMARK    2  A    between atoms: C_2  and  C_3
REMARK    3  A    between atoms: C_2  and  N_4
REMARK    4  A    between atoms: C_8  and  C_9
REMARK                            x       y       z     vdW  Elec       q    Type
REMARK                         _______ _______ _______ _____ _____    ______ ____
ROOT
ATOM      1  N   UNL     1       2.906   2.688  19.679  0.00  0.00    +0.000 NA
ATOM      2  C   UNL     1       2.419   2.670  18.278  0.00  0.00    +0.000 C 
ATOM      3  C   UNL     1       2.441   4.027  17.532  0.00  0.00    +0.000 C 
ATOM      4  C   UNL     1       3.761   4.753  17.704  0.00  0.00    +0.000 C 
ATOM      5  C   UNL     1       4.436   5.294  16.665  0.00  0.00    +0.000 C 
ATOM      6  C   UNL     1       4.226   4.760  19.143  0.00  0.00    +0.000 C 
ATOM      7  C   UNL     1       4.248   3.321  19.674  0.00  0.00    +0.000 C 
ENDROOT
BRANCH   5   8
ATOM      8  C   UNL     1       5.702   5.941  16.717  0.00  0.00    +0.000 A 
ATOM      9  C   UNL     1       6.883   5.486  16.180  0.00  0.00    +0.000 A 
ATOM     10  N   UNL     1       7.795   6.468  16.463  0.00  0.00    +0.000 N 
ATOM     11  C   UNL     1       7.149   7.441  17.172  0.00  0.00    +0.000 A 
ATOM     12  N   UNL     1       5.889   7.134  17.364  0.00  0.00    +0.000 NA
ATOM     13  H   UNL     1       8.767   6.485  16.191  0.00  0.00    +0.000 HD
ENDBRANCH   5   8
BRANCH   1  15
ATOM     14  C   UNL     1       0.580   3.548  20.031  0.00  0.00    +0.000 C 
ATOM     15  C   UNL     1       1.967   3.307  20.647  0.00  0.00    +0.000 C 
ATOM     16  C   UNL     1       1.760   2.421  21.892  0.00  0.00    +0.000 C 
ENDBRANCH   1  15
TORSDOF 2
ENDMDL
MODEL 9
REMARK VINA RESULT:      -5.9      1.888      2.646
REMARK  Name = 
REMARK  4 active torsions:
REMARK  status: ('A' for Active; 'I' for Inactive)
REMARK    1  A    between atoms: C_1  and  C_2
REMARK    2  A    between atoms: C_2  and  C_3
REMARK    3  A    between atoms: C_2  and  N_4
REMARK    4  A    between atoms: C_8  and  C_9
REMARK                            x       y       z     vdW  Elec       q    Type
REMARK                         _______ _______ _______ _____ _____    ______ ____
ROOT
ATOM      1  N   UNL     1       1.661   4.245  18.818  0.00  0.00    +0.000 NA
ATOM      2  C   UNL     1       2.293   5.407  19.490  0.00  0.00    +0.000 C 
ATOM      3  C   UNL     1       3.835   5.359  19.624  0.00  0.00    +0.000 C 
ATOM      4  C   UNL     1       4.511   4.970  18.323  0.00  0.00    +0.000 C 
ATOM      5  C   UNL     1       5.564   5.650  17.818  0.00  0.00    +0.000 C 
ATOM      6  C   UNL     1       3.848   3.779  17.669  0.00  0.00    +0.000 C 
ATOM      7  C   UNL     1       2.347   4.056  17.517  0.00  0.00    +0.000 C 
ENDROOT
BRANCH   5   8
ATOM      8  C   UNL     1       6.226   5.399  16.584  0.00  0.00    +0.000 A 
ATOM      9  C   UNL     1       7.391   4.692  16.402  0.00  0.00    +0.000 A 
ATOM     10  N   UNL     1       7.598   4.704  15.047  0.00  0.00    +0.000 N 
ATOM     11  C   UNL     1       6.588   5.429  14.481  0.00  0.00    +0.000 A 
ATOM     12  N   UNL     1       5.760   5.885  15.390  0.00  0.00    +0.000 NA
ATOM     13  H   UNL     1       8.350   4.251  14.548  0.00  0.00    +0.000 HD
ENDBRANCH   5   8
BRANCH   1  15
ATOM     14  C   UNL     1       1.187   3.300  21.090  0.00  0.00    +0.000 C 
ATOM     15  C   UNL     1       1.614   3.012  19.642  0.00  0.00    +0.000 C 
ATOM     16  C   UNL     1       0.618   1.980  19.075  0.00  0.00    +0.000 C 
ENDBRANCH   1  15
TORSDOF 2
ENDMDL
