MODEL 1
REMARK VINA RESULT:      -9.0      0.000      0.000
REMARK  Name = 
REMARK  12 active torsions:
REMARK  status: ('A' for Active; 'I' for Inactive)
REMARK    1  A    between atoms: C_1  and  C_2
REMARK    2  A    between atoms: C_2  and  C_3
REMARK    3  A    between atoms: C_4  and  C_5
REMARK    4  A    between atoms: C_5  and  C_6
REMARK    5  A    between atoms: C_8  and  C_9
REMARK    6  A    between atoms: N_11  and  C_12
REMARK    7  A    between atoms: C_17  and  O_18
REMARK    8  A    between atoms: O_18  and  C_19
REMARK    9  A    between atoms: C_19  and  C_20
REMARK   10  A    between atoms: N_24  and  C_25
REMARK   11  A    between atoms: C_27  and  C_28
REMARK   12  A    between atoms: C_35  and  O_36
REMARK                            x       y       z     vdW  Elec       q    Type
REMARK                         _______ _______ _______ _____ _____    ______ ____
ROOT
ATOM      1  C   UNL     1       0.655   9.745  20.123  0.00  0.00    +0.000 A 
ATOM      2  C   UNL     1       0.841  10.271  21.343  0.00  0.00    +0.000 A 
ATOM      3  C   UNL     1      -0.085  11.316  21.743  0.00  0.00    +0.000 A 
ATOM      4  C   UNL     1      -1.087  11.097  22.676  0.00  0.00    +0.000 A 
ATOM      5  C   UNL     1      -2.132  12.033  22.804  0.00  0.00    +0.000 A 
ATOM      6  C   UNL     1      -2.086  13.255  22.124  0.00  0.00    +0.000 A 
ATOM      7  C   UNL     1      -1.071  13.479  21.197  0.00  0.00    +0.000 A 
ATOM      8  C   UNL     1      -0.608  14.868  20.869  0.00  0.00    +0.000 C 
ATOM      9  C   UNL     1      -0.269  12.368  20.857  0.00  0.00    +0.000 A 
ATOM     10  O   UNL     1      -0.548  11.793  19.505  0.00  0.00    +0.000 OA
ATOM     11  C   UNL     1      -0.417  10.398  19.291  0.00  0.00    +0.000 A 
ATOM     12  O   UNL     1      -1.039   9.773  18.438  0.00  0.00    +0.000 OA
ENDROOT
BRANCH   1  15
ATOM     13  C   UNL     1       2.096   8.638  18.455  0.00  0.00    +0.000 C 
ATOM     14  O   UNL     1       2.211   9.596  17.692  0.00  0.00    +0.000 OA
ATOM     15  N   UNL     1       1.328   8.642  19.613  0.00  0.00    +0.000 N 
ATOM     16  H   UNL     1       1.086   7.751  20.035  0.00  0.00    +0.000 HD
BRANCH  13  19
ATOM     17  C   UNL     1       2.583   4.930  17.763  0.00  0.00    +0.000 A 
ATOM     18  C   UNL     1       2.046   6.160  18.191  0.00  0.00    +0.000 A 
ATOM     19  C   UNL     1       2.769   7.357  18.074  0.00  0.00    +0.000 A 
ATOM     20  C   UNL     1       4.045   7.338  17.511  0.00  0.00    +0.000 A 
ATOM     21  C   UNL     1       4.595   6.119  17.076  0.00  0.00    +0.000 A 
ATOM     22  C   UNL     1       3.871   4.933  17.227  0.00  0.00    +0.000 A 
BRANCH  22  23
ATOM     23  O   UNL     1       4.404   3.741  16.786  0.00  0.00    +0.000 OA
ATOM     24  H   UNL     1       4.827   3.880  15.926  0.00  0.00    +0.000 HD
ENDBRANCH  22  23
BRANCH  17  25
ATOM     25  C   UNL     1       1.778   3.655  17.907  0.00  0.00    +0.000 C 
BRANCH  25  29
ATOM     26  C   UNL     1       1.515   2.745  21.707  0.00  0.00    +0.000 C 
ATOM     27  C   UNL     1       2.102   2.920  20.332  0.00  0.00    +0.000 C 
ATOM     28  C   UNL     1       3.547   2.550  20.154  0.00  0.00    +0.000 C 
ATOM     29  C   UNL     1       1.341   3.397  19.326  0.00  0.00    +0.000 C 
ENDBRANCH  25  29
ENDBRANCH  17  25
ENDBRANCH  13  19
ENDBRANCH   1  15
BRANCH   6  30
ATOM     30  O   UNL     1      -2.967  14.290  22.373  0.00  0.00    +0.000 OA
BRANCH  30  31
ATOM     31  C   UNL     1      -4.031  13.999  23.285  0.00  0.00    +0.000 C 
BRANCH  31  32
ATOM     32  C   UNL     1      -5.362  14.545  22.735  0.00  0.00    +0.000 C 
ATOM     33  C   UNL     1      -6.494  14.487  23.775  0.00  0.00    +0.000 C 
ATOM     34  C   UNL     1      -6.935  13.050  24.043  0.00  0.00    +0.000 C 
ATOM     35  C   UNL     1      -7.265  12.315  22.742  0.00  0.00    +0.000 C 
ATOM     36  N   UNL     1      -6.145  12.374  21.788  0.00  0.00    +0.000 NA
ATOM     37  C   UNL     1      -6.482  11.639  20.567  0.00  0.00    +0.000 C 
ATOM     38  C   UNL     1      -5.792  13.769  21.474  0.00  0.00    +0.000 C 
ENDBRANCH  31  32
ENDBRANCH  30  31
ENDBRANCH   6  30
TORSDOF 8
ENDMDL
MODEL 2
REMARK VINA RESULT:      -8.9      3.030      4.679
REMARK  Name = 
REMARK  12 active torsions:
REMARK  status: ('A' for Active; 'I' for Inactive)
REMARK    1  A    between atoms: C_1  and  C_2
REMARK    2  A    between atoms: C_2  and  C_3
REMARK    3  A    between atoms: C_4  and  C_5
REMARK    4  A    between atoms: C_5  and  C_6
REMARK    5  A    between atoms: C_8  and  C_9
REMARK    6  A    between atoms: N_11  and  C_12
REMARK    7  A    between atoms: C_17  and  O_18
REMARK    8  A    between atoms: O_18  and  C_19
REMARK    9  A    between atoms: C_19  and  C_20
REMARK   10  A    between atoms: N_24  and  C_25
REMARK   11  A    between atoms: C_27  and  C_28
REMARK   12  A    between atoms: C_35  and  O_36
REMARK                            x       y       z     vdW  Elec       q    Type
REMARK                         _______ _______ _______ _____ _____    ______ ____
ROOT
ATOM      1  C   UNL     1       0.772   8.981  21.298  0.00  0.00    +0.000 A 
ATOM      2  C   UNL     1      -0.061   9.666  20.499  0.00  0.00    +0.000 A 
ATOM      3  C   UNL     1      -0.538  10.940  21.006  0.00  0.00    +0.000 A 
ATOM      4  C   UNL     1      -0.076  12.150  20.512  0.00  0.00    +0.000 A 
ATOM      5  C   UNL     1      -0.333  13.336  21.229  0.00  0.00    +0.000 A 
ATOM      6  C   UNL     1      -1.186  13.331  22.339  0.00  0.00    +0.000 A 
ATOM      7  C   UNL     1      -1.661  12.115  22.824  0.00  0.00    +0.000 A 
ATOM      8  C   UNL     1      -2.955  12.030  23.580  0.00  0.00    +0.000 C 
ATOM      9  C   UNL     1      -1.082  10.948  22.283  0.00  0.00    +0.000 A 
ATOM     10  O   UNL     1      -0.127  10.249  23.198  0.00  0.00    +0.000 OA
ATOM     11  C   UNL     1       1.001   9.577  22.661  0.00  0.00    +0.000 A 
ATOM     12  O   UNL     1       2.048   9.398  23.275  0.00  0.00    +0.000 OA
ENDROOT
BRANCH   1  15
ATOM     13  C   UNL     1       2.015   7.577  19.697  0.00  0.00    +0.000 C 
ATOM     14  O   UNL     1       1.907   8.322  18.724  0.00  0.00    +0.000 OA
ATOM     15  N   UNL     1       1.455   7.825  20.944  0.00  0.00    +0.000 N 
ATOM     16  H   UNL     1       1.376   7.054  21.599  0.00  0.00    +0.000 HD
BRANCH  13  19
ATOM     17  C   UNL     1       4.538   5.059  18.371  0.00  0.00    +0.000 A 
ATOM     18  C   UNL     1       3.755   6.217  18.540  0.00  0.00    +0.000 A 
ATOM     19  C   UNL     1       2.738   6.281  19.506  0.00  0.00    +0.000 A 
ATOM     20  C   UNL     1       2.500   5.180  20.328  0.00  0.00    +0.000 A 
ATOM     21  C   UNL     1       3.276   4.016  20.175  0.00  0.00    +0.000 A 
ATOM     22  C   UNL     1       4.265   3.962  19.188  0.00  0.00    +0.000 A 
BRANCH  22  23
ATOM     23  O   UNL     1       5.035   2.827  19.048  0.00  0.00    +0.000 OA
ATOM     24  H   UNL     1       5.967   3.058  19.170  0.00  0.00    +0.000 HD
ENDBRANCH  22  23
BRANCH  17  25
ATOM     25  C   UNL     1       5.626   5.021  17.317  0.00  0.00    +0.000 C 
BRANCH  25  29
ATOM     26  C   UNL     1       7.969   8.147  17.593  0.00  0.00    +0.000 C 
ATOM     27  C   UNL     1       7.355   6.808  17.902  0.00  0.00    +0.000 C 
ATOM     28  C   UNL     1       7.939   6.039  19.053  0.00  0.00    +0.000 C 
ATOM     29  C   UNL     1       6.331   6.344  17.158  0.00  0.00    +0.000 C 
ENDBRANCH  25  29
ENDBRANCH  17  25
ENDBRANCH  13  19
ENDBRANCH   1  15
BRANCH   6  30
ATOM     30  O   UNL     1      -1.641  14.486  22.945  0.00  0.00    +0.000 OA
BRANCH  30  31
ATOM     31  C   UNL     1      -0.817  15.008  23.993  0.00  0.00    +0.000 C 
BRANCH  31  32
ATOM     32  C   UNL     1      -1.628  15.117  25.297  0.00  0.00    +0.000 C 
ATOM     33  C   UNL     1      -3.063  15.614  25.056  0.00  0.00    +0.000 C 
ATOM     34  C   UNL     1      -3.085  17.088  24.654  0.00  0.00    +0.000 C 
ATOM     35  C   UNL     1      -2.301  17.949  25.646  0.00  0.00    +0.000 C 
ATOM     36  N   UNL     1      -0.927  17.452  25.827  0.00  0.00    +0.000 NA
ATOM     37  C   UNL     1      -0.197  18.313  26.759  0.00  0.00    +0.000 C 
ATOM     38  C   UNL     1      -0.927  16.058  26.299  0.00  0.00    +0.000 C 
ENDBRANCH  31  32
ENDBRANCH  30  31
ENDBRANCH   6  30
TORSDOF 8
ENDMDL
MODEL 3
REMARK VINA RESULT:      -8.7      2.761      4.615
REMARK  Name = 
REMARK  12 active torsions:
REMARK  status: ('A' for Active; 'I' for Inactive)
REMARK    1  A    between atoms: C_1  and  C_2
REMARK    2  A    between atoms: C_2  and  C_3
REMARK    3  A    between atoms: C_4  and  C_5
REMARK    4  A    between atoms: C_5  and  C_6
REMARK    5  A    between atoms: C_8  and  C_9
REMARK    6  A    between atoms: N_11  and  C_12
REMARK    7  A    between atoms: C_17  and  O_18
REMARK    8  A    between atoms: O_18  and  C_19
REMARK    9  A    between atoms: C_19  and  C_20
REMARK   10  A    between atoms: N_24  and  C_25
REMARK   11  A    between atoms: C_27  and  C_28
REMARK   12  A    between atoms: C_35  and  O_36
REMARK                            x       y       z     vdW  Elec       q    Type
REMARK                         _______ _______ _______ _____ _____    ______ ____
ROOT
ATOM      1  C   UNL     1       0.800   8.819  21.286  0.00  0.00    +0.000 A 
ATOM      2  C   UNL     1      -0.092   9.440  20.501  0.00  0.00    +0.000 A 
ATOM      3  C   UNL     1      -0.511  10.765  20.922  0.00  0.00    +0.000 A 
ATOM      4  C   UNL     1      -0.081  11.914  20.276  0.00  0.00    +0.000 A 
ATOM      5  C   UNL     1      -0.263  13.167  20.895  0.00  0.00    +0.000 A 
ATOM      6  C   UNL     1      -1.015  13.283  22.069  0.00  0.00    +0.000 A 
ATOM      7  C   UNL     1      -1.458  12.128  22.709  0.00  0.00    +0.000 A 
ATOM      8  C   UNL     1      -2.681  12.139  23.578  0.00  0.00    +0.000 C 
ATOM      9  C   UNL     1      -0.940  10.904  22.234  0.00  0.00    +0.000 A 
ATOM     10  O   UNL     1       0.085  10.277  23.126  0.00  0.00    +0.000 OA
ATOM     11  C   UNL     1       1.154   9.538  22.561  0.00  0.00    +0.000 A 
ATOM     12  O   UNL     1       2.249   9.398  23.096  0.00  0.00    +0.000 OA
ENDROOT
BRANCH   1  15
ATOM     13  C   UNL     1       2.117   7.351  19.806  0.00  0.00    +0.000 C 
ATOM     14  O   UNL     1       2.170   8.114  18.842  0.00  0.00    +0.000 OA
ATOM     15  N   UNL     1       1.438   7.622  20.987  0.00  0.00    +0.000 N 
ATOM     16  H   UNL     1       1.233   6.851  21.614  0.00  0.00    +0.000 HD
BRANCH  13  19
ATOM     17  C   UNL     1       4.560   4.666  18.671  0.00  0.00    +0.000 A 
ATOM     18  C   UNL     1       3.843   5.874  18.781  0.00  0.00    +0.000 A 
ATOM     19  C   UNL     1       2.766   6.010  19.670  0.00  0.00    +0.000 A 
ATOM     20  C   UNL     1       2.398   4.931  20.476  0.00  0.00    +0.000 A 
ATOM     21  C   UNL     1       3.106   3.719  20.381  0.00  0.00    +0.000 A 
ATOM     22  C   UNL     1       4.158   3.595  19.469  0.00  0.00    +0.000 A 
BRANCH  22  23
ATOM     23  O   UNL     1       4.860   2.412  19.388  0.00  0.00    +0.000 OA
ATOM     24  H   UNL     1       5.790   2.578  19.601  0.00  0.00    +0.000 HD
ENDBRANCH  22  23
BRANCH  17  25
ATOM     25  C   UNL     1       5.716   4.551  17.699  0.00  0.00    +0.000 C 
BRANCH  25  29
ATOM     26  C   UNL     1       7.853   7.829  17.561  0.00  0.00    +0.000 C 
ATOM     27  C   UNL     1       7.325   6.505  18.042  0.00  0.00    +0.000 C 
ATOM     28  C   UNL     1       7.953   5.929  19.280  0.00  0.00    +0.000 C 
ATOM     29  C   UNL     1       6.336   5.884  17.368  0.00  0.00    +0.000 C 
ENDBRANCH  25  29
ENDBRANCH  17  25
ENDBRANCH  13  19
ENDBRANCH   1  15
BRANCH   6  30
ATOM     30  O   UNL     1      -1.403  14.498  22.599  0.00  0.00    +0.000 OA
BRANCH  30  31
ATOM     31  C   UNL     1      -2.184  15.335  21.738  0.00  0.00    +0.000 C 
BRANCH  31  32
ATOM     32  C   UNL     1      -1.603  16.760  21.717  0.00  0.00    +0.000 C 
ATOM     33  C   UNL     1      -2.607  17.795  21.180  0.00  0.00    +0.000 C 
ATOM     34  C   UNL     1      -2.838  17.624  19.679  0.00  0.00    +0.000 C 
ATOM     35  C   UNL     1      -1.515  17.602  18.910  0.00  0.00    +0.000 C 
ATOM     36  N   UNL     1      -0.597  16.581  19.441  0.00  0.00    +0.000 NA
ATOM     37  C   UNL     1       0.645  16.567  18.666  0.00  0.00    +0.000 C 
ATOM     38  C   UNL     1      -0.317  16.814  20.868  0.00  0.00    +0.000 C 
ENDBRANCH  31  32
ENDBRANCH  30  31
ENDBRANCH   6  30
TORSDOF 8
ENDMDL
MODEL 4
REMARK VINA RESULT:      -8.7      0.817      1.055
REMARK  Name = 
REMARK  12 active torsions:
REMARK  status: ('A' for Active; 'I' for Inactive)
REMARK    1  A    between atoms: C_1  and  C_2
REMARK    2  A    between atoms: C_2  and  C_3
REMARK    3  A    between atoms: C_4  and  C_5
REMARK    4  A    between atoms: C_5  and  C_6
REMARK    5  A    between atoms: C_8  and  C_9
REMARK    6  A    between atoms: N_11  and  C_12
REMARK    7  A    between atoms: C_17  and  O_18
REMARK    8  A    between atoms: O_18  and  C_19
REMARK    9  A    between atoms: C_19  and  C_20
REMARK   10  A    between atoms: N_24  and  C_25
REMARK   11  A    between atoms: C_27  and  C_28
REMARK   12  A    between atoms: C_35  and  O_36
REMARK                            x       y       z     vdW  Elec       q    Type
REMARK                         _______ _______ _______ _____ _____    ______ ____
ROOT
ATOM      1  C   UNL     1       0.934   9.569  19.779  0.00  0.00    +0.000 A 
ATOM      2  C   UNL     1       1.085  10.145  20.981  0.00  0.00    +0.000 A 
ATOM      3  C   UNL     1       0.160  11.217  21.303  0.00  0.00    +0.000 A 
ATOM      4  C   UNL     1      -0.875  11.051  22.210  0.00  0.00    +0.000 A 
ATOM      5  C   UNL     1      -1.912  12.003  22.262  0.00  0.00    +0.000 A 
ATOM      6  C   UNL     1      -1.828  13.194  21.531  0.00  0.00    +0.000 A 
ATOM      7  C   UNL     1      -0.779  13.365  20.631  0.00  0.00    +0.000 A 
ATOM      8  C   UNL     1      -0.288  14.733  20.259  0.00  0.00    +0.000 C 
ATOM      9  C   UNL     1       0.020  12.232  20.367  0.00  0.00    +0.000 A 
ATOM     10  O   UNL     1      -0.221  11.601  19.032  0.00  0.00    +0.000 OA
ATOM     11  C   UNL     1      -0.100  10.197  18.883  0.00  0.00    +0.000 A 
ATOM     12  O   UNL     1      -0.702   9.542  18.037  0.00  0.00    +0.000 OA
ENDROOT
BRANCH   1  15
ATOM     13  C   UNL     1       2.380   8.361  18.187  0.00  0.00    +0.000 C 
ATOM     14  O   UNL     1       2.497   9.270  17.366  0.00  0.00    +0.000 OA
ATOM     15  N   UNL     1       1.609   8.437  19.341  0.00  0.00    +0.000 N 
ATOM     16  H   UNL     1       1.367   7.574  19.817  0.00  0.00    +0.000 HD
BRANCH  13  19
ATOM     17  C   UNL     1       2.860   4.623  17.679  0.00  0.00    +0.000 A 
ATOM     18  C   UNL     1       2.318   5.874  18.032  0.00  0.00    +0.000 A 
ATOM     19  C   UNL     1       3.056   7.061  17.888  0.00  0.00    +0.000 A 
ATOM     20  C   UNL     1       4.352   7.007  17.375  0.00  0.00    +0.000 A 
ATOM     21  C   UNL     1       4.907   5.766  17.015  0.00  0.00    +0.000 A 
ATOM     22  C   UNL     1       4.167   4.592  17.191  0.00  0.00    +0.000 A 
BRANCH  22  23
ATOM     23  O   UNL     1       4.706   3.379  16.824  0.00  0.00    +0.000 OA
ATOM     24  H   UNL     1       5.609   3.314  17.167  0.00  0.00    +0.000 HD
ENDBRANCH  22  23
BRANCH  17  25
ATOM     25  C   UNL     1       2.039   3.362  17.849  0.00  0.00    +0.000 C 
BRANCH  25  29
ATOM     26  C   UNL     1       1.453   2.757  21.674  0.00  0.00    +0.000 C 
ATOM     27  C   UNL     1       2.157   2.832  20.346  0.00  0.00    +0.000 C 
ATOM     28  C   UNL     1       3.616   2.475  20.326  0.00  0.00    +0.000 C 
ATOM     29  C   UNL     1       1.482   3.211  19.241  0.00  0.00    +0.000 C 
ENDBRANCH  25  29
ENDBRANCH  17  25
ENDBRANCH  13  19
ENDBRANCH   1  15
BRANCH   6  30
ATOM     30  O   UNL     1      -2.702  14.248  21.705  0.00  0.00    +0.000 OA
BRANCH  30  31
ATOM     31  C   UNL     1      -4.095  13.928  21.612  0.00  0.00    +0.000 C 
BRANCH  31  32
ATOM     32  C   UNL     1      -4.862  14.559  22.789  0.00  0.00    +0.000 C 
ATOM     33  C   UNL     1      -4.198  14.267  24.145  0.00  0.00    +0.000 C 
ATOM     34  C   UNL     1      -4.351  12.799  24.539  0.00  0.00    +0.000 C 
ATOM     35  C   UNL     1      -5.812  12.351  24.466  0.00  0.00    +0.000 C 
ATOM     36  N   UNL     1      -6.398  12.626  23.144  0.00  0.00    +0.000 NA
ATOM     37  C   UNL     1      -7.786  12.160  23.100  0.00  0.00    +0.000 C 
ATOM     38  C   UNL     1      -6.321  14.060  22.820  0.00  0.00    +0.000 C 
ENDBRANCH  31  32
ENDBRANCH  30  31
ENDBRANCH   6  30
TORSDOF 8
ENDMDL
MODEL 5
REMARK VINA RESULT:      -8.7      1.680      3.010
REMARK  Name = 
REMARK  12 active torsions:
REMARK  status: ('A' for Active; 'I' for Inactive)
REMARK    1  A    between atoms: C_1  and  C_2
REMARK    2  A    between atoms: C_2  and  C_3
REMARK    3  A    between atoms: C_4  and  C_5
REMARK    4  A    between atoms: C_5  and  C_6
REMARK    5  A    between atoms: C_8  and  C_9
REMARK    6  A    between atoms: N_11  and  C_12
REMARK    7  A    between atoms: C_17  and  O_18
REMARK    8  A    between atoms: O_18  and  C_19
REMARK    9  A    between atoms: C_19  and  C_20
REMARK   10  A    between atoms: N_24  and  C_25
REMARK   11  A    between atoms: C_27  and  C_28
REMARK   12  A    between atoms: C_35  and  O_36
REMARK                            x       y       z     vdW  Elec       q    Type
REMARK                         _______ _______ _______ _____ _____    ______ ____
ROOT
ATOM      1  C   UNL     1       1.308   9.024  20.192  0.00  0.00    +0.000 A 
ATOM      2  C   UNL     1       1.445   9.257  21.506  0.00  0.00    +0.000 A 
ATOM      3  C   UNL     1       0.520  10.211  22.092  0.00  0.00    +0.000 A 
ATOM      4  C   UNL     1      -0.527   9.815  22.910  0.00  0.00    +0.000 A 
ATOM      5  C   UNL     1      -1.562  10.725  23.201  0.00  0.00    +0.000 A 
ATOM      6  C   UNL     1      -1.465  12.067  22.816  0.00  0.00    +0.000 A 
ATOM      7  C   UNL     1      -0.405  12.466  22.006  0.00  0.00    +0.000 A 
ATOM      8  C   UNL     1       0.096  13.881  22.018  0.00  0.00    +0.000 C 
ATOM      9  C   UNL     1       0.394  11.439  21.459  0.00  0.00    +0.000 A 
ATOM     10  O   UNL     1       0.168  11.189  20.001  0.00  0.00    +0.000 OA
ATOM     11  C   UNL     1       0.287   9.874  19.485  0.00  0.00    +0.000 A 
ATOM     12  O   UNL     1      -0.306   9.473  18.488  0.00  0.00    +0.000 OA
ENDROOT
BRANCH   1  15
ATOM     13  C   UNL     1       2.011   6.694  19.794  0.00  0.00    +0.000 C 
ATOM     14  O   UNL     1       1.499   6.205  20.800  0.00  0.00    +0.000 OA
ATOM     15  N   UNL     1       1.985   8.046  19.475  0.00  0.00    +0.000 N 
ATOM     16  H   UNL     1       2.638   8.390  18.778  0.00  0.00    +0.000 HD
BRANCH  13  19
ATOM     17  C   UNL     1       4.534   5.539  17.193  0.00  0.00    +0.000 A 
ATOM     18  C   UNL     1       3.714   6.344  18.007  0.00  0.00    +0.000 A 
ATOM     19  C   UNL     1       2.776   5.782  18.888  0.00  0.00    +0.000 A 
ATOM     20  C   UNL     1       2.656   4.394  18.971  0.00  0.00    +0.000 A 
ATOM     21  C   UNL     1       3.470   3.576  18.167  0.00  0.00    +0.000 A 
ATOM     22  C   UNL     1       4.379   4.156  17.276  0.00  0.00    +0.000 A 
BRANCH  22  23
ATOM     23  O   UNL     1       5.187   3.353  16.500  0.00  0.00    +0.000 OA
ATOM     24  H   UNL     1       5.106   3.621  15.573  0.00  0.00    +0.000 HD
ENDBRANCH  22  23
BRANCH  17  25
ATOM     25  C   UNL     1       5.534   6.178  16.252  0.00  0.00    +0.000 C 
BRANCH  25  29
ATOM     26  C   UNL     1       8.288   7.913  18.429  0.00  0.00    +0.000 C 
ATOM     27  C   UNL     1       7.425   6.829  17.842  0.00  0.00    +0.000 C 
ATOM     28  C   UNL     1       7.695   5.422  18.292  0.00  0.00    +0.000 C 
ATOM     29  C   UNL     1       6.462   7.139  16.949  0.00  0.00    +0.000 C 
ENDBRANCH  25  29
ENDBRANCH  17  25
ENDBRANCH  13  19
ENDBRANCH   1  15
BRANCH   6  30
ATOM     30  O   UNL     1      -2.338  13.043  23.255  0.00  0.00    +0.000 OA
BRANCH  30  31
ATOM     31  C   UNL     1      -3.730  12.710  23.194  0.00  0.00    +0.000 C 
BRANCH  31  32
ATOM     32  C   UNL     1      -4.454  13.644  22.207  0.00  0.00    +0.000 C 
ATOM     33  C   UNL     1      -5.284  14.723  22.923  0.00  0.00    +0.000 C 
ATOM     34  C   UNL     1      -6.512  14.124  23.605  0.00  0.00    +0.000 C 
ATOM     35  C   UNL     1      -7.329  13.270  22.634  0.00  0.00    +0.000 C 
ATOM     36  N   UNL     1      -6.501  12.235  21.993  0.00  0.00    +0.000 NA
ATOM     37  C   UNL     1      -7.319  11.420  21.092  0.00  0.00    +0.000 C 
ATOM     38  C   UNL     1      -5.372  12.839  21.266  0.00  0.00    +0.000 C 
ENDBRANCH  31  32
ENDBRANCH  30  31
ENDBRANCH   6  30
TORSDOF 8
ENDMDL
MODEL 6
REMARK VINA RESULT:      -8.5      2.490      4.114
REMARK  Name = 
REMARK  12 active torsions:
REMARK  status: ('A' for Active; 'I' for Inactive)
REMARK    1  A    between atoms: C_1  and  C_2
REMARK    2  A    between atoms: C_2  and  C_3
REMARK    3  A    between atoms: C_4  and  C_5
REMARK    4  A    between atoms: C_5  and  C_6
REMARK    5  A    between atoms: C_8  and  C_9
REMARK    6  A    between atoms: N_11  and  C_12
REMARK    7  A    between atoms: C_17  and  O_18
REMARK    8  A    between atoms: O_18  and  C_19
REMARK    9  A    between atoms: C_19  and  C_20
REMARK   10  A    between atoms: N_24  and  C_25
REMARK   11  A    between atoms: C_27  and  C_28
REMARK   12  A    between atoms: C_35  and  O_36
REMARK                            x       y       z     vdW  Elec       q    Type
REMARK                         _______ _______ _______ _____ _____    ______ ____
ROOT
ATOM      1  C   UNL     1       0.800   8.786  21.255  0.00  0.00    +0.000 A 
ATOM      2  C   UNL     1      -0.096   9.382  20.455  0.00  0.00    +0.000 A 
ATOM      3  C   UNL     1      -0.507  10.723  20.832  0.00  0.00    +0.000 A 
ATOM      4  C   UNL     1      -0.078  11.847  20.143  0.00  0.00    +0.000 A 
ATOM      5  C   UNL     1      -0.250  13.122  20.719  0.00  0.00    +0.000 A 
ATOM      6  C   UNL     1      -0.993  13.282  21.894  0.00  0.00    +0.000 A 
ATOM      7  C   UNL     1      -1.435  12.152  22.577  0.00  0.00    +0.000 A 
ATOM      8  C   UNL     1      -2.651  12.198  23.455  0.00  0.00    +0.000 C 
ATOM      9  C   UNL     1      -0.925  10.910  22.142  0.00  0.00    +0.000 A 
ATOM     10  O   UNL     1       0.104  10.311  23.048  0.00  0.00    +0.000 OA
ATOM     11  C   UNL     1       1.166   9.548  22.501  0.00  0.00    +0.000 A 
ATOM     12  O   UNL     1       2.265   9.423  23.033  0.00  0.00    +0.000 OA
ENDROOT
BRANCH   1  15
ATOM     13  C   UNL     1       2.123   7.271  19.828  0.00  0.00    +0.000 C 
ATOM     14  O   UNL     1       2.195   8.010  18.847  0.00  0.00    +0.000 OA
ATOM     15  N   UNL     1       1.431   7.577  20.993  0.00  0.00    +0.000 N 
ATOM     16  H   UNL     1       1.212   6.823  21.636  0.00  0.00    +0.000 HD
BRANCH  13  19
ATOM     17  C   UNL     1       4.567   4.543  18.805  0.00  0.00    +0.000 A 
ATOM     18  C   UNL     1       3.860   5.759  18.874  0.00  0.00    +0.000 A 
ATOM     19  C   UNL     1       2.762   5.922  19.734  0.00  0.00    +0.000 A 
ATOM     20  C   UNL     1       2.363   4.862  20.550  0.00  0.00    +0.000 A 
ATOM     21  C   UNL     1       3.061   3.642  20.495  0.00  0.00    +0.000 A 
ATOM     22  C   UNL     1       4.135   3.490  19.612  0.00  0.00    +0.000 A 
BRANCH  22  23
ATOM     23  O   UNL     1       4.827   2.300  19.570  0.00  0.00    +0.000 OA
ATOM     24  H   UNL     1       5.778   2.484  19.561  0.00  0.00    +0.000 HD
ENDBRANCH  22  23
BRANCH  17  25
ATOM     25  C   UNL     1       5.746   4.399  17.864  0.00  0.00    +0.000 C 
BRANCH  25  29
ATOM     26  C   UNL     1       7.834   7.696  17.549  0.00  0.00    +0.000 C 
ATOM     27  C   UNL     1       7.334   6.387  18.095  0.00  0.00    +0.000 C 
ATOM     28  C   UNL     1       7.992   5.872  19.344  0.00  0.00    +0.000 C 
ATOM     29  C   UNL     1       6.341   5.725  17.466  0.00  0.00    +0.000 C 
ENDBRANCH  25  29
ENDBRANCH  17  25
ENDBRANCH  13  19
ENDBRANCH   1  15
BRANCH   6  30
ATOM     30  O   UNL     1      -1.373  14.516  22.383  0.00  0.00    +0.000 OA
BRANCH  30  31
ATOM     31  C   UNL     1      -0.389  15.213  23.156  0.00  0.00    +0.000 C 
BRANCH  31  32
ATOM     32  C   UNL     1      -1.010  16.470  23.793  0.00  0.00    +0.000 C 
ATOM     33  C   UNL     1      -1.124  16.357  25.322  0.00  0.00    +0.000 C 
ATOM     34  C   UNL     1      -2.195  15.348  25.731  0.00  0.00    +0.000 C 
ATOM     35  C   UNL     1      -3.529  15.637  25.039  0.00  0.00    +0.000 C 
ATOM     36  N   UNL     1      -3.377  15.711  23.577  0.00  0.00    +0.000 NA
ATOM     37  C   UNL     1      -4.673  15.961  22.945  0.00  0.00    +0.000 C 
ATOM     38  C   UNL     1      -2.405  16.751  23.199  0.00  0.00    +0.000 C 
ENDBRANCH  31  32
ENDBRANCH  30  31
ENDBRANCH   6  30
TORSDOF 8
ENDMDL
MODEL 7
REMARK VINA RESULT:      -8.5      1.518      3.158
REMARK  Name = 
REMARK  12 active torsions:
REMARK  status: ('A' for Active; 'I' for Inactive)
REMARK    1  A    between atoms: C_1  and  C_2
REMARK    2  A    between atoms: C_2  and  C_3
REMARK    3  A    between atoms: C_4  and  C_5
REMARK    4  A    between atoms: C_5  and  C_6
REMARK    5  A    between atoms: C_8  and  C_9
REMARK    6  A    between atoms: N_11  and  C_12
REMARK    7  A    between atoms: C_17  and  O_18
REMARK    8  A    between atoms: O_18  and  C_19
REMARK    9  A    between atoms: C_19  and  C_20
REMARK   10  A    between atoms: N_24  and  C_25
REMARK   11  A    between atoms: C_27  and  C_28
REMARK   12  A    between atoms: C_35  and  O_36
REMARK                            x       y       z     vdW  Elec       q    Type
REMARK                         _______ _______ _______ _____ _____    ______ ____
ROOT
ATOM      1  C   UNL     1       0.848   9.228  20.386  0.00  0.00    +0.000 A 
ATOM      2  C   UNL     1       1.019   9.570  21.672  0.00  0.00    +0.000 A 
ATOM      3  C   UNL     1       0.180  10.645  22.171  0.00  0.00    +0.000 A 
ATOM      4  C   UNL     1      -0.886  10.413  23.026  0.00  0.00    +0.000 A 
ATOM      5  C   UNL     1      -1.841  11.427  23.236  0.00  0.00    +0.000 A 
ATOM      6  C   UNL     1      -1.640  12.716  22.727  0.00  0.00    +0.000 A 
ATOM      7  C   UNL     1      -0.560  12.951  21.880  0.00  0.00    +0.000 A 
ATOM      8  C   UNL     1       0.053  14.315  21.759  0.00  0.00    +0.000 C 
ATOM      9  C   UNL     1       0.147  11.816  21.427  0.00  0.00    +0.000 A 
ATOM     10  O   UNL     1      -0.115  11.452  20.000  0.00  0.00    +0.000 OA
ATOM     11  C   UNL     1      -0.109  10.090  19.607  0.00  0.00    +0.000 A 
ATOM     12  O   UNL     1      -0.744   9.649  18.654  0.00  0.00    +0.000 OA
ENDROOT
BRANCH   1  15
ATOM     13  C   UNL     1       2.221   8.197  18.616  0.00  0.00    +0.000 C 
ATOM     14  O   UNL     1       2.430   9.221  17.968  0.00  0.00    +0.000 OA
ATOM     15  N   UNL     1       1.436   8.136  19.760  0.00  0.00    +0.000 N 
ATOM     16  H   UNL     1       1.113   7.227  20.077  0.00  0.00    +0.000 HD
BRANCH  13  19
ATOM     17  C   UNL     1       4.715   5.750  17.113  0.00  0.00    +0.000 A 
ATOM     18  C   UNL     1       4.079   6.933  17.536  0.00  0.00    +0.000 A 
ATOM     19  C   UNL     1       2.792   6.915  18.098  0.00  0.00    +0.000 A 
ATOM     20  C   UNL     1       2.128   5.698  18.255  0.00  0.00    +0.000 A 
ATOM     21  C   UNL     1       2.750   4.507  17.841  0.00  0.00    +0.000 A 
ATOM     22  C   UNL     1       4.021   4.549  17.258  0.00  0.00    +0.000 A 
BRANCH  22  23
ATOM     23  O   UNL     1       4.636   3.380  16.866  0.00  0.00    +0.000 OA
ATOM     24  H   UNL     1       5.583   3.439  17.058  0.00  0.00    +0.000 HD
ENDBRANCH  22  23
BRANCH  17  25
ATOM     25  C   UNL     1       6.102   5.805  16.507  0.00  0.00    +0.000 C 
BRANCH  25  29
ATOM     26  C   UNL     1       8.337   8.608  18.082  0.00  0.00    +0.000 C 
ATOM     27  C   UNL     1       7.653   7.280  17.901  0.00  0.00    +0.000 C 
ATOM     28  C   UNL     1       7.929   6.224  18.934  0.00  0.00    +0.000 C 
ATOM     29  C   UNL     1       6.838   7.076  16.846  0.00  0.00    +0.000 C 
ENDBRANCH  25  29
ENDBRANCH  17  25
ENDBRANCH  13  19
ENDBRANCH   1  15
BRANCH   6  30
ATOM     30  O   UNL     1      -2.427  13.795  23.078  0.00  0.00    +0.000 OA
BRANCH  30  31
ATOM     31  C   UNL     1      -3.545  14.059  22.223  0.00  0.00    +0.000 C 
BRANCH  31  32
ATOM     32  C   UNL     1      -4.517  12.865  22.243  0.00  0.00    +0.000 C 
ATOM     33  C   UNL     1      -5.177  12.624  20.875  0.00  0.00    +0.000 C 
ATOM     34  C   UNL     1      -6.180  13.724  20.536  0.00  0.00    +0.000 C 
ATOM     35  C   UNL     1      -7.186  13.932  21.669  0.00  0.00    +0.000 C 
ATOM     36  N   UNL     1      -6.512  14.185  22.953  0.00  0.00    +0.000 NA
ATOM     37  C   UNL     1      -7.501  14.407  24.009  0.00  0.00    +0.000 C 
ATOM     38  C   UNL     1      -5.615  13.072  23.306  0.00  0.00    +0.000 C 
ENDBRANCH  31  32
ENDBRANCH  30  31
ENDBRANCH   6  30
TORSDOF 8
ENDMDL
MODEL 8
REMARK VINA RESULT:      -8.3      1.821      3.190
REMARK  Name = 
REMARK  12 active torsions:
REMARK  status: ('A' for Active; 'I' for Inactive)
REMARK    1  A    between atoms: C_1  and  C_2
REMARK    2  A    between atoms: C_2  and  C_3
REMARK    3  A    between atoms: C_4  and  C_5
REMARK    4  A    between atoms: C_5  and  C_6
REMARK    5  A    between atoms: C_8  and  C_9
REMARK    6  A    between atoms: N_11  and  C_12
REMARK    7  A    between atoms: C_17  and  O_18
REMARK    8  A    between atoms: O_18  and  C_19
REMARK    9  A    between atoms: C_19  and  C_20
REMARK   10  A    between atoms: N_24  and  C_25
REMARK   11  A    between atoms: C_27  and  C_28
REMARK   12  A    between atoms: C_35  and  O_36
REMARK                            x       y       z     vdW  Elec       q    Type
REMARK                         _______ _______ _______ _____ _____    ______ ____
ROOT
ATOM      1  C   UNL     1       1.453   8.929  19.856  0.00  0.00    +0.000 A 
ATOM      2  C   UNL     1       1.462   9.196  21.170  0.00  0.00    +0.000 A 
ATOM      3  C   UNL     1       0.708  10.361  21.597  0.00  0.00    +0.000 A 
ATOM      4  C   UNL     1      -0.502  10.252  22.266  0.00  0.00    +0.000 A 
ATOM      5  C   UNL     1      -1.332  11.384  22.387  0.00  0.00    +0.000 A 
ATOM      6  C   UNL     1      -0.882  12.648  21.990  0.00  0.00    +0.000 A 
ATOM      7  C   UNL     1       0.340  12.757  21.331  0.00  0.00    +0.000 A 
ATOM      8  C   UNL     1       1.143  14.024  21.384  0.00  0.00    +0.000 C 
ATOM      9  C   UNL     1       0.950  11.551  20.926  0.00  0.00    +0.000 A 
ATOM     10  O   UNL     1       0.871  11.280  19.457  0.00  0.00    +0.000 OA
ATOM     11  C   UNL     1       0.756   9.946  18.991  0.00  0.00    +0.000 A 
ATOM     12  O   UNL     1       0.226   9.634  17.929  0.00  0.00    +0.000 OA
ENDROOT
BRANCH   1  15
ATOM     13  C   UNL     1       1.961   6.516  19.823  0.00  0.00    +0.000 C 
ATOM     14  O   UNL     1       1.544   6.256  20.950  0.00  0.00    +0.000 OA
ATOM     15  N   UNL     1       1.979   7.788  19.264  0.00  0.00    +0.000 N 
ATOM     16  H   UNL     1       2.564   7.949  18.451  0.00  0.00    +0.000 HD
BRANCH  13  19
ATOM     17  C   UNL     1       4.557   4.433  17.982  0.00  0.00    +0.000 A 
ATOM     18  C   UNL     1       3.907   5.488  18.652  0.00  0.00    +0.000 A 
ATOM     19  C   UNL     1       2.556   5.399  19.025  0.00  0.00    +0.000 A 
ATOM     20  C   UNL     1       1.838   4.238  18.737  0.00  0.00    +0.000 A 
ATOM     21  C   UNL     1       2.473   3.174  18.071  0.00  0.00    +0.000 A 
ATOM     22  C   UNL     1       3.812   3.293  17.684  0.00  0.00    +0.000 A 
BRANCH  22  23
ATOM     23  O   UNL     1       4.437   2.244  17.045  0.00  0.00    +0.000 OA
ATOM     24  H   UNL     1       4.263   2.301  16.094  0.00  0.00    +0.000 HD
ENDBRANCH  22  23
BRANCH  17  25
ATOM     25  C   UNL     1       6.015   4.562  17.591  0.00  0.00    +0.000 C 
BRANCH  25  29
ATOM     26  C   UNL     1       7.648   8.121  17.589  0.00  0.00    +0.000 C 
ATOM     27  C   UNL     1       7.334   6.710  18.007  0.00  0.00    +0.000 C 
ATOM     28  C   UNL     1       8.077   6.168  19.195  0.00  0.00    +0.000 C 
ATOM     29  C   UNL     1       6.424   5.987  17.322  0.00  0.00    +0.000 C 
ENDBRANCH  25  29
ENDBRANCH  17  25
ENDBRANCH  13  19
ENDBRANCH   1  15
BRANCH   6  30
ATOM     30  O   UNL     1      -1.561  13.815  22.279  0.00  0.00    +0.000 OA
BRANCH  30  31
ATOM     31  C   UNL     1      -2.983  13.768  22.115  0.00  0.00    +0.000 C 
BRANCH  31  32
ATOM     32  C   UNL     1      -3.674  14.485  23.289  0.00  0.00    +0.000 C 
ATOM     33  C   UNL     1      -3.558  13.699  24.606  0.00  0.00    +0.000 C 
ATOM     34  C   UNL     1      -4.414  12.435  24.580  0.00  0.00    +0.000 C 
ATOM     35  C   UNL     1      -5.858  12.745  24.181  0.00  0.00    +0.000 C 
ATOM     36  N   UNL     1      -5.923  13.475  22.904  0.00  0.00    +0.000 NA
ATOM     37  C   UNL     1      -7.317  13.731  22.538  0.00  0.00    +0.000 C 
ATOM     38  C   UNL     1      -5.164  14.734  22.976  0.00  0.00    +0.000 C 
ENDBRANCH  31  32
ENDBRANCH  30  31
ENDBRANCH   6  30
TORSDOF 8
ENDMDL
MODEL 9
REMARK VINA RESULT:      -8.3      2.369      4.074
REMARK  Name = 
REMARK  12 active torsions:
REMARK  status: ('A' for Active; 'I' for Inactive)
REMARK    1  A    between atoms: C_1  and  C_2
REMARK    2  A    between atoms: C_2  and  C_3
REMARK    3  A    between atoms: C_4  and  C_5
REMARK    4  A    between atoms: C_5  and  C_6
REMARK    5  A    between atoms: C_8  and  C_9
REMARK    6  A    between atoms: N_11  and  C_12
REMARK    7  A    between atoms: C_17  and  O_18
REMARK    8  A    between atoms: O_18  and  C_19
REMARK    9  A    between atoms: C_19  and  C_20
REMARK   10  A    between atoms: N_24  and  C_25
REMARK   11  A    between atoms: C_27  and  C_28
REMARK   12  A    between atoms: C_35  and  O_36
REMARK                            x       y       z     vdW  Elec       q    Type
REMARK                         _______ _______ _______ _____ _____    ______ ____
ROOT
ATOM      1  C   UNL     1       0.897   9.280  20.878  0.00  0.00    +0.000 A 
ATOM      2  C   UNL     1       0.143  10.160  20.201  0.00  0.00    +0.000 A 
ATOM      3  C   UNL     1      -0.259  11.354  20.922  0.00  0.00    +0.000 A 
ATOM      4  C   UNL     1       0.306  12.595  20.668  0.00  0.00    +0.000 A 
ATOM      5  C   UNL     1       0.109  13.647  21.583  0.00  0.00    +0.000 A 
ATOM      6  C   UNL     1      -0.779  13.507  22.656  0.00  0.00    +0.000 A 
ATOM      7  C   UNL     1      -1.356  12.264  22.901  0.00  0.00    +0.000 A 
ATOM      8  C   UNL     1      -2.678  12.143  23.602  0.00  0.00    +0.000 C 
ATOM      9  C   UNL     1      -0.844  11.173  22.168  0.00  0.00    +0.000 A 
ATOM     10  O   UNL     1       0.027  10.249  22.959  0.00  0.00    +0.000 OA
ATOM     11  C   UNL     1       1.121   9.601  22.332  0.00  0.00    +0.000 A 
ATOM     12  O   UNL     1       2.131   9.234  22.924  0.00  0.00    +0.000 OA
ENDROOT
BRANCH   1  15
ATOM     13  C   UNL     1       1.990   8.062  19.033  0.00  0.00    +0.000 C 
ATOM     14  O   UNL     1       1.866   8.937  18.177  0.00  0.00    +0.000 OA
ATOM     15  N   UNL     1       1.507   8.158  20.332  0.00  0.00    +0.000 N 
ATOM     16  H   UNL     1       1.428   7.309  20.882  0.00  0.00    +0.000 HD
BRANCH  13  19
ATOM     17  C   UNL     1       4.508   5.672  17.479  0.00  0.00    +0.000 A 
ATOM     18  C   UNL     1       3.790   6.835  17.822  0.00  0.00    +0.000 A 
ATOM     19  C   UNL     1       2.642   6.778  18.629  0.00  0.00    +0.000 A 
ATOM     20  C   UNL     1       2.204   5.547  19.116  0.00  0.00    +0.000 A 
ATOM     21  C   UNL     1       2.911   4.376  18.786  0.00  0.00    +0.000 A 
ATOM     22  C   UNL     1       4.036   4.450  17.958  0.00  0.00    +0.000 A 
BRANCH  22  23
ATOM     23  O   UNL     1       4.737   3.305  17.648  0.00  0.00    +0.000 OA
ATOM     24  H   UNL     1       4.463   2.990  16.775  0.00  0.00    +0.000 HD
ENDBRANCH  22  23
BRANCH  17  25
ATOM     25  C   UNL     1       5.740   5.768  16.604  0.00  0.00    +0.000 C 
BRANCH  25  29
ATOM     26  C   UNL     1       8.207   8.505  17.929  0.00  0.00    +0.000 C 
ATOM     27  C   UNL     1       7.470   7.198  17.825  0.00  0.00    +0.000 C 
ATOM     28  C   UNL     1       7.820   6.135  18.827  0.00  0.00    +0.000 C 
ATOM     29  C   UNL     1       6.544   7.016  16.861  0.00  0.00    +0.000 C 
ENDBRANCH  25  29
ENDBRANCH  17  25
ENDBRANCH  13  19
ENDBRANCH   1  15
BRANCH   6  30
ATOM     30  O   UNL     1      -1.171  14.565  23.453  0.00  0.00    +0.000 OA
BRANCH  30  31
ATOM     31  C   UNL     1      -1.613  15.739  22.762  0.00  0.00    +0.000 C 
BRANCH  31  32
ATOM     32  C   UNL     1      -3.022  15.512  22.184  0.00  0.00    +0.000 C 
ATOM     33  C   UNL     1      -3.339  16.467  21.021  0.00  0.00    +0.000 C 
ATOM     34  C   UNL     1      -3.526  17.902  21.510  0.00  0.00    +0.000 C 
ATOM     35  C   UNL     1      -4.540  17.975  22.653  0.00  0.00    +0.000 C 
ATOM     36  N   UNL     1      -4.184  17.065  23.754  0.00  0.00    +0.000 NA
ATOM     37  C   UNL     1      -5.158  17.179  24.841  0.00  0.00    +0.000 C 
ATOM     38  C   UNL     1      -4.095  15.673  23.280  0.00  0.00    +0.000 C 
ENDBRANCH  31  32
ENDBRANCH  30  31
ENDBRANCH   6  30
TORSDOF 8
ENDMDL
