MODEL 1
REMARK VINA RESULT:      -7.7      0.000      0.000
REMARK  Name = 
REMARK  3 active torsions:
REMARK  status: ('A' for Active; 'I' for Inactive)
REMARK    1  A    between atoms: C_1  and  C_2
REMARK    2  A    between atoms: C_2  and  C_4
REMARK    3  A    between atoms: C_9  and  N_10
REMARK                            x       y       z     vdW  Elec       q    Type
REMARK                         _______ _______ _______ _____ _____    ______ ____
ROOT
ATOM      1  N   UNL     1       4.771   4.772  17.908  0.00  0.00    +0.000 N 
ATOM      2  C   UNL     1       4.578   3.733  18.784  0.00  0.00    +0.000 C 
ATOM      3  O   UNL     1       5.177   2.675  18.893  0.00  0.00    +0.000 OA
ATOM      4  C   UNL     1       3.490   4.131  19.661  0.00  0.00    +0.000 A 
ATOM      5  C   UNL     1       2.815   3.369  20.592  0.00  0.00    +0.000 A 
ATOM      6  C   UNL     1       1.714   3.957  21.205  0.00  0.00    +0.000 A 
ATOM      7  C   UNL     1       1.335   5.279  20.891  0.00  0.00    +0.000 A 
ATOM      8  C   UNL     1       2.056   6.038  19.952  0.00  0.00    +0.000 A 
ATOM      9  C   UNL     1       3.136   5.430  19.339  0.00  0.00    +0.000 A 
ATOM     10  C   UNL     1       4.015   5.873  18.240  0.00  0.00    +0.000 C 
ATOM     11  O   UNL     1       3.989   6.989  17.759  0.00  0.00    +0.000 OA
ENDROOT
BRANCH   1  17
ATOM     12  C   UNL     1       6.876   5.129  16.678  0.00  0.00    +0.000 A 
ATOM     13  C   UNL     1       7.557   5.132  15.455  0.00  0.00    +0.000 A 
ATOM     14  C   UNL     1       6.941   4.637  14.306  0.00  0.00    +0.000 A 
ATOM     15  C   UNL     1       5.661   4.090  14.381  0.00  0.00    +0.000 A 
ATOM     16  C   UNL     1       4.976   4.059  15.597  0.00  0.00    +0.000 A 
ATOM     17  C   UNL     1       5.554   4.618  16.743  0.00  0.00    +0.000 A 
BRANCH  12  19
ATOM     18  C   UNL     1       7.823   6.999  18.218  0.00  0.00    +0.000 C 
ATOM     19  C   UNL     1       7.609   5.534  17.926  0.00  0.00    +0.000 C 
ATOM     20  O   UNL     1       8.021   4.673  18.704  0.00  0.00    +0.000 OA
ENDBRANCH  12  19
ENDBRANCH   1  17
TORSDOF 2
ENDMDL
MODEL 2
REMARK VINA RESULT:      -7.5      0.859      2.091
REMARK  Name = 
REMARK  3 active torsions:
REMARK  status: ('A' for Active; 'I' for Inactive)
REMARK    1  A    between atoms: C_1  and  C_2
REMARK    2  A    between atoms: C_2  and  C_4
REMARK    3  A    between atoms: C_9  and  N_10
REMARK                            x       y       z     vdW  Elec       q    Type
REMARK                         _______ _______ _______ _____ _____    ______ ____
ROOT
ATOM      1  N   UNL     1       4.229   4.530  17.105  0.00  0.00    +0.000 N 
ATOM      2  C   UNL     1       3.759   5.732  17.571  0.00  0.00    +0.000 C 
ATOM      3  O   UNL     1       3.913   6.860  17.131  0.00  0.00    +0.000 OA
ATOM      4  C   UNL     1       2.949   5.431  18.738  0.00  0.00    +0.000 A 
ATOM      5  C   UNL     1       2.402   6.308  19.653  0.00  0.00    +0.000 A 
ATOM      6  C   UNL     1       1.782   5.749  20.765  0.00  0.00    +0.000 A 
ATOM      7  C   UNL     1       1.709   4.349  20.922  0.00  0.00    +0.000 A 
ATOM      8  C   UNL     1       2.260   3.481  19.962  0.00  0.00    +0.000 A 
ATOM      9  C   UNL     1       2.888   4.055  18.873  0.00  0.00    +0.000 A 
ATOM     10  C   UNL     1       3.668   3.464  17.770  0.00  0.00    +0.000 C 
ATOM     11  O   UNL     1       3.772   2.268  17.577  0.00  0.00    +0.000 OA
ENDROOT
BRANCH   1  17
ATOM     12  C   UNL     1       6.574   4.935  16.465  0.00  0.00    +0.000 A 
ATOM     13  C   UNL     1       7.533   5.034  15.450  0.00  0.00    +0.000 A 
ATOM     14  C   UNL     1       7.214   4.674  14.141  0.00  0.00    +0.000 A 
ATOM     15  C   UNL     1       5.949   4.165  13.847  0.00  0.00    +0.000 A 
ATOM     16  C   UNL     1       4.988   4.039  14.852  0.00  0.00    +0.000 A 
ATOM     17  C   UNL     1       5.272   4.465  16.154  0.00  0.00    +0.000 A 
BRANCH  12  19
ATOM     18  C   UNL     1       7.523   6.548  18.270  0.00  0.00    +0.000 C 
ATOM     19  C   UNL     1       6.983   5.193  17.887  0.00  0.00    +0.000 C 
ATOM     20  O   UNL     1       6.868   4.303  18.731  0.00  0.00    +0.000 OA
ENDBRANCH  12  19
ENDBRANCH   1  17
TORSDOF 2
ENDMDL
MODEL 3
REMARK VINA RESULT:      -7.5      1.564      5.665
REMARK  Name = 
REMARK  3 active torsions:
REMARK  status: ('A' for Active; 'I' for Inactive)
REMARK    1  A    between atoms: C_1  and  C_2
REMARK    2  A    between atoms: C_2  and  C_4
REMARK    3  A    between atoms: C_9  and  N_10
REMARK                            x       y       z     vdW  Elec       q    Type
REMARK                         _______ _______ _______ _____ _____    ______ ____
ROOT
ATOM      1  N   UNL     1       3.951   4.486  18.426  0.00  0.00    +0.000 N 
ATOM      2  C   UNL     1       3.671   4.168  17.121  0.00  0.00    +0.000 C 
ATOM      3  O   UNL     1       2.627   3.795  16.610  0.00  0.00    +0.000 OA
ATOM      4  C   UNL     1       4.892   4.399  16.370  0.00  0.00    +0.000 A 
ATOM      5  C   UNL     1       5.170   4.067  15.060  0.00  0.00    +0.000 A 
ATOM      6  C   UNL     1       6.474   4.276  14.623  0.00  0.00    +0.000 A 
ATOM      7  C   UNL     1       7.446   4.821  15.488  0.00  0.00    +0.000 A 
ATOM      8  C   UNL     1       7.126   5.168  16.813  0.00  0.00    +0.000 A 
ATOM      9  C   UNL     1       5.830   4.936  17.234  0.00  0.00    +0.000 A 
ATOM     10  C   UNL     1       5.197   5.055  18.562  0.00  0.00    +0.000 C 
ATOM     11  O   UNL     1       5.744   5.538  19.533  0.00  0.00    +0.000 OA
ENDROOT
BRANCH   1  17
ATOM     12  C   UNL     1       3.099   2.801  20.009  0.00  0.00    +0.000 A 
ATOM     13  C   UNL     1       2.105   2.410  20.914  0.00  0.00    +0.000 A 
ATOM     14  C   UNL     1       1.106   3.305  21.293  0.00  0.00    +0.000 A 
ATOM     15  C   UNL     1       1.122   4.613  20.809  0.00  0.00    +0.000 A 
ATOM     16  C   UNL     1       2.118   5.026  19.923  0.00  0.00    +0.000 A 
ATOM     17  C   UNL     1       3.084   4.116  19.479  0.00  0.00    +0.000 A 
BRANCH  12  19
ATOM     18  C   UNL     1       4.173   0.950  18.531  0.00  0.00    +0.000 C 
ATOM     19  C   UNL     1       4.241   1.867  19.727  0.00  0.00    +0.000 C 
ATOM     20  O   UNL     1       5.227   1.861  20.465  0.00  0.00    +0.000 OA
ENDBRANCH  12  19
ENDBRANCH   1  17
TORSDOF 2
ENDMDL
MODEL 4
REMARK VINA RESULT:      -7.3      1.624      5.856
REMARK  Name = 
REMARK  3 active torsions:
REMARK  status: ('A' for Active; 'I' for Inactive)
REMARK    1  A    between atoms: C_1  and  C_2
REMARK    2  A    between atoms: C_2  and  C_4
REMARK    3  A    between atoms: C_9  and  N_10
REMARK                            x       y       z     vdW  Elec       q    Type
REMARK                         _______ _______ _______ _____ _____    ______ ____
ROOT
ATOM      1  N   UNL     1       4.350   3.648  18.580  0.00  0.00    +0.000 N 
ATOM      2  C   UNL     1       5.308   4.611  18.776  0.00  0.00    +0.000 C 
ATOM      3  O   UNL     1       5.606   5.229  19.785  0.00  0.00    +0.000 OA
ATOM      4  C   UNL     1       5.998   4.767  17.508  0.00  0.00    +0.000 A 
ATOM      5  C   UNL     1       6.922   5.727  17.146  0.00  0.00    +0.000 A 
ATOM      6  C   UNL     1       7.329   5.736  15.816  0.00  0.00    +0.000 A 
ATOM      7  C   UNL     1       6.824   4.788  14.901  0.00  0.00    +0.000 A 
ATOM      8  C   UNL     1       5.898   3.810  15.306  0.00  0.00    +0.000 A 
ATOM      9  C   UNL     1       5.492   3.828  16.627  0.00  0.00    +0.000 A 
ATOM     10  C   UNL     1       4.462   3.053  17.345  0.00  0.00    +0.000 C 
ATOM     11  O   UNL     1       3.859   2.115  16.861  0.00  0.00    +0.000 OA
ENDROOT
BRANCH   1  17
ATOM     12  C   UNL     1       2.099   4.173  19.435  0.00  0.00    +0.000 A 
ATOM     13  C   UNL     1       1.169   4.086  20.478  0.00  0.00    +0.000 A 
ATOM     14  C   UNL     1       1.430   3.286  21.589  0.00  0.00    +0.000 A 
ATOM     15  C   UNL     1       2.599   2.527  21.643  0.00  0.00    +0.000 A 
ATOM     16  C   UNL     1       3.527   2.585  20.602  0.00  0.00    +0.000 A 
ATOM     17  C   UNL     1       3.311   3.440  19.515  0.00  0.00    +0.000 A 
BRANCH  12  19
ATOM     18  C   UNL     1       2.169   6.364  18.035  0.00  0.00    +0.000 C 
ATOM     19  C   UNL     1       1.733   4.927  18.188  0.00  0.00    +0.000 C 
ATOM     20  O   UNL     1       1.091   4.369  17.298  0.00  0.00    +0.000 OA
ENDBRANCH  12  19
ENDBRANCH   1  17
TORSDOF 2
ENDMDL
MODEL 5
REMARK VINA RESULT:      -7.3      1.855      2.660
REMARK  Name = 
REMARK  3 active torsions:
REMARK  status: ('A' for Active; 'I' for Inactive)
REMARK    1  A    between atoms: C_1  and  C_2
REMARK    2  A    between atoms: C_2  and  C_4
REMARK    3  A    between atoms: C_9  and  N_10
REMARK                            x       y       z     vdW  Elec       q    Type
REMARK                         _______ _______ _______ _____ _____    ______ ____
ROOT
ATOM      1  N   UNL     1       4.065   3.591  17.747  0.00  0.00    +0.000 N 
ATOM      2  C   UNL     1       2.727   3.334  17.585  0.00  0.00    +0.000 C 
ATOM      3  O   UNL     1       2.055   3.275  16.568  0.00  0.00    +0.000 OA
ATOM      4  C   UNL     1       2.194   3.083  18.912  0.00  0.00    +0.000 A 
ATOM      5  C   UNL     1       0.875   2.947  19.296  0.00  0.00    +0.000 A 
ATOM      6  C   UNL     1       0.626   2.849  20.661  0.00  0.00    +0.000 A 
ATOM      7  C   UNL     1       1.686   2.871  21.591  0.00  0.00    +0.000 A 
ATOM      8  C   UNL     1       3.022   2.991  21.166  0.00  0.00    +0.000 A 
ATOM      9  C   UNL     1       3.248   3.105  19.808  0.00  0.00    +0.000 A 
ATOM     10  C   UNL     1       4.480   3.371  19.040  0.00  0.00    +0.000 C 
ATOM     11  O   UNL     1       5.591   3.406  19.531  0.00  0.00    +0.000 OA
ENDROOT
BRANCH   1  17
ATOM     12  C   UNL     1       4.914   5.556  16.525  0.00  0.00    +0.000 A 
ATOM     13  C   UNL     1       5.530   6.073  15.379  0.00  0.00    +0.000 A 
ATOM     14  C   UNL     1       6.067   5.215  14.420  0.00  0.00    +0.000 A 
ATOM     15  C   UNL     1       6.038   3.835  14.624  0.00  0.00    +0.000 A 
ATOM     16  C   UNL     1       5.447   3.304  15.772  0.00  0.00    +0.000 A 
ATOM     17  C   UNL     1       4.840   4.151  16.706  0.00  0.00    +0.000 A 
BRANCH  12  19
ATOM     18  C   UNL     1       3.077   7.073  17.568  0.00  0.00    +0.000 C 
ATOM     19  C   UNL     1       4.472   6.498  17.608  0.00  0.00    +0.000 C 
ATOM     20  O   UNL     1       5.242   6.788  18.524  0.00  0.00    +0.000 OA
ENDBRANCH  12  19
ENDBRANCH   1  17
TORSDOF 2
ENDMDL
MODEL 6
REMARK VINA RESULT:      -7.3      0.994      1.016
REMARK  Name = 
REMARK  3 active torsions:
REMARK  status: ('A' for Active; 'I' for Inactive)
REMARK    1  A    between atoms: C_1  and  C_2
REMARK    2  A    between atoms: C_2  and  C_4
REMARK    3  A    between atoms: C_9  and  N_10
REMARK                            x       y       z     vdW  Elec       q    Type
REMARK                         _______ _______ _______ _____ _____    ______ ____
ROOT
ATOM      1  N   UNL     1       4.825   5.233  17.777  0.00  0.00    +0.000 N 
ATOM      2  C   UNL     1       4.687   4.321  18.793  0.00  0.00    +0.000 C 
ATOM      3  O   UNL     1       5.339   3.320  19.044  0.00  0.00    +0.000 OA
ATOM      4  C   UNL     1       3.584   4.786  19.615  0.00  0.00    +0.000 A 
ATOM      5  C   UNL     1       2.950   4.130  20.652  0.00  0.00    +0.000 A 
ATOM      6  C   UNL     1       1.824   4.745  21.187  0.00  0.00    +0.000 A 
ATOM      7  C   UNL     1       1.378   5.989  20.692  0.00  0.00    +0.000 A 
ATOM      8  C   UNL     1       2.057   6.641  19.648  0.00  0.00    +0.000 A 
ATOM      9  C   UNL     1       3.164   6.006  19.117  0.00  0.00    +0.000 A 
ATOM     10  C   UNL     1       4.016   6.331  17.957  0.00  0.00    +0.000 C 
ATOM     11  O   UNL     1       3.933   7.365  17.323  0.00  0.00    +0.000 OA
ENDROOT
BRANCH   1  17
ATOM     12  C   UNL     1       6.779   5.708  16.352  0.00  0.00    +0.000 A 
ATOM     13  C   UNL     1       7.429   5.538  15.124  0.00  0.00    +0.000 A 
ATOM     14  C   UNL     1       6.934   4.636  14.184  0.00  0.00    +0.000 A 
ATOM     15  C   UNL     1       5.815   3.859  14.485  0.00  0.00    +0.000 A 
ATOM     16  C   UNL     1       5.168   4.000  15.714  0.00  0.00    +0.000 A 
ATOM     17  C   UNL     1       5.612   4.954  16.637  0.00  0.00    +0.000 A 
BRANCH  12  19
ATOM     18  C   UNL     1       7.868   5.963  18.700  0.00  0.00    +0.000 C 
ATOM     19  C   UNL     1       7.411   6.579  17.401  0.00  0.00    +0.000 C 
ATOM     20  O   UNL     1       7.560   7.783  17.193  0.00  0.00    +0.000 OA
ENDBRANCH  12  19
ENDBRANCH   1  17
TORSDOF 2
ENDMDL
MODEL 7
REMARK VINA RESULT:      -7.3      1.411      5.706
REMARK  Name = 
REMARK  3 active torsions:
REMARK  status: ('A' for Active; 'I' for Inactive)
REMARK    1  A    between atoms: C_1  and  C_2
REMARK    2  A    between atoms: C_2  and  C_4
REMARK    3  A    between atoms: C_9  and  N_10
REMARK                            x       y       z     vdW  Elec       q    Type
REMARK                         _______ _______ _______ _____ _____    ______ ____
ROOT
ATOM      1  N   UNL     1       4.465   4.247  18.039  0.00  0.00    +0.000 N 
ATOM      2  C   UNL     1       5.801   4.562  18.058  0.00  0.00    +0.000 C 
ATOM      3  O   UNL     1       6.547   4.763  19.003  0.00  0.00    +0.000 OA
ATOM      4  C   UNL     1       6.239   4.579  16.674  0.00  0.00    +0.000 A 
ATOM      5  C   UNL     1       7.447   5.007  16.161  0.00  0.00    +0.000 A 
ATOM      6  C   UNL     1       7.561   5.048  14.776  0.00  0.00    +0.000 A 
ATOM      7  C   UNL     1       6.487   4.650  13.951  0.00  0.00    +0.000 A 
ATOM      8  C   UNL     1       5.275   4.200  14.505  0.00  0.00    +0.000 A 
ATOM      9  C   UNL     1       5.174   4.183  15.883  0.00  0.00    +0.000 A 
ATOM     10  C   UNL     1       4.035   3.902  16.778  0.00  0.00    +0.000 C 
ATOM     11  O   UNL     1       2.959   3.486  16.396  0.00  0.00    +0.000 OA
ENDROOT
BRANCH   1  17
ATOM     12  C   UNL     1       3.338   3.320  20.024  0.00  0.00    +0.000 A 
ATOM     13  C   UNL     1       2.380   3.476  21.034  0.00  0.00    +0.000 A 
ATOM     14  C   UNL     1       1.736   4.699  21.210  0.00  0.00    +0.000 A 
ATOM     15  C   UNL     1       2.080   5.790  20.412  0.00  0.00    +0.000 A 
ATOM     16  C   UNL     1       3.049   5.658  19.416  0.00  0.00    +0.000 A 
ATOM     17  C   UNL     1       3.651   4.416  19.180  0.00  0.00    +0.000 A 
BRANCH  12  19
ATOM     18  C   UNL     1       3.760   1.013  18.900  0.00  0.00    +0.000 C 
ATOM     19  C   UNL     1       4.119   2.039  19.946  0.00  0.00    +0.000 C 
ATOM     20  O   UNL     1       5.049   1.837  20.728  0.00  0.00    +0.000 OA
ENDBRANCH  12  19
ENDBRANCH   1  17
TORSDOF 2
ENDMDL
MODEL 8
REMARK VINA RESULT:      -7.2      2.176      3.460
REMARK  Name = 
REMARK  3 active torsions:
REMARK  status: ('A' for Active; 'I' for Inactive)
REMARK    1  A    between atoms: C_1  and  C_2
REMARK    2  A    between atoms: C_2  and  C_4
REMARK    3  A    between atoms: C_9  and  N_10
REMARK                            x       y       z     vdW  Elec       q    Type
REMARK                         _______ _______ _______ _____ _____    ______ ____
ROOT
ATOM      1  N   UNL     1       4.308   4.976  18.453  0.00  0.00    +0.000 N 
ATOM      2  C   UNL     1       3.282   5.304  19.303  0.00  0.00    +0.000 C 
ATOM      3  O   UNL     1       3.122   6.295  19.995  0.00  0.00    +0.000 OA
ATOM      4  C   UNL     1       2.316   4.223  19.216  0.00  0.00    +0.000 A 
ATOM      5  C   UNL     1       1.201   4.003  19.999  0.00  0.00    +0.000 A 
ATOM      6  C   UNL     1       0.516   2.810  19.795  0.00  0.00    +0.000 A 
ATOM      7  C   UNL     1       0.946   1.891  18.815  0.00  0.00    +0.000 A 
ATOM      8  C   UNL     1       2.075   2.153  18.018  0.00  0.00    +0.000 A 
ATOM      9  C   UNL     1       2.753   3.336  18.248  0.00  0.00    +0.000 A 
ATOM     10  C   UNL     1       4.019   3.859  17.703  0.00  0.00    +0.000 C 
ATOM     11  O   UNL     1       4.637   3.333  16.798  0.00  0.00    +0.000 OA
ENDROOT
BRANCH   1  17
ATOM     12  C   UNL     1       5.914   6.565  17.468  0.00  0.00    +0.000 A 
ATOM     13  C   UNL     1       7.217   7.077  17.434  0.00  0.00    +0.000 A 
ATOM     14  C   UNL     1       8.148   6.697  18.399  0.00  0.00    +0.000 A 
ATOM     15  C   UNL     1       7.770   5.844  19.436  0.00  0.00    +0.000 A 
ATOM     16  C   UNL     1       6.469   5.341  19.497  0.00  0.00    +0.000 A 
ATOM     17  C   UNL     1       5.545   5.656  18.493  0.00  0.00    +0.000 A 
BRANCH  12  19
ATOM     18  C   UNL     1       3.717   7.884  17.027  0.00  0.00    +0.000 C 
ATOM     19  C   UNL     1       4.892   7.096  16.503  0.00  0.00    +0.000 C 
ATOM     20  O   UNL     1       5.023   6.896  15.295  0.00  0.00    +0.000 OA
ENDBRANCH  12  19
ENDBRANCH   1  17
TORSDOF 2
ENDMDL
MODEL 9
REMARK VINA RESULT:      -6.9      1.471      5.770
REMARK  Name = 
REMARK  3 active torsions:
REMARK  status: ('A' for Active; 'I' for Inactive)
REMARK    1  A    between atoms: C_1  and  C_2
REMARK    2  A    between atoms: C_2  and  C_4
REMARK    3  A    between atoms: C_9  and  N_10
REMARK                            x       y       z     vdW  Elec       q    Type
REMARK                         _______ _______ _______ _____ _____    ______ ____
ROOT
ATOM      1  N   UNL     1       4.168   4.613  18.049  0.00  0.00    +0.000 N 
ATOM      2  C   UNL     1       5.507   4.917  18.069  0.00  0.00    +0.000 C 
ATOM      3  O   UNL     1       6.217   5.276  18.994  0.00  0.00    +0.000 OA
ATOM      4  C   UNL     1       6.000   4.688  16.722  0.00  0.00    +0.000 A 
ATOM      5  C   UNL     1       7.233   5.010  16.193  0.00  0.00    +0.000 A 
ATOM      6  C   UNL     1       7.403   4.807  14.828  0.00  0.00    +0.000 A 
ATOM      7  C   UNL     1       6.357   4.278  14.043  0.00  0.00    +0.000 A 
ATOM      8  C   UNL     1       5.118   3.941  14.615  0.00  0.00    +0.000 A 
ATOM      9  C   UNL     1       4.962   4.167  15.970  0.00  0.00    +0.000 A 
ATOM     10  C   UNL     1       3.784   4.056  16.851  0.00  0.00    +0.000 C 
ATOM     11  O   UNL     1       2.718   3.587  16.503  0.00  0.00    +0.000 OA
ENDROOT
BRANCH   1  17
ATOM     12  C   UNL     1       2.641   4.007  19.885  0.00  0.00    +0.000 A 
ATOM     13  C   UNL     1       1.657   4.404  20.798  0.00  0.00    +0.000 A 
ATOM     14  C   UNL     1       1.335   5.753  20.944  0.00  0.00    +0.000 A 
ATOM     15  C   UNL     1       2.030   6.719  20.216  0.00  0.00    +0.000 A 
ATOM     16  C   UNL     1       3.029   6.341  19.318  0.00  0.00    +0.000 A 
ATOM     17  C   UNL     1       3.312   4.986  19.108  0.00  0.00    +0.000 A 
BRANCH  12  19
ATOM     18  C   UNL     1       4.374   2.164  20.488  0.00  0.00    +0.000 C 
ATOM     19  C   UNL     1       3.068   2.567  19.849  0.00  0.00    +0.000 C 
ATOM     20  O   UNL     1       2.350   1.726  19.309  0.00  0.00    +0.000 OA
ENDBRANCH  12  19
ENDBRANCH   1  17
TORSDOF 2
ENDMDL
