MODEL 1
REMARK VINA RESULT:      -7.7      0.000      0.000
REMARK  Name = 
REMARK  8 active torsions:
REMARK  status: ('A' for Active; 'I' for Inactive)
REMARK    1  A    between atoms: C_1  and  C_2
REMARK    2  A    between atoms: C_5  and  C_6
REMARK    3  A    between atoms: C_6  and  C_7
REMARK    4  A    between atoms: C_6  and  C_8
REMARK    5  A    between atoms: C_9  and  O_10
REMARK    6  A    between atoms: O_10  and  C_11
REMARK    7  A    between atoms: C_11  and  C_12
REMARK    8  A    between atoms: N_14  and  C_15
REMARK                            x       y       z     vdW  Elec       q    Type
REMARK                         _______ _______ _______ _____ _____    ______ ____
ROOT
ATOM      1  C   UNL     1       3.082   7.541  17.307  0.00  0.00    +0.000 C 
ENDROOT
BRANCH   1   2
ATOM      2  C   UNL     1       2.295   8.508  18.126  0.00  0.00    +0.000 A 
ATOM      3  C   UNL     1       1.782   8.359  19.397  0.00  0.00    +0.000 A 
ATOM      4  N   UNL     1       1.120   9.537  19.661  0.00  0.00    +0.000 N 
ATOM      5  N   UNL     1       1.221  10.352  18.583  0.00  0.00    +0.000 NA
ATOM      6  N   UNL     1       1.931   9.735  17.646  0.00  0.00    +0.000 NA
BRANCH   4   7
ATOM      7  C   UNL     1       0.404   9.906  20.832  0.00  0.00    +0.000 A 
ATOM      8  C   UNL     1       0.459   9.117  21.990  0.00  0.00    +0.000 A 
ATOM      9  C   UNL     1      -0.257   9.491  23.130  0.00  0.00    +0.000 A 
ATOM     10  C   UNL     1      -1.030  10.650  23.125  0.00  0.00    +0.000 A 
ATOM     11  C   UNL     1      -1.090  11.440  21.978  0.00  0.00    +0.000 A 
ATOM     12  C   UNL     1      -0.377  11.074  20.833  0.00  0.00    +0.000 A 
ENDBRANCH   4   7
ENDBRANCH   1   2
BRANCH   1  13
ATOM     13  O   UNL     1       3.792   6.589  18.110  0.00  0.00    +0.000 OA
BRANCH  13  19
ATOM     14  C   UNL     1       0.738   2.827  19.152  0.00  0.00    +0.000 C 
ATOM     15  C   UNL     1       1.957   3.380  18.475  0.00  0.00    +0.000 A 
ATOM     16  C   UNL     1       2.790   2.555  17.720  0.00  0.00    +0.000 A 
ATOM     17  C   UNL     1       3.921   3.080  17.096  0.00  0.00    +0.000 A 
ATOM     18  C   UNL     1       4.257   4.441  17.212  0.00  0.00    +0.000 A 
ATOM     19  C   UNL     1       3.434   5.268  18.010  0.00  0.00    +0.000 A 
ATOM     20  C   UNL     1       2.280   4.738  18.605  0.00  0.00    +0.000 A 
BRANCH  18  21
ATOM     21  C   UNL     1       5.506   4.990  16.528  0.00  0.00    +0.000 C 
ATOM     22  C   UNL     1       6.757   4.609  17.324  0.00  0.00    +0.000 C 
ATOM     23  C   UNL     1       5.667   4.550  15.065  0.00  0.00    +0.000 C 
ENDBRANCH  18  21
ENDBRANCH  13  19
ENDBRANCH   1  13
TORSDOF 5
ENDMDL
MODEL 2
REMARK VINA RESULT:      -7.7      0.203      1.028
REMARK  Name = 
REMARK  8 active torsions:
REMARK  status: ('A' for Active; 'I' for Inactive)
REMARK    1  A    between atoms: C_1  and  C_2
REMARK    2  A    between atoms: C_5  and  C_6
REMARK    3  A    between atoms: C_6  and  C_7
REMARK    4  A    between atoms: C_6  and  C_8
REMARK    5  A    between atoms: C_9  and  O_10
REMARK    6  A    between atoms: O_10  and  C_11
REMARK    7  A    between atoms: C_11  and  C_12
REMARK    8  A    between atoms: N_14  and  C_15
REMARK                            x       y       z     vdW  Elec       q    Type
REMARK                         _______ _______ _______ _____ _____    ______ ____
ROOT
ATOM      1  C   UNL     1       3.056   7.648  17.325  0.00  0.00    +0.000 C 
ENDROOT
BRANCH   1   2
ATOM      2  C   UNL     1       2.270   8.615  18.145  0.00  0.00    +0.000 A 
ATOM      3  C   UNL     1       1.732   8.455  19.404  0.00  0.00    +0.000 A 
ATOM      4  N   UNL     1       1.085   9.639  19.676  0.00  0.00    +0.000 N 
ATOM      5  N   UNL     1       1.218  10.470  18.613  0.00  0.00    +0.000 NA
ATOM      6  N   UNL     1       1.935   9.856  17.679  0.00  0.00    +0.000 NA
BRANCH   4   7
ATOM      7  C   UNL     1       0.353  10.002  20.839  0.00  0.00    +0.000 A 
ATOM      8  C   UNL     1      -0.475  11.134  20.845  0.00  0.00    +0.000 A 
ATOM      9  C   UNL     1      -1.183  11.482  21.999  0.00  0.00    +0.000 A 
ATOM     10  C   UNL     1      -1.072  10.705  23.150  0.00  0.00    +0.000 A 
ATOM     11  C   UNL     1      -0.252   9.578  23.153  0.00  0.00    +0.000 A 
ATOM     12  C   UNL     1       0.459   9.223  22.003  0.00  0.00    +0.000 A 
ENDBRANCH   4   7
ENDBRANCH   1   2
BRANCH   1  13
ATOM     13  O   UNL     1       3.777   6.705  18.127  0.00  0.00    +0.000 OA
BRANCH  13  19
ATOM     14  C   UNL     1       0.842   2.792  18.927  0.00  0.00    +0.000 C 
ATOM     15  C   UNL     1       2.066   3.414  18.323  0.00  0.00    +0.000 A 
ATOM     16  C   UNL     1       2.968   2.644  17.589  0.00  0.00    +0.000 A 
ATOM     17  C   UNL     1       4.104   3.233  17.033  0.00  0.00    +0.000 A 
ATOM     18  C   UNL     1       4.375   4.603  17.199  0.00  0.00    +0.000 A 
ATOM     19  C   UNL     1       3.481   5.373  17.977  0.00  0.00    +0.000 A 
ATOM     20  C   UNL     1       2.324   4.780  18.502  0.00  0.00    +0.000 A 
BRANCH  18  21
ATOM     21  C   UNL     1       5.630   5.221  16.590  0.00  0.00    +0.000 C 
ATOM     22  C   UNL     1       6.883   4.553  17.164  0.00  0.00    +0.000 C 
ATOM     23  C   UNL     1       5.673   5.174  15.055  0.00  0.00    +0.000 C 
ENDBRANCH  18  21
ENDBRANCH  13  19
ENDBRANCH   1  13
TORSDOF 5
ENDMDL
MODEL 3
REMARK VINA RESULT:      -7.6      3.221      7.962
REMARK  Name = 
REMARK  8 active torsions:
REMARK  status: ('A' for Active; 'I' for Inactive)
REMARK    1  A    between atoms: C_1  and  C_2
REMARK    2  A    between atoms: C_5  and  C_6
REMARK    3  A    between atoms: C_6  and  C_7
REMARK    4  A    between atoms: C_6  and  C_8
REMARK    5  A    between atoms: C_9  and  O_10
REMARK    6  A    between atoms: O_10  and  C_11
REMARK    7  A    between atoms: C_11  and  C_12
REMARK    8  A    between atoms: N_14  and  C_15
REMARK                            x       y       z     vdW  Elec       q    Type
REMARK                         _______ _______ _______ _____ _____    ______ ____
ROOT
ATOM      1  C   UNL     1       5.804   5.125  19.343  0.00  0.00    +0.000 C 
ENDROOT
BRANCH   1   2
ATOM      2  C   UNL     1       6.255   5.307  17.933  0.00  0.00    +0.000 A 
ATOM      3  C   UNL     1       5.975   4.540  16.822  0.00  0.00    +0.000 A 
ATOM      4  N   UNL     1       6.664   5.134  15.788  0.00  0.00    +0.000 N 
ATOM      5  N   UNL     1       7.342   6.206  16.267  0.00  0.00    +0.000 NA
ATOM      6  N   UNL     1       7.100   6.317  17.568  0.00  0.00    +0.000 NA
BRANCH   4   7
ATOM      7  C   UNL     1       6.729   4.738  14.425  0.00  0.00    +0.000 A 
ATOM      8  C   UNL     1       5.875   3.745  13.921  0.00  0.00    +0.000 A 
ATOM      9  C   UNL     1       5.957   3.362  12.580  0.00  0.00    +0.000 A 
ATOM     10  C   UNL     1       6.884   3.965  11.733  0.00  0.00    +0.000 A 
ATOM     11  C   UNL     1       7.736   4.953  12.225  0.00  0.00    +0.000 A 
ATOM     12  C   UNL     1       7.661   5.342  13.566  0.00  0.00    +0.000 A 
ENDBRANCH   4   7
ENDBRANCH   1   2
BRANCH   1  13
ATOM     13  O   UNL     1       4.597   5.840  19.631  0.00  0.00    +0.000 OA
BRANCH  13  19
ATOM     14  C   UNL     1       2.125   1.545  19.580  0.00  0.00    +0.000 C 
ATOM     15  C   UNL     1       2.160   3.038  19.719  0.00  0.00    +0.000 A 
ATOM     16  C   UNL     1       0.987   3.763  19.927  0.00  0.00    +0.000 A 
ATOM     17  C   UNL     1       1.032   5.151  20.052  0.00  0.00    +0.000 A 
ATOM     18  C   UNL     1       2.246   5.856  19.968  0.00  0.00    +0.000 A 
ATOM     19  C   UNL     1       3.429   5.124  19.717  0.00  0.00    +0.000 A 
ATOM     20  C   UNL     1       3.378   3.726  19.627  0.00  0.00    +0.000 A 
BRANCH  18  21
ATOM     21  C   UNL     1       2.268   7.376  20.097  0.00  0.00    +0.000 C 
ATOM     22  C   UNL     1       2.091   8.029  18.724  0.00  0.00    +0.000 C 
ATOM     23  C   UNL     1       1.227   7.938  21.078  0.00  0.00    +0.000 C 
ENDBRANCH  18  21
ENDBRANCH  13  19
ENDBRANCH   1  13
TORSDOF 5
ENDMDL
MODEL 4
REMARK VINA RESULT:      -7.5      3.634      7.768
REMARK  Name = 
REMARK  8 active torsions:
REMARK  status: ('A' for Active; 'I' for Inactive)
REMARK    1  A    between atoms: C_1  and  C_2
REMARK    2  A    between atoms: C_5  and  C_6
REMARK    3  A    between atoms: C_6  and  C_7
REMARK    4  A    between atoms: C_6  and  C_8
REMARK    5  A    between atoms: C_9  and  O_10
REMARK    6  A    between atoms: O_10  and  C_11
REMARK    7  A    between atoms: C_11  and  C_12
REMARK    8  A    between atoms: N_14  and  C_15
REMARK                            x       y       z     vdW  Elec       q    Type
REMARK                         _______ _______ _______ _____ _____    ______ ____
ROOT
ATOM      1  C   UNL     1       6.162   5.430  19.369  0.00  0.00    +0.000 C 
ENDROOT
BRANCH   1   2
ATOM      2  C   UNL     1       6.554   5.553  17.935  0.00  0.00    +0.000 A 
ATOM      3  C   UNL     1       6.229   4.742  16.869  0.00  0.00    +0.000 A 
ATOM      4  N   UNL     1       6.874   5.292  15.784  0.00  0.00    +0.000 N 
ATOM      5  N   UNL     1       7.570   6.382  16.190  0.00  0.00    +0.000 NA
ATOM      6  N   UNL     1       7.382   6.547  17.494  0.00  0.00    +0.000 NA
BRANCH   4   7
ATOM      7  C   UNL     1       6.883   4.840  14.437  0.00  0.00    +0.000 A 
ATOM      8  C   UNL     1       7.771   5.389  13.499  0.00  0.00    +0.000 A 
ATOM      9  C   UNL     1       7.763   4.939  12.176  0.00  0.00    +0.000 A 
ATOM     10  C   UNL     1       6.875   3.941  11.780  0.00  0.00    +0.000 A 
ATOM     11  C   UNL     1       5.990   3.390  12.705  0.00  0.00    +0.000 A 
ATOM     12  C   UNL     1       5.991   3.834  14.030  0.00  0.00    +0.000 A 
ENDBRANCH   4   7
ENDBRANCH   1   2
BRANCH   1  13
ATOM     13  O   UNL     1       4.757   5.628  19.574  0.00  0.00    +0.000 OA
BRANCH  13  19
ATOM     14  C   UNL     1       3.471   0.933  18.645  0.00  0.00    +0.000 C 
ATOM     15  C   UNL     1       3.198   2.407  18.581  0.00  0.00    +0.000 A 
ATOM     16  C   UNL     1       2.046   2.892  17.964  0.00  0.00    +0.000 A 
ATOM     17  C   UNL     1       1.803   4.265  17.909  0.00  0.00    +0.000 A 
ATOM     18  C   UNL     1       2.706   5.191  18.462  0.00  0.00    +0.000 A 
ATOM     19  C   UNL     1       3.893   4.700  19.051  0.00  0.00    +0.000 A 
ATOM     20  C   UNL     1       4.111   3.317  19.132  0.00  0.00    +0.000 A 
BRANCH  18  21
ATOM     21  C   UNL     1       2.423   6.689  18.380  0.00  0.00    +0.000 C 
ATOM     22  C   UNL     1       2.222   7.269  19.782  0.00  0.00    +0.000 C 
ATOM     23  C   UNL     1       3.500   7.491  17.634  0.00  0.00    +0.000 C 
ENDBRANCH  18  21
ENDBRANCH  13  19
ENDBRANCH   1  13
TORSDOF 5
ENDMDL
MODEL 5
REMARK VINA RESULT:      -7.4      3.574      8.266
REMARK  Name = 
REMARK  8 active torsions:
REMARK  status: ('A' for Active; 'I' for Inactive)
REMARK    1  A    between atoms: C_1  and  C_2
REMARK    2  A    between atoms: C_5  and  C_6
REMARK    3  A    between atoms: C_6  and  C_7
REMARK    4  A    between atoms: C_6  and  C_8
REMARK    5  A    between atoms: C_9  and  O_10
REMARK    6  A    between atoms: O_10  and  C_11
REMARK    7  A    between atoms: C_11  and  C_12
REMARK    8  A    between atoms: N_14  and  C_15
REMARK                            x       y       z     vdW  Elec       q    Type
REMARK                         _______ _______ _______ _____ _____    ______ ____
ROOT
ATOM      1  C   UNL     1       5.800   5.115  19.015  0.00  0.00    +0.000 C 
ENDROOT
BRANCH   1   2
ATOM      2  C   UNL     1       6.327   5.242  17.625  0.00  0.00    +0.000 A 
ATOM      3  C   UNL     1       5.948   4.567  16.485  0.00  0.00    +0.000 A 
ATOM      4  N   UNL     1       6.771   5.044  15.490  0.00  0.00    +0.000 N 
ATOM      5  N   UNL     1       7.620   5.958  16.020  0.00  0.00    +0.000 NA
ATOM      6  N   UNL     1       7.358   6.083  17.315  0.00  0.00    +0.000 NA
BRANCH   4   7
ATOM      7  C   UNL     1       6.809   4.674  14.118  0.00  0.00    +0.000 A 
ATOM      8  C   UNL     1       7.687   5.307  13.225  0.00  0.00    +0.000 A 
ATOM      9  C   UNL     1       7.707   4.937  11.878  0.00  0.00    +0.000 A 
ATOM     10  C   UNL     1       6.857   3.936  11.413  0.00  0.00    +0.000 A 
ATOM     11  C   UNL     1       5.983   3.301  12.293  0.00  0.00    +0.000 A 
ATOM     12  C   UNL     1       5.956   3.666  13.642  0.00  0.00    +0.000 A 
ENDBRANCH   4   7
ENDBRANCH   1   2
BRANCH   1  13
ATOM     13  O   UNL     1       4.539   4.437  19.066  0.00  0.00    +0.000 OA
BRANCH  13  19
ATOM     14  C   UNL     1       1.892   8.612  19.411  0.00  0.00    +0.000 C 
ATOM     15  C   UNL     1       2.096   7.158  19.716  0.00  0.00    +0.000 A 
ATOM     16  C   UNL     1       1.179   6.458  20.500  0.00  0.00    +0.000 A 
ATOM     17  C   UNL     1       1.380   5.106  20.778  0.00  0.00    +0.000 A 
ATOM     18  C   UNL     1       2.502   4.416  20.287  0.00  0.00    +0.000 A 
ATOM     19  C   UNL     1       3.451   5.136  19.525  0.00  0.00    +0.000 A 
ATOM     20  C   UNL     1       3.222   6.485  19.222  0.00  0.00    +0.000 A 
BRANCH  18  21
ATOM     21  C   UNL     1       2.705   2.939  20.614  0.00  0.00    +0.000 C 
ATOM     22  C   UNL     1       1.911   2.559  21.866  0.00  0.00    +0.000 C 
ATOM     23  C   UNL     1       2.350   1.985  19.463  0.00  0.00    +0.000 C 
ENDBRANCH  18  21
ENDBRANCH  13  19
ENDBRANCH   1  13
TORSDOF 5
ENDMDL
MODEL 6
REMARK VINA RESULT:      -7.4      4.283      8.379
REMARK  Name = 
REMARK  8 active torsions:
REMARK  status: ('A' for Active; 'I' for Inactive)
REMARK    1  A    between atoms: C_1  and  C_2
REMARK    2  A    between atoms: C_5  and  C_6
REMARK    3  A    between atoms: C_6  and  C_7
REMARK    4  A    between atoms: C_6  and  C_8
REMARK    5  A    between atoms: C_9  and  O_10
REMARK    6  A    between atoms: O_10  and  C_11
REMARK    7  A    between atoms: C_11  and  C_12
REMARK    8  A    between atoms: N_14  and  C_15
REMARK                            x       y       z     vdW  Elec       q    Type
REMARK                         _______ _______ _______ _____ _____    ______ ____
ROOT
ATOM      1  C   UNL     1       6.943   5.422  17.840  0.00  0.00    +0.000 C 
ENDROOT
BRANCH   1   2
ATOM      2  C   UNL     1       6.908   5.172  16.369  0.00  0.00    +0.000 A 
ATOM      3  C   UNL     1       6.175   4.244  15.661  0.00  0.00    +0.000 A 
ATOM      4  N   UNL     1       6.539   4.422  14.345  0.00  0.00    +0.000 N 
ATOM      5  N   UNL     1       7.466   5.409  14.273  0.00  0.00    +0.000 NA
ATOM      6  N   UNL     1       7.696   5.869  15.497  0.00  0.00    +0.000 NA
BRANCH   4   7
ATOM      7  C   UNL     1       6.089   3.715  13.198  0.00  0.00    +0.000 A 
ATOM      8  C   UNL     1       6.968   2.914  12.454  0.00  0.00    +0.000 A 
ATOM      9  C   UNL     1       6.512   2.230  11.324  0.00  0.00    +0.000 A 
ATOM     10  C   UNL     1       5.180   2.339  10.930  0.00  0.00    +0.000 A 
ATOM     11  C   UNL     1       4.299   3.132  11.663  0.00  0.00    +0.000 A 
ATOM     12  C   UNL     1       4.748   3.818  12.795  0.00  0.00    +0.000 A 
ENDBRANCH   4   7
ENDBRANCH   1   2
BRANCH   1  13
ATOM     13  O   UNL     1       5.912   4.719  18.543  0.00  0.00    +0.000 OA
BRANCH  13  19
ATOM     14  C   UNL     1       2.658   8.380  17.784  0.00  0.00    +0.000 C 
ATOM     15  C   UNL     1       2.974   6.935  18.037  0.00  0.00    +0.000 A 
ATOM     16  C   UNL     1       1.954   5.995  18.175  0.00  0.00    +0.000 A 
ATOM     17  C   UNL     1       2.260   4.655  18.411  0.00  0.00    +0.000 A 
ATOM     18  C   UNL     1       3.591   4.216  18.522  0.00  0.00    +0.000 A 
ATOM     19  C   UNL     1       4.624   5.177  18.422  0.00  0.00    +0.000 A 
ATOM     20  C   UNL     1       4.307   6.515  18.150  0.00  0.00    +0.000 A 
BRANCH  18  21
ATOM     21  C   UNL     1       3.900   2.746  18.793  0.00  0.00    +0.000 C 
ATOM     22  C   UNL     1       3.732   2.433  20.282  0.00  0.00    +0.000 C 
ATOM     23  C   UNL     1       3.064   1.764  17.957  0.00  0.00    +0.000 C 
ENDBRANCH  18  21
ENDBRANCH  13  19
ENDBRANCH   1  13
TORSDOF 5
ENDMDL
MODEL 7
REMARK VINA RESULT:      -7.4      1.219      1.561
REMARK  Name = 
REMARK  8 active torsions:
REMARK  status: ('A' for Active; 'I' for Inactive)
REMARK    1  A    between atoms: C_1  and  C_2
REMARK    2  A    between atoms: C_5  and  C_6
REMARK    3  A    between atoms: C_6  and  C_7
REMARK    4  A    between atoms: C_6  and  C_8
REMARK    5  A    between atoms: C_9  and  O_10
REMARK    6  A    between atoms: O_10  and  C_11
REMARK    7  A    between atoms: C_11  and  C_12
REMARK    8  A    between atoms: N_14  and  C_15
REMARK                            x       y       z     vdW  Elec       q    Type
REMARK                         _______ _______ _______ _____ _____    ______ ____
ROOT
ATOM      1  C   UNL     1       2.560   7.718  18.277  0.00  0.00    +0.000 C 
ENDROOT
BRANCH   1   2
ATOM      2  C   UNL     1       1.746   8.304  19.382  0.00  0.00    +0.000 A 
ATOM      3  C   UNL     1       0.965   9.440  19.381  0.00  0.00    +0.000 A 
ATOM      4  N   UNL     1       0.463   9.535  20.659  0.00  0.00    +0.000 N 
ATOM      5  N   UNL     1       0.938   8.504  21.399  0.00  0.00    +0.000 NA
ATOM      6  N   UNL     1       1.719   7.752  20.632  0.00  0.00    +0.000 NA
BRANCH   4   7
ATOM      7  C   UNL     1      -0.394  10.530  21.202  0.00  0.00    +0.000 A 
ATOM      8  C   UNL     1      -0.655  10.584  22.580  0.00  0.00    +0.000 A 
ATOM      9  C   UNL     1      -1.505  11.564  23.097  0.00  0.00    +0.000 A 
ATOM     10  C   UNL     1      -2.099  12.496  22.249  0.00  0.00    +0.000 A 
ATOM     11  C   UNL     1      -1.845  12.451  20.879  0.00  0.00    +0.000 A 
ATOM     12  C   UNL     1      -0.995  11.474  20.354  0.00  0.00    +0.000 A 
ENDBRANCH   4   7
ENDBRANCH   1   2
BRANCH   1  13
ATOM     13  O   UNL     1       3.458   6.699  18.735  0.00  0.00    +0.000 OA
BRANCH  13  19
ATOM     14  C   UNL     1       0.657   2.610  18.779  0.00  0.00    +0.000 C 
ATOM     15  C   UNL     1       1.867   3.369  18.319  0.00  0.00    +0.000 A 
ATOM     16  C   UNL     1       2.807   2.770  17.481  0.00  0.00    +0.000 A 
ATOM     17  C   UNL     1       3.929   3.485  17.061  0.00  0.00    +0.000 A 
ATOM     18  C   UNL     1       4.147   4.813  17.468  0.00  0.00    +0.000 A 
ATOM     19  C   UNL     1       3.213   5.405  18.349  0.00  0.00    +0.000 A 
ATOM     20  C   UNL     1       2.072   4.691  18.738  0.00  0.00    +0.000 A 
BRANCH  18  21
ATOM     21  C   UNL     1       5.388   5.570  17.003  0.00  0.00    +0.000 C 
ATOM     22  C   UNL     1       6.601   4.636  16.976  0.00  0.00    +0.000 C 
ATOM     23  C   UNL     1       5.231   6.258  15.639  0.00  0.00    +0.000 C 
ENDBRANCH  18  21
ENDBRANCH  13  19
ENDBRANCH   1  13
TORSDOF 5
ENDMDL
MODEL 8
REMARK VINA RESULT:      -7.4      1.200      1.766
REMARK  Name = 
REMARK  8 active torsions:
REMARK  status: ('A' for Active; 'I' for Inactive)
REMARK    1  A    between atoms: C_1  and  C_2
REMARK    2  A    between atoms: C_5  and  C_6
REMARK    3  A    between atoms: C_6  and  C_7
REMARK    4  A    between atoms: C_6  and  C_8
REMARK    5  A    between atoms: C_9  and  O_10
REMARK    6  A    between atoms: O_10  and  C_11
REMARK    7  A    between atoms: C_11  and  C_12
REMARK    8  A    between atoms: N_14  and  C_15
REMARK                            x       y       z     vdW  Elec       q    Type
REMARK                         _______ _______ _______ _____ _____    ______ ____
ROOT
ATOM      1  C   UNL     1       2.529   7.738  18.166  0.00  0.00    +0.000 C 
ENDROOT
BRANCH   1   2
ATOM      2  C   UNL     1       1.754   8.315  19.302  0.00  0.00    +0.000 A 
ATOM      3  C   UNL     1       0.937   9.426  19.326  0.00  0.00    +0.000 A 
ATOM      4  N   UNL     1       0.498   9.525  20.626  0.00  0.00    +0.000 N 
ATOM      5  N   UNL     1       1.043   8.521  21.356  0.00  0.00    +0.000 NA
ATOM      6  N   UNL     1       1.807   7.783  20.560  0.00  0.00    +0.000 NA
BRANCH   4   7
ATOM      7  C   UNL     1      -0.362  10.502  21.198  0.00  0.00    +0.000 A 
ATOM      8  C   UNL     1      -0.921  11.520  20.411  0.00  0.00    +0.000 A 
ATOM      9  C   UNL     1      -1.759  12.476  20.990  0.00  0.00    +0.000 A 
ATOM     10  C   UNL     1      -2.047  12.424  22.352  0.00  0.00    +0.000 A 
ATOM     11  C   UNL     1      -1.497  11.416  23.141  0.00  0.00    +0.000 A 
ATOM     12  C   UNL     1      -0.658  10.455  22.570  0.00  0.00    +0.000 A 
ENDBRANCH   4   7
ENDBRANCH   1   2
BRANCH   1  13
ATOM     13  O   UNL     1       3.474   6.748  18.591  0.00  0.00    +0.000 OA
BRANCH  13  19
ATOM     14  C   UNL     1       0.681   2.657  18.765  0.00  0.00    +0.000 C 
ATOM     15  C   UNL     1       1.891   3.401  18.284  0.00  0.00    +0.000 A 
ATOM     16  C   UNL     1       2.837   2.776  17.472  0.00  0.00    +0.000 A 
ATOM     17  C   UNL     1       3.960   3.478  17.032  0.00  0.00    +0.000 A 
ATOM     18  C   UNL     1       4.173   4.820  17.394  0.00  0.00    +0.000 A 
ATOM     19  C   UNL     1       3.234   5.441  18.249  0.00  0.00    +0.000 A 
ATOM     20  C   UNL     1       2.092   4.737  18.658  0.00  0.00    +0.000 A 
BRANCH  18  21
ATOM     21  C   UNL     1       5.414   5.563  16.908  0.00  0.00    +0.000 C 
ATOM     22  C   UNL     1       6.598   4.599  16.791  0.00  0.00    +0.000 C 
ATOM     23  C   UNL     1       5.220   6.313  15.582  0.00  0.00    +0.000 C 
ENDBRANCH  18  21
ENDBRANCH  13  19
ENDBRANCH   1  13
TORSDOF 5
ENDMDL
MODEL 9
REMARK VINA RESULT:      -7.3      1.192      1.223
REMARK  Name = 
REMARK  8 active torsions:
REMARK  status: ('A' for Active; 'I' for Inactive)
REMARK    1  A    between atoms: C_1  and  C_2
REMARK    2  A    between atoms: C_5  and  C_6
REMARK    3  A    between atoms: C_6  and  C_7
REMARK    4  A    between atoms: C_6  and  C_8
REMARK    5  A    between atoms: C_9  and  O_10
REMARK    6  A    between atoms: O_10  and  C_11
REMARK    7  A    between atoms: C_11  and  C_12
REMARK    8  A    between atoms: N_14  and  C_15
REMARK                            x       y       z     vdW  Elec       q    Type
REMARK                         _______ _______ _______ _____ _____    ______ ____
ROOT
ATOM      1  C   UNL     1       3.214   7.110  18.007  0.00  0.00    +0.000 C 
ENDROOT
BRANCH   1   2
ATOM      2  C   UNL     1       2.273   8.111  18.588  0.00  0.00    +0.000 A 
ATOM      3  C   UNL     1       1.844   8.250  19.891  0.00  0.00    +0.000 A 
ATOM      4  N   UNL     1       0.964   9.308  19.873  0.00  0.00    +0.000 N 
ATOM      5  N   UNL     1       0.860   9.774  18.604  0.00  0.00    +0.000 NA
ATOM      6  N   UNL     1       1.650   9.052  17.818  0.00  0.00    +0.000 NA
BRANCH   4   7
ATOM      7  C   UNL     1       0.226   9.866  20.952  0.00  0.00    +0.000 A 
ATOM      8  C   UNL     1       0.168   9.219  22.195  0.00  0.00    +0.000 A 
ATOM      9  C   UNL     1      -0.568   9.776  23.244  0.00  0.00    +0.000 A 
ATOM     10  C   UNL     1      -1.248  10.978  23.062  0.00  0.00    +0.000 A 
ATOM     11  C   UNL     1      -1.195  11.628  21.830  0.00  0.00    +0.000 A 
ATOM     12  C   UNL     1      -0.461  11.078  20.776  0.00  0.00    +0.000 A 
ENDBRANCH   4   7
ENDBRANCH   1   2
BRANCH   1  13
ATOM     13  O   UNL     1       2.589   5.844  17.761  0.00  0.00    +0.000 OA
BRANCH  13  19
ATOM     14  C   UNL     1       1.354   2.780  21.456  0.00  0.00    +0.000 C 
ATOM     15  C   UNL     1       2.322   3.259  20.415  0.00  0.00    +0.000 A 
ATOM     16  C   UNL     1       3.578   2.667  20.283  0.00  0.00    +0.000 A 
ATOM     17  C   UNL     1       4.471   3.122  19.312  0.00  0.00    +0.000 A 
ATOM     18  C   UNL     1       4.138   4.183  18.451  0.00  0.00    +0.000 A 
ATOM     19  C   UNL     1       2.881   4.807  18.612  0.00  0.00    +0.000 A 
ATOM     20  C   UNL     1       1.978   4.320  19.567  0.00  0.00    +0.000 A 
BRANCH  18  21
ATOM     21  C   UNL     1       5.137   4.669  17.404  0.00  0.00    +0.000 C 
ATOM     22  C   UNL     1       6.539   4.765  18.012  0.00  0.00    +0.000 C 
ATOM     23  C   UNL     1       5.180   3.813  16.129  0.00  0.00    +0.000 C 
ENDBRANCH  18  21
ENDBRANCH  13  19
ENDBRANCH   1  13
TORSDOF 5
ENDMDL
