MODEL 1
REMARK VINA RESULT:      -7.1      0.000      0.000
REMARK  Name = 
REMARK  8 active torsions:
REMARK  status: ('A' for Active; 'I' for Inactive)
REMARK    1  A    between atoms: C_1  and  N_2
REMARK    2  A    between atoms: N_2  and  C_3
REMARK    3  A    between atoms: C_3  and  C_4
REMARK    4  A    between atoms: N_8  and  C_9
REMARK    5  A    between atoms: N_12  and  C_13
REMARK    6  A    between atoms: C_13  and  C_14
REMARK    7  A    between atoms: C_17  and  C_18
REMARK    8  A    between atoms: C_18  and  O_19
REMARK                            x       y       z     vdW  Elec       q    Type
REMARK                         _______ _______ _______ _____ _____    ______ ____
ROOT
ATOM      1  C   UNL     1       4.061   7.024  17.426  0.00  0.00    +0.000 C 
ATOM      2  N   UNL     1       4.240   6.094  18.527  0.00  0.00    +0.000 N 
ATOM      3  C   UNL     1       3.123   5.832  19.300  0.00  0.00    +0.000 C 
ATOM      4  O   UNL     1       2.031   6.339  19.066  0.00  0.00    +0.000 OA
ATOM      5  N   UNL     1       3.317   4.938  20.321  0.00  0.00    +0.000 N 
ATOM      6  H   UNL     1       4.208   5.052  20.786  0.00  0.00    +0.000 HD
ENDROOT
BRANCH   2   7
ATOM      7  C   UNL     1       5.541   5.453  18.670  0.00  0.00    +0.000 C 
BRANCH   7   8
ATOM      8  C   UNL     1       6.175   5.244  17.336  0.00  0.00    +0.000 A 
ATOM      9  C   UNL     1       6.008   4.274  16.366  0.00  0.00    +0.000 A 
ATOM     10  C   UNL     1       6.890   4.625  15.332  0.00  0.00    +0.000 A 
ATOM     11  N   UNL     1       7.569   5.740  15.608  0.00  0.00    +0.000 NA
ATOM     12  N   UNL     1       7.131   6.093  16.829  0.00  0.00    +0.000 N 
ATOM     13  C   UNL     1       7.662   7.289  17.442  0.00  0.00    +0.000 C 
ENDBRANCH   7   8
ENDBRANCH   2   7
BRANCH   5  14
ATOM     14  C   UNL     1       2.219   4.571  21.197  0.00  0.00    +0.000 C 
BRANCH  14  15
ATOM     15  C   UNL     1       1.586   3.192  20.935  0.00  0.00    +0.000 C 
ATOM     16  C   UNL     1       0.468   3.204  19.898  0.00  0.00    +0.000 C 
ATOM     17  C   UNL     1       1.176   2.843  18.617  0.00  0.00    +0.000 C 
ATOM     18  C   UNL     1       2.248   1.886  19.099  0.00  0.00    +0.000 C 
ATOM     19  O   UNL     1       2.625   2.331  20.417  0.00  0.00    +0.000 OA
BRANCH  18  20
ATOM     20  C   UNL     1       3.489   1.882  18.210  0.00  0.00    +0.000 C 
BRANCH  20  21
ATOM     21  O   UNL     1       4.630   2.298  18.959  0.00  0.00    +0.000 OA
ATOM     22  H   UNL     1       4.280   2.875  19.665  0.00  0.00    +0.000 HD
ENDBRANCH  20  21
ENDBRANCH  18  20
ENDBRANCH  14  15
ENDBRANCH   5  14
TORSDOF 6
ENDMDL
MODEL 2
REMARK VINA RESULT:      -6.5      1.356      2.710
REMARK  Name = 
REMARK  8 active torsions:
REMARK  status: ('A' for Active; 'I' for Inactive)
REMARK    1  A    between atoms: C_1  and  N_2
REMARK    2  A    between atoms: N_2  and  C_3
REMARK    3  A    between atoms: C_3  and  C_4
REMARK    4  A    between atoms: N_8  and  C_9
REMARK    5  A    between atoms: N_12  and  C_13
REMARK    6  A    between atoms: C_13  and  C_14
REMARK    7  A    between atoms: C_17  and  C_18
REMARK    8  A    between atoms: C_18  and  O_19
REMARK                            x       y       z     vdW  Elec       q    Type
REMARK                         _______ _______ _______ _____ _____    ______ ____
ROOT
ATOM      1  C   UNL     1       6.489   5.082  19.377  0.00  0.00    +0.000 C 
ATOM      2  N   UNL     1       5.319   4.688  18.612  0.00  0.00    +0.000 N 
ATOM      3  C   UNL     1       4.620   3.589  19.077  0.00  0.00    +0.000 C 
ATOM      4  O   UNL     1       4.951   2.984  20.091  0.00  0.00    +0.000 OA
ATOM      5  N   UNL     1       3.511   3.251  18.346  0.00  0.00    +0.000 N 
ATOM      6  H   UNL     1       3.648   3.346  17.349  0.00  0.00    +0.000 HD
ENDROOT
BRANCH   2   7
ATOM      7  C   UNL     1       4.931   5.525  17.483  0.00  0.00    +0.000 C 
BRANCH   7   8
ATOM      8  C   UNL     1       5.806   5.259  16.305  0.00  0.00    +0.000 A 
ATOM      9  C   UNL     1       5.721   4.351  15.265  0.00  0.00    +0.000 A 
ATOM     10  C   UNL     1       6.849   4.594  14.466  0.00  0.00    +0.000 A 
ATOM     11  N   UNL     1       7.601   5.585  14.946  0.00  0.00    +0.000 NA
ATOM     12  N   UNL     1       6.960   5.967  16.064  0.00  0.00    +0.000 N 
ATOM     13  C   UNL     1       7.508   7.052  16.846  0.00  0.00    +0.000 C 
ENDBRANCH   7   8
ENDBRANCH   2   7
BRANCH   5  14
ATOM     14  C   UNL     1       2.686   2.122  18.739  0.00  0.00    +0.000 C 
BRANCH  14  15
ATOM     15  C   UNL     1       1.428   2.466  19.558  0.00  0.00    +0.000 C 
ATOM     16  C   UNL     1       1.588   2.271  21.062  0.00  0.00    +0.000 C 
ATOM     17  C   UNL     1       1.977   3.642  21.553  0.00  0.00    +0.000 C 
ATOM     18  C   UNL     1       1.206   4.551  20.616  0.00  0.00    +0.000 C 
ATOM     19  O   UNL     1       1.146   3.869  19.348  0.00  0.00    +0.000 OA
BRANCH  18  20
ATOM     20  C   UNL     1       1.878   5.906  20.411  0.00  0.00    +0.000 C 
BRANCH  20  21
ATOM     21  O   UNL     1       2.132   6.123  19.024  0.00  0.00    +0.000 OA
ATOM     22  H   UNL     1       1.891   7.055  18.858  0.00  0.00    +0.000 HD
ENDBRANCH  20  21
ENDBRANCH  18  20
ENDBRANCH  14  15
ENDBRANCH   5  14
TORSDOF 6
ENDMDL
MODEL 3
REMARK VINA RESULT:      -6.4      1.071      1.601
REMARK  Name = 
REMARK  8 active torsions:
REMARK  status: ('A' for Active; 'I' for Inactive)
REMARK    1  A    between atoms: C_1  and  N_2
REMARK    2  A    between atoms: N_2  and  C_3
REMARK    3  A    between atoms: C_3  and  C_4
REMARK    4  A    between atoms: N_8  and  C_9
REMARK    5  A    between atoms: N_12  and  C_13
REMARK    6  A    between atoms: C_13  and  C_14
REMARK    7  A    between atoms: C_17  and  C_18
REMARK    8  A    between atoms: C_18  and  O_19
REMARK                            x       y       z     vdW  Elec       q    Type
REMARK                         _______ _______ _______ _____ _____    ______ ____
ROOT
ATOM      1  C   UNL     1       3.827   7.863  17.289  0.00  0.00    +0.000 C 
ATOM      2  N   UNL     1       3.745   6.519  17.835  0.00  0.00    +0.000 N 
ATOM      3  C   UNL     1       3.076   6.383  19.038  0.00  0.00    +0.000 C 
ATOM      4  O   UNL     1       2.561   7.337  19.612  0.00  0.00    +0.000 OA
ATOM      5  N   UNL     1       3.000   5.103  19.521  0.00  0.00    +0.000 N 
ATOM      6  H   UNL     1       3.850   4.573  19.381  0.00  0.00    +0.000 HD
ENDROOT
BRANCH   2   7
ATOM      7  C   UNL     1       4.288   5.427  17.037  0.00  0.00    +0.000 C 
BRANCH   7   8
ATOM      8  C   UNL     1       5.724   5.197  17.369  0.00  0.00    +0.000 A 
ATOM      9  C   UNL     1       6.477   5.469  18.497  0.00  0.00    +0.000 A 
ATOM     10  C   UNL     1       7.771   5.015  18.199  0.00  0.00    +0.000 A 
ATOM     11  N   UNL     1       7.849   4.483  16.979  0.00  0.00    +0.000 NA
ATOM     12  N   UNL     1       6.603   4.612  16.488  0.00  0.00    +0.000 N 
ATOM     13  C   UNL     1       6.323   4.120  15.159  0.00  0.00    +0.000 C 
ENDBRANCH   7   8
ENDBRANCH   2   7
BRANCH   5  14
ATOM     14  C   UNL     1       2.313   4.826  20.771  0.00  0.00    +0.000 C 
BRANCH  14  15
ATOM     15  C   UNL     1       1.847   3.373  20.970  0.00  0.00    +0.000 C 
ATOM     16  C   UNL     1       0.531   3.037  20.277  0.00  0.00    +0.000 C 
ATOM     17  C   UNL     1       0.970   2.450  18.959  0.00  0.00    +0.000 C 
ATOM     18  C   UNL     1       2.253   1.736  19.335  0.00  0.00    +0.000 C 
ATOM     19  O   UNL     1       2.854   2.512  20.391  0.00  0.00    +0.000 OA
BRANCH  18  20
ATOM     20  C   UNL     1       3.242   1.635  18.177  0.00  0.00    +0.000 C 
BRANCH  20  21
ATOM     21  O   UNL     1       4.293   0.728  18.508  0.00  0.00    +0.000 OA
ATOM     22  H   UNL     1       4.935   0.797  17.775  0.00  0.00    +0.000 HD
ENDBRANCH  20  21
ENDBRANCH  18  20
ENDBRANCH  14  15
ENDBRANCH   5  14
TORSDOF 6
ENDMDL
MODEL 4
REMARK VINA RESULT:      -6.3      2.297      5.511
REMARK  Name = 
REMARK  8 active torsions:
REMARK  status: ('A' for Active; 'I' for Inactive)
REMARK    1  A    between atoms: C_1  and  N_2
REMARK    2  A    between atoms: N_2  and  C_3
REMARK    3  A    between atoms: C_3  and  C_4
REMARK    4  A    between atoms: N_8  and  C_9
REMARK    5  A    between atoms: N_12  and  C_13
REMARK    6  A    between atoms: C_13  and  C_14
REMARK    7  A    between atoms: C_17  and  C_18
REMARK    8  A    between atoms: C_18  and  O_19
REMARK                            x       y       z     vdW  Elec       q    Type
REMARK                         _______ _______ _______ _____ _____    ______ ____
ROOT
ATOM      1  C   UNL     1       1.170   4.194  19.484  0.00  0.00    +0.000 C 
ATOM      2  N   UNL     1       2.504   4.615  19.093  0.00  0.00    +0.000 N 
ATOM      3  C   UNL     1       3.088   3.921  18.049  0.00  0.00    +0.000 C 
ATOM      4  O   UNL     1       2.511   3.008  17.466  0.00  0.00    +0.000 OA
ATOM      5  N   UNL     1       4.338   4.351  17.689  0.00  0.00    +0.000 N 
ATOM      6  H   UNL     1       4.915   4.603  18.481  0.00  0.00    +0.000 HD
ENDROOT
BRANCH   2   7
ATOM      7  C   UNL     1       3.074   5.777  19.763  0.00  0.00    +0.000 C 
BRANCH   7   8
ATOM      8  C   UNL     1       2.617   7.038  19.111  0.00  0.00    +0.000 A 
ATOM      9  C   UNL     1       2.832   7.568  17.852  0.00  0.00    +0.000 A 
ATOM     10  C   UNL     1       2.134   8.786  17.838  0.00  0.00    +0.000 A 
ATOM     11  N   UNL     1       1.511   9.022  18.993  0.00  0.00    +0.000 NA
ATOM     12  N   UNL     1       1.824   7.959  19.754  0.00  0.00    +0.000 N 
ATOM     13  C   UNL     1       1.295   7.883  21.097  0.00  0.00    +0.000 C 
ENDBRANCH   7   8
ENDBRANCH   2   7
BRANCH   5  14
ATOM     14  C   UNL     1       5.053   3.711  16.599  0.00  0.00    +0.000 C 
BRANCH  14  15
ATOM     15  C   UNL     1       6.387   4.365  16.197  0.00  0.00    +0.000 C 
ATOM     16  C   UNL     1       6.262   5.819  15.755  0.00  0.00    +0.000 C 
ATOM     17  C   UNL     1       6.551   6.594  17.016  0.00  0.00    +0.000 C 
ATOM     18  C   UNL     1       7.575   5.716  17.708  0.00  0.00    +0.000 C 
ATOM     19  O   UNL     1       7.241   4.357  17.364  0.00  0.00    +0.000 OA
BRANCH  18  20
ATOM     20  C   UNL     1       7.554   5.856  19.227  0.00  0.00    +0.000 C 
BRANCH  20  21
ATOM     21  O   UNL     1       6.579   4.977  19.787  0.00  0.00    +0.000 OA
ATOM     22  H   UNL     1       6.488   5.252  20.720  0.00  0.00    +0.000 HD
ENDBRANCH  20  21
ENDBRANCH  18  20
ENDBRANCH  14  15
ENDBRANCH   5  14
TORSDOF 6
ENDMDL
MODEL 5
REMARK VINA RESULT:      -6.0      1.470      1.969
REMARK  Name = 
REMARK  8 active torsions:
REMARK  status: ('A' for Active; 'I' for Inactive)
REMARK    1  A    between atoms: C_1  and  N_2
REMARK    2  A    between atoms: N_2  and  C_3
REMARK    3  A    between atoms: C_3  and  C_4
REMARK    4  A    between atoms: N_8  and  C_9
REMARK    5  A    between atoms: N_12  and  C_13
REMARK    6  A    between atoms: C_13  and  C_14
REMARK    7  A    between atoms: C_17  and  C_18
REMARK    8  A    between atoms: C_18  and  O_19
REMARK                            x       y       z     vdW  Elec       q    Type
REMARK                         _______ _______ _______ _____ _____    ______ ____
ROOT
ATOM      1  C   UNL     1       2.841   8.223  17.743  0.00  0.00    +0.000 C 
ATOM      2  N   UNL     1       3.254   6.913  18.215  0.00  0.00    +0.000 N 
ATOM      3  C   UNL     1       2.747   6.510  19.437  0.00  0.00    +0.000 C 
ATOM      4  O   UNL     1       1.974   7.207  20.087  0.00  0.00    +0.000 OA
ATOM      5  N   UNL     1       3.139   5.264  19.850  0.00  0.00    +0.000 N 
ATOM      6  H   UNL     1       4.108   5.063  19.642  0.00  0.00    +0.000 HD
ENDROOT
BRANCH   2   7
ATOM      7  C   UNL     1       4.086   6.104  17.334  0.00  0.00    +0.000 C 
BRANCH   7   8
ATOM      8  C   UNL     1       5.530   6.415  17.541  0.00  0.00    +0.000 A 
ATOM      9  C   UNL     1       6.338   7.440  17.086  0.00  0.00    +0.000 A 
ATOM     10  C   UNL     1       7.608   7.182  17.627  0.00  0.00    +0.000 A 
ATOM     11  N   UNL     1       7.618   6.081  18.380  0.00  0.00    +0.000 NA
ATOM     12  N   UNL     1       6.355   5.625  18.307  0.00  0.00    +0.000 N 
ATOM     13  C   UNL     1       6.005   4.424  19.030  0.00  0.00    +0.000 C 
ENDBRANCH   7   8
ENDBRANCH   2   7
BRANCH   5  14
ATOM     14  C   UNL     1       2.665   4.721  21.111  0.00  0.00    +0.000 C 
BRANCH  14  15
ATOM     15  C   UNL     1       2.375   3.210  21.122  0.00  0.00    +0.000 C 
ATOM     16  C   UNL     1       0.900   2.855  20.970  0.00  0.00    +0.000 C 
ATOM     17  C   UNL     1       0.748   2.618  19.489  0.00  0.00    +0.000 C 
ATOM     18  C   UNL     1       2.091   2.017  19.119  0.00  0.00    +0.000 C 
ATOM     19  O   UNL     1       3.062   2.629  19.990  0.00  0.00    +0.000 OA
BRANCH  18  20
ATOM     20  C   UNL     1       2.489   2.291  17.671  0.00  0.00    +0.000 C 
BRANCH  20  21
ATOM     21  O   UNL     1       2.024   3.579  17.270  0.00  0.00    +0.000 OA
ATOM     22  H   UNL     1       2.686   4.212  17.610  0.00  0.00    +0.000 HD
ENDBRANCH  20  21
ENDBRANCH  18  20
ENDBRANCH  14  15
ENDBRANCH   5  14
TORSDOF 6
ENDMDL
MODEL 6
REMARK VINA RESULT:      -6.0      1.777      2.669
REMARK  Name = 
REMARK  8 active torsions:
REMARK  status: ('A' for Active; 'I' for Inactive)
REMARK    1  A    between atoms: C_1  and  N_2
REMARK    2  A    between atoms: N_2  and  C_3
REMARK    3  A    between atoms: C_3  and  C_4
REMARK    4  A    between atoms: N_8  and  C_9
REMARK    5  A    between atoms: N_12  and  C_13
REMARK    6  A    between atoms: C_13  and  C_14
REMARK    7  A    between atoms: C_17  and  C_18
REMARK    8  A    between atoms: C_18  and  O_19
REMARK                            x       y       z     vdW  Elec       q    Type
REMARK                         _______ _______ _______ _____ _____    ______ ____
ROOT
ATOM      1  C   UNL     1       5.917   3.985  15.420  0.00  0.00    +0.000 C 
ATOM      2  N   UNL     1       5.184   4.916  16.260  0.00  0.00    +0.000 N 
ATOM      3  C   UNL     1       3.994   4.458  16.795  0.00  0.00    +0.000 C 
ATOM      4  O   UNL     1       3.580   3.321  16.593  0.00  0.00    +0.000 OA
ATOM      5  N   UNL     1       3.333   5.351  17.597  0.00  0.00    +0.000 N 
ATOM      6  H   UNL     1       3.370   6.301  17.250  0.00  0.00    +0.000 HD
ENDROOT
BRANCH   2   7
ATOM      7  C   UNL     1       5.798   6.209  16.538  0.00  0.00    +0.000 C 
BRANCH   7   8
ATOM      8  C   UNL     1       6.719   6.113  17.708  0.00  0.00    +0.000 A 
ATOM      9  C   UNL     1       6.942   5.116  18.640  0.00  0.00    +0.000 A 
ATOM     10  C   UNL     1       7.935   5.621  19.494  0.00  0.00    +0.000 A 
ATOM     11  N   UNL     1       8.330   6.844  19.138  0.00  0.00    +0.000 NA
ATOM     12  N   UNL     1       7.575   7.129  18.062  0.00  0.00    +0.000 N 
ATOM     13  C   UNL     1       7.753   8.402  17.403  0.00  0.00    +0.000 C 
ENDBRANCH   7   8
ENDBRANCH   2   7
BRANCH   5  14
ATOM     14  C   UNL     1       2.077   4.986  18.228  0.00  0.00    +0.000 C 
BRANCH  14  15
ATOM     15  C   UNL     1       2.115   4.842  19.761  0.00  0.00    +0.000 C 
ATOM     16  C   UNL     1       1.079   3.877  20.325  0.00  0.00    +0.000 C 
ATOM     17  C   UNL     1       1.835   2.577  20.436  0.00  0.00    +0.000 C 
ATOM     18  C   UNL     1       3.235   3.047  20.780  0.00  0.00    +0.000 C 
ATOM     19  O   UNL     1       3.414   4.311  20.113  0.00  0.00    +0.000 OA
BRANCH  18  20
ATOM     20  C   UNL     1       4.321   2.085  20.306  0.00  0.00    +0.000 C 
BRANCH  20  21
ATOM     21  O   UNL     1       4.258   1.934  18.889  0.00  0.00    +0.000 OA
ATOM     22  H   UNL     1       4.754   1.115  18.693  0.00  0.00    +0.000 HD
ENDBRANCH  20  21
ENDBRANCH  18  20
ENDBRANCH  14  15
ENDBRANCH   5  14
TORSDOF 6
ENDMDL
MODEL 7
REMARK VINA RESULT:      -6.0      1.725      2.782
REMARK  Name = 
REMARK  8 active torsions:
REMARK  status: ('A' for Active; 'I' for Inactive)
REMARK    1  A    between atoms: C_1  and  N_2
REMARK    2  A    between atoms: N_2  and  C_3
REMARK    3  A    between atoms: C_3  and  C_4
REMARK    4  A    between atoms: N_8  and  C_9
REMARK    5  A    between atoms: N_12  and  C_13
REMARK    6  A    between atoms: C_13  and  C_14
REMARK    7  A    between atoms: C_17  and  C_18
REMARK    8  A    between atoms: C_18  and  O_19
REMARK                            x       y       z     vdW  Elec       q    Type
REMARK                         _______ _______ _______ _____ _____    ______ ____
ROOT
ATOM      1  C   UNL     1       3.559   7.443  17.788  0.00  0.00    +0.000 C 
ATOM      2  N   UNL     1       3.975   6.102  17.416  0.00  0.00    +0.000 N 
ATOM      3  C   UNL     1       3.047   5.094  17.610  0.00  0.00    +0.000 C 
ATOM      4  O   UNL     1       1.924   5.314  18.053  0.00  0.00    +0.000 OA
ATOM      5  N   UNL     1       3.459   3.842  17.234  0.00  0.00    +0.000 N 
ATOM      6  H   UNL     1       4.426   3.656  17.465  0.00  0.00    +0.000 HD
ENDROOT
BRANCH   2   7
ATOM      7  C   UNL     1       5.284   5.943  16.796  0.00  0.00    +0.000 C 
BRANCH   7   8
ATOM      8  C   UNL     1       6.354   5.883  17.832  0.00  0.00    +0.000 A 
ATOM      9  C   UNL     1       6.672   4.939  18.792  0.00  0.00    +0.000 A 
ATOM     10  C   UNL     1       7.790   5.454  19.465  0.00  0.00    +0.000 A 
ATOM     11  N   UNL     1       8.172   6.634  18.975  0.00  0.00    +0.000 NA
ATOM     12  N   UNL     1       7.285   6.882  17.995  0.00  0.00    +0.000 N 
ATOM     13  C   UNL     1       7.412   8.101  17.231  0.00  0.00    +0.000 C 
ENDBRANCH   7   8
ENDBRANCH   2   7
BRANCH   5  14
ATOM     14  C   UNL     1       2.572   2.701  17.376  0.00  0.00    +0.000 C 
BRANCH  14  15
ATOM     15  C   UNL     1       2.810   1.819  18.615  0.00  0.00    +0.000 C 
ATOM     16  C   UNL     1       4.188   1.984  19.246  0.00  0.00    +0.000 C 
ATOM     17  C   UNL     1       3.956   3.007  20.330  0.00  0.00    +0.000 C 
ATOM     18  C   UNL     1       2.546   2.682  20.784  0.00  0.00    +0.000 C 
ATOM     19  O   UNL     1       1.844   2.211  19.617  0.00  0.00    +0.000 OA
BRANCH  18  20
ATOM     20  C   UNL     1       1.806   3.892  21.347  0.00  0.00    +0.000 C 
BRANCH  20  21
ATOM     21  O   UNL     1       2.526   5.088  21.051  0.00  0.00    +0.000 OA
ATOM     22  H   UNL     1       3.255   5.119  21.701  0.00  0.00    +0.000 HD
ENDBRANCH  20  21
ENDBRANCH  18  20
ENDBRANCH  14  15
ENDBRANCH   5  14
TORSDOF 6
ENDMDL
MODEL 8
REMARK VINA RESULT:      -6.0      1.079      1.543
REMARK  Name = 
REMARK  8 active torsions:
REMARK  status: ('A' for Active; 'I' for Inactive)
REMARK    1  A    between atoms: C_1  and  N_2
REMARK    2  A    between atoms: N_2  and  C_3
REMARK    3  A    between atoms: C_3  and  C_4
REMARK    4  A    between atoms: N_8  and  C_9
REMARK    5  A    between atoms: N_12  and  C_13
REMARK    6  A    between atoms: C_13  and  C_14
REMARK    7  A    between atoms: C_17  and  C_18
REMARK    8  A    between atoms: C_18  and  O_19
REMARK                            x       y       z     vdW  Elec       q    Type
REMARK                         _______ _______ _______ _____ _____    ______ ____
ROOT
ATOM      1  C   UNL     1       4.293   7.191  17.270  0.00  0.00    +0.000 C 
ATOM      2  N   UNL     1       4.358   6.208  18.337  0.00  0.00    +0.000 N 
ATOM      3  C   UNL     1       3.246   6.110  19.153  0.00  0.00    +0.000 C 
ATOM      4  O   UNL     1       2.245   6.798  18.982  0.00  0.00    +0.000 OA
ATOM      5  N   UNL     1       3.328   5.163  20.140  0.00  0.00    +0.000 N 
ATOM      6  H   UNL     1       4.244   5.112  20.568  0.00  0.00    +0.000 HD
ENDROOT
BRANCH   2   7
ATOM      7  C   UNL     1       5.539   5.356  18.405  0.00  0.00    +0.000 C 
BRANCH   7   8
ATOM      8  C   UNL     1       6.018   5.010  17.035  0.00  0.00    +0.000 A 
ATOM      9  C   UNL     1       7.162   5.347  16.335  0.00  0.00    +0.000 A 
ATOM     10  C   UNL     1       7.037   4.710  15.090  0.00  0.00    +0.000 A 
ATOM     11  N   UNL     1       5.906   4.010  14.995  0.00  0.00    +0.000 NA
ATOM     12  N   UNL     1       5.298   4.213  16.178  0.00  0.00    +0.000 N 
ATOM     13  C   UNL     1       4.024   3.578  16.424  0.00  0.00    +0.000 C 
ENDBRANCH   7   8
ENDBRANCH   2   7
BRANCH   5  14
ATOM     14  C   UNL     1       2.220   4.954  21.056  0.00  0.00    +0.000 C 
BRANCH  14  15
ATOM     15  C   UNL     1       1.612   3.540  21.059  0.00  0.00    +0.000 C 
ATOM     16  C   UNL     1       0.630   3.279  19.922  0.00  0.00    +0.000 C 
ATOM     17  C   UNL     1       1.487   2.636  18.861  0.00  0.00    +0.000 C 
ATOM     18  C   UNL     1       2.483   1.845  19.686  0.00  0.00    +0.000 C 
ATOM     19  O   UNL     1       2.700   2.601  20.893  0.00  0.00    +0.000 OA
BRANCH  18  20
ATOM     20  C   UNL     1       3.824   1.654  18.981  0.00  0.00    +0.000 C 
BRANCH  20  21
ATOM     21  O   UNL     1       4.863   2.288  19.724  0.00  0.00    +0.000 OA
ATOM     22  H   UNL     1       4.415   2.733  20.469  0.00  0.00    +0.000 HD
ENDBRANCH  20  21
ENDBRANCH  18  20
ENDBRANCH  14  15
ENDBRANCH   5  14
TORSDOF 6
ENDMDL
MODEL 9
REMARK VINA RESULT:      -5.9      2.819      6.144
REMARK  Name = 
REMARK  8 active torsions:
REMARK  status: ('A' for Active; 'I' for Inactive)
REMARK    1  A    between atoms: C_1  and  N_2
REMARK    2  A    between atoms: N_2  and  C_3
REMARK    3  A    between atoms: C_3  and  C_4
REMARK    4  A    between atoms: N_8  and  C_9
REMARK    5  A    between atoms: N_12  and  C_13
REMARK    6  A    between atoms: C_13  and  C_14
REMARK    7  A    between atoms: C_17  and  C_18
REMARK    8  A    between atoms: C_18  and  O_19
REMARK                            x       y       z     vdW  Elec       q    Type
REMARK                         _______ _______ _______ _____ _____    ______ ____
ROOT
ATOM      1  C   UNL     1       2.203   7.165  19.474  0.00  0.00    +0.000 C 
ATOM      2  N   UNL     1       2.698   6.243  18.467  0.00  0.00    +0.000 N 
ATOM      3  C   UNL     1       3.836   6.631  17.782  0.00  0.00    +0.000 C 
ATOM      4  O   UNL     1       4.414   7.687  18.018  0.00  0.00    +0.000 OA
ATOM      5  N   UNL     1       4.290   5.734  16.851  0.00  0.00    +0.000 N 
ATOM      6  H   UNL     1       3.545   5.288  16.332  0.00  0.00    +0.000 HD
ENDROOT
BRANCH   2   7
ATOM      7  C   UNL     1       2.017   4.962  18.325  0.00  0.00    +0.000 C 
BRANCH   7   8
ATOM      8  C   UNL     1       2.069   4.193  19.602  0.00  0.00    +0.000 A 
ATOM      9  C   UNL     1       1.220   4.138  20.692  0.00  0.00    +0.000 A 
ATOM     10  C   UNL     1       1.814   3.227  21.580  0.00  0.00    +0.000 A 
ATOM     11  N   UNL     1       2.951   2.725  21.099  0.00  0.00    +0.000 NA
ATOM     12  N   UNL     1       3.095   3.330  19.906  0.00  0.00    +0.000 N 
ATOM     13  C   UNL     1       4.243   3.004  19.092  0.00  0.00    +0.000 C 
ENDBRANCH   7   8
ENDBRANCH   2   7
BRANCH   5  14
ATOM     14  C   UNL     1       5.483   6.020  16.073  0.00  0.00    +0.000 C 
BRANCH  14  15
ATOM     15  C   UNL     1       6.452   4.840  15.876  0.00  0.00    +0.000 C 
ATOM     16  C   UNL     1       5.824   3.619  15.213  0.00  0.00    +0.000 C 
ATOM     17  C   UNL     1       6.153   3.806  13.753  0.00  0.00    +0.000 C 
ATOM     18  C   UNL     1       7.511   4.476  13.812  0.00  0.00    +0.000 C 
ATOM     19  O   UNL     1       7.510   5.291  15.000  0.00  0.00    +0.000 OA
BRANCH  18  20
ATOM     20  C   UNL     1       7.790   5.369  12.605  0.00  0.00    +0.000 C 
BRANCH  20  21
ATOM     21  O   UNL     1       8.887   6.238  12.882  0.00  0.00    +0.000 OA
ATOM     22  H   UNL     1       9.187   5.999  13.781  0.00  0.00    +0.000 HD
ENDBRANCH  20  21
ENDBRANCH  18  20
ENDBRANCH  14  15
ENDBRANCH   5  14
TORSDOF 6
ENDMDL
