MODEL 1
REMARK VINA RESULT:      -8.3      0.000      0.000
REMARK  Name = 
REMARK  13 active torsions:
REMARK  status: ('A' for Active; 'I' for Inactive)
REMARK    1  A    between atoms: C_1  and  C_2
REMARK    2  A    between atoms: C_2  and  O_3
REMARK    3  A    between atoms: O_3  and  C_4
REMARK    4  A    between atoms: C_4  and  C_6
REMARK    5  A    between atoms: C_7  and  C_8
REMARK    6  A    between atoms: C_9  and  C_10
REMARK    7  A    between atoms: C_17  and  O_18
REMARK    8  A    between atoms: O_18  and  C_19
REMARK    9  A    between atoms: C_20  and  C_21
REMARK   10  A    between atoms: C_21  and  C_22
REMARK   11  A    between atoms: C_23  and  C_24
REMARK   12  A    between atoms: C_23  and  C_25
REMARK   13  A    between atoms: C_26  and  O_27
REMARK                            x       y       z     vdW  Elec       q    Type
REMARK                         _______ _______ _______ _____ _____    ______ ____
ROOT
ATOM      1  C   UNL     1       3.382   4.726  18.215  0.00  0.00    +0.000 A 
ATOM      2  C   UNL     1       3.364   6.128  18.388  0.00  0.00    +0.000 A 
ATOM      3  C   UNL     1       4.393   6.881  17.794  0.00  0.00    +0.000 A 
ATOM      4  C   UNL     1       5.406   6.294  17.027  0.00  0.00    +0.000 A 
ATOM      5  C   UNL     1       5.436   4.897  16.852  0.00  0.00    +0.000 A 
ATOM      6  C   UNL     1       4.412   4.131  17.448  0.00  0.00    +0.000 A 
ENDROOT
BRANCH   1   7
ATOM      7  C   UNL     1       2.339   3.881  18.888  0.00  0.00    +0.000 C 
ATOM      8  O   UNL     1       1.171   3.807  18.553  0.00  0.00    +0.000 OA
BRANCH   7   9
ATOM      9  O   UNL     1       2.866   3.358  20.022  0.00  0.00    +0.000 OA
BRANCH   9  11
ATOM     10  C   UNL     1       1.528   2.529  21.778  0.00  0.00    +0.000 C 
ATOM     11  C   UNL     1       2.268   3.747  21.261  0.00  0.00    +0.000 C 
ENDBRANCH   9  11
ENDBRANCH   7   9
ENDBRANCH   1   7
BRANCH   2  12
ATOM     12  C   UNL     1       2.400   6.854  19.250  0.00  0.00    +0.000 C 
ATOM     13  C   UNL     1       2.126   8.168  19.169  0.00  0.00    +0.000 C 
BRANCH  13  14
ATOM     14  C   UNL     1       1.203   8.879  20.072  0.00  0.00    +0.000 A 
ATOM     15  C   UNL     1       1.128   8.491  21.420  0.00  0.00    +0.000 A 
ATOM     16  C   UNL     1       0.267   9.147  22.304  0.00  0.00    +0.000 A 
ATOM     17  C   UNL     1      -0.520  10.205  21.856  0.00  0.00    +0.000 A 
ATOM     18  C   UNL     1      -0.440  10.614  20.526  0.00  0.00    +0.000 A 
ATOM     19  C   UNL     1       0.424   9.960  19.643  0.00  0.00    +0.000 A 
ENDBRANCH  13  14
ENDBRANCH   2  12
BRANCH   4  20
ATOM     20  O   UNL     1       6.400   7.015  16.413  0.00  0.00    +0.000 OA
ATOM     21  C   UNL     1       7.410   7.573  17.247  0.00  0.00    +0.000 C 
ENDBRANCH   4  20
BRANCH   6  22
ATOM     22  O   UNL     1       4.394   2.774  17.232  0.00  0.00    +0.000 OA
ATOM     23  H   UNL     1       5.306   2.436  17.254  0.00  0.00    +0.000 HD
ENDBRANCH   6  22
BRANCH   5  24
ATOM     24  C   UNL     1       6.531   4.245  16.019  0.00  0.00    +0.000 C 
BRANCH  24  25
ATOM     25  C   UNL     1       6.059   3.726  14.681  0.00  0.00    +0.000 C 
ATOM     26  C   UNL     1       6.518   4.058  13.454  0.00  0.00    +0.000 C 
ATOM     27  C   UNL     1       7.601   5.064  13.169  0.00  0.00    +0.000 C 
ATOM     28  C   UNL     1       6.001   3.361  12.220  0.00  0.00    +0.000 C 
ENDBRANCH  24  25
ENDBRANCH   5  24
TORSDOF 9
ENDMDL
MODEL 2
REMARK VINA RESULT:      -8.2      0.844      1.363
REMARK  Name = 
REMARK  13 active torsions:
REMARK  status: ('A' for Active; 'I' for Inactive)
REMARK    1  A    between atoms: C_1  and  C_2
REMARK    2  A    between atoms: C_2  and  O_3
REMARK    3  A    between atoms: O_3  and  C_4
REMARK    4  A    between atoms: C_4  and  C_6
REMARK    5  A    between atoms: C_7  and  C_8
REMARK    6  A    between atoms: C_9  and  C_10
REMARK    7  A    between atoms: C_17  and  O_18
REMARK    8  A    between atoms: O_18  and  C_19
REMARK    9  A    between atoms: C_20  and  C_21
REMARK   10  A    between atoms: C_21  and  C_22
REMARK   11  A    between atoms: C_23  and  C_24
REMARK   12  A    between atoms: C_23  and  C_25
REMARK   13  A    between atoms: C_26  and  O_27
REMARK                            x       y       z     vdW  Elec       q    Type
REMARK                         _______ _______ _______ _____ _____    ______ ____
ROOT
ATOM      1  C   UNL     1       3.193   5.267  17.814  0.00  0.00    +0.000 A 
ATOM      2  C   UNL     1       3.367   6.657  17.999  0.00  0.00    +0.000 A 
ATOM      3  C   UNL     1       4.576   7.235  17.572  0.00  0.00    +0.000 A 
ATOM      4  C   UNL     1       5.588   6.490  16.954  0.00  0.00    +0.000 A 
ATOM      5  C   UNL     1       5.427   5.104  16.769  0.00  0.00    +0.000 A 
ATOM      6  C   UNL     1       4.221   4.512  17.199  0.00  0.00    +0.000 A 
ENDROOT
BRANCH   1   7
ATOM      7  C   UNL     1       1.945   4.601  18.316  0.00  0.00    +0.000 C 
ATOM      8  O   UNL     1       1.043   4.179  17.616  0.00  0.00    +0.000 OA
BRANCH   7   9
ATOM      9  O   UNL     1       1.910   4.704  19.668  0.00  0.00    +0.000 OA
BRANCH   9  11
ATOM     10  C   UNL     1       1.915   3.179  21.467  0.00  0.00    +0.000 C 
ATOM     11  C   UNL     1       1.064   3.789  20.371  0.00  0.00    +0.000 C 
ENDBRANCH   9  11
ENDBRANCH   7   9
ENDBRANCH   1   7
BRANCH   2  12
ATOM     12  C   UNL     1       2.411   7.533  18.720  0.00  0.00    +0.000 C 
ATOM     13  C   UNL     1       1.857   8.651  18.220  0.00  0.00    +0.000 C 
BRANCH  13  14
ATOM     14  C   UNL     1       0.951   9.535  18.974  0.00  0.00    +0.000 A 
ATOM     15  C   UNL     1       0.238  10.531  18.289  0.00  0.00    +0.000 A 
ATOM     16  C   UNL     1      -0.634  11.383  18.973  0.00  0.00    +0.000 A 
ATOM     17  C   UNL     1      -0.813  11.242  20.346  0.00  0.00    +0.000 A 
ATOM     18  C   UNL     1      -0.128  10.243  21.035  0.00  0.00    +0.000 A 
ATOM     19  C   UNL     1       0.741   9.389  20.351  0.00  0.00    +0.000 A 
ENDBRANCH  13  14
ENDBRANCH   2  12
BRANCH   4  20
ATOM     20  O   UNL     1       6.761   7.042  16.501  0.00  0.00    +0.000 OA
ATOM     21  C   UNL     1       7.579   7.708  17.458  0.00  0.00    +0.000 C 
ENDBRANCH   4  20
BRANCH   6  22
ATOM     22  O   UNL     1       4.025   3.171  16.967  0.00  0.00    +0.000 OA
ATOM     23  H   UNL     1       3.722   2.747  17.788  0.00  0.00    +0.000 HD
ENDBRANCH   6  22
BRANCH   5  24
ATOM     24  C   UNL     1       6.518   4.282  16.097  0.00  0.00    +0.000 C 
BRANCH  24  25
ATOM     25  C   UNL     1       6.133   3.741  14.740  0.00  0.00    +0.000 C 
ATOM     26  C   UNL     1       6.600   4.127  13.531  0.00  0.00    +0.000 C 
ATOM     27  C   UNL     1       7.601   5.225  13.291  0.00  0.00    +0.000 C 
ATOM     28  C   UNL     1       6.183   3.403  12.275  0.00  0.00    +0.000 C 
ENDBRANCH  24  25
ENDBRANCH   5  24
TORSDOF 9
ENDMDL
MODEL 3
REMARK VINA RESULT:      -7.6      0.848      1.247
REMARK  Name = 
REMARK  13 active torsions:
REMARK  status: ('A' for Active; 'I' for Inactive)
REMARK    1  A    between atoms: C_1  and  C_2
REMARK    2  A    between atoms: C_2  and  O_3
REMARK    3  A    between atoms: O_3  and  C_4
REMARK    4  A    between atoms: C_4  and  C_6
REMARK    5  A    between atoms: C_7  and  C_8
REMARK    6  A    between atoms: C_9  and  C_10
REMARK    7  A    between atoms: C_17  and  O_18
REMARK    8  A    between atoms: O_18  and  C_19
REMARK    9  A    between atoms: C_20  and  C_21
REMARK   10  A    between atoms: C_21  and  C_22
REMARK   11  A    between atoms: C_23  and  C_24
REMARK   12  A    between atoms: C_23  and  C_25
REMARK   13  A    between atoms: C_26  and  O_27
REMARK                            x       y       z     vdW  Elec       q    Type
REMARK                         _______ _______ _______ _____ _____    ______ ____
ROOT
ATOM      1  C   UNL     1       3.459   4.800  19.096  0.00  0.00    +0.000 A 
ATOM      2  C   UNL     1       3.331   6.205  19.031  0.00  0.00    +0.000 A 
ATOM      3  C   UNL     1       4.209   6.911  18.188  0.00  0.00    +0.000 A 
ATOM      4  C   UNL     1       5.175   6.269  17.404  0.00  0.00    +0.000 A 
ATOM      5  C   UNL     1       5.313   4.869  17.464  0.00  0.00    +0.000 A 
ATOM      6  C   UNL     1       4.442   4.152  18.311  0.00  0.00    +0.000 A 
ENDROOT
BRANCH   1   7
ATOM      7  C   UNL     1       2.585   4.018  20.033  0.00  0.00    +0.000 C 
ATOM      8  O   UNL     1       2.983   3.296  20.929  0.00  0.00    +0.000 OA
BRANCH   7   9
ATOM      9  O   UNL     1       1.299   4.112  19.612  0.00  0.00    +0.000 OA
BRANCH   9  11
ATOM     10  C   UNL     1       0.864   1.987  18.687  0.00  0.00    +0.000 C 
ATOM     11  C   UNL     1       0.967   3.468  18.379  0.00  0.00    +0.000 C 
ENDBRANCH   9  11
ENDBRANCH   7   9
ENDBRANCH   1   7
BRANCH   2  12
ATOM     12  C   UNL     1       2.413   7.004  19.879  0.00  0.00    +0.000 C 
ATOM     13  C   UNL     1       1.886   8.194  19.541  0.00  0.00    +0.000 C 
BRANCH  13  14
ATOM     14  C   UNL     1       1.017   8.995  20.422  0.00  0.00    +0.000 A 
ATOM     15  C   UNL     1       0.973   8.701  21.793  0.00  0.00    +0.000 A 
ATOM     16  C   UNL     1       0.164   9.444  22.657  0.00  0.00    +0.000 A 
ATOM     17  C   UNL     1      -0.602  10.496  22.163  0.00  0.00    +0.000 A 
ATOM     18  C   UNL     1      -0.551  10.814  20.807  0.00  0.00    +0.000 A 
ATOM     19  C   UNL     1       0.261  10.073  19.944  0.00  0.00    +0.000 A 
ENDBRANCH  13  14
ENDBRANCH   2  12
BRANCH   4  20
ATOM     20  O   UNL     1       6.019   6.937  16.551  0.00  0.00    +0.000 OA
ATOM     21  C   UNL     1       7.159   7.568  17.125  0.00  0.00    +0.000 C 
ENDBRANCH   4  20
BRANCH   6  22
ATOM     22  O   UNL     1       4.524   2.780  18.331  0.00  0.00    +0.000 OA
ATOM     23  H   UNL     1       5.311   2.501  17.831  0.00  0.00    +0.000 HD
ENDBRANCH   6  22
BRANCH   5  24
ATOM     24  C   UNL     1       6.358   4.158  16.615  0.00  0.00    +0.000 C 
BRANCH  24  25
ATOM     25  C   UNL     1       5.859   3.735  15.253  0.00  0.00    +0.000 C 
ATOM     26  C   UNL     1       6.319   4.126  14.044  0.00  0.00    +0.000 C 
ATOM     27  C   UNL     1       7.432   5.113  13.809  0.00  0.00    +0.000 C 
ATOM     28  C   UNL     1       5.772   3.521  12.775  0.00  0.00    +0.000 C 
ENDBRANCH  24  25
ENDBRANCH   5  24
TORSDOF 9
ENDMDL
MODEL 4
REMARK VINA RESULT:      -7.6      1.172      1.446
REMARK  Name = 
REMARK  13 active torsions:
REMARK  status: ('A' for Active; 'I' for Inactive)
REMARK    1  A    between atoms: C_1  and  C_2
REMARK    2  A    between atoms: C_2  and  O_3
REMARK    3  A    between atoms: O_3  and  C_4
REMARK    4  A    between atoms: C_4  and  C_6
REMARK    5  A    between atoms: C_7  and  C_8
REMARK    6  A    between atoms: C_9  and  C_10
REMARK    7  A    between atoms: C_17  and  O_18
REMARK    8  A    between atoms: O_18  and  C_19
REMARK    9  A    between atoms: C_20  and  C_21
REMARK   10  A    between atoms: C_21  and  C_22
REMARK   11  A    between atoms: C_23  and  C_24
REMARK   12  A    between atoms: C_23  and  C_25
REMARK   13  A    between atoms: C_26  and  O_27
REMARK                            x       y       z     vdW  Elec       q    Type
REMARK                         _______ _______ _______ _____ _____    ______ ____
ROOT
ATOM      1  C   UNL     1       2.998   5.276  18.109  0.00  0.00    +0.000 A 
ATOM      2  C   UNL     1       3.069   6.686  18.055  0.00  0.00    +0.000 A 
ATOM      3  C   UNL     1       4.201   7.269  17.458  0.00  0.00    +0.000 A 
ATOM      4  C   UNL     1       5.234   6.505  16.901  0.00  0.00    +0.000 A 
ATOM      5  C   UNL     1       5.175   5.099  16.954  0.00  0.00    +0.000 A 
ATOM      6  C   UNL     1       4.047   4.504  17.555  0.00  0.00    +0.000 A 
ENDROOT
BRANCH   1   7
ATOM      7  C   UNL     1       1.837   4.617  18.796  0.00  0.00    +0.000 C 
ATOM      8  O   UNL     1       1.507   4.803  19.953  0.00  0.00    +0.000 OA
BRANCH   7   9
ATOM      9  O   UNL     1       1.330   3.662  17.978  0.00  0.00    +0.000 OA
BRANCH   9  11
ATOM     10  C   UNL     1       1.733   1.820  19.394  0.00  0.00    +0.000 C 
ATOM     11  C   UNL     1       0.672   2.553  18.597  0.00  0.00    +0.000 C 
ENDBRANCH   9  11
ENDBRANCH   7   9
ENDBRANCH   1   7
BRANCH   2  12
ATOM     12  C   UNL     1       2.087   7.600  18.688  0.00  0.00    +0.000 C 
ATOM     13  C   UNL     1       1.661   8.763  18.164  0.00  0.00    +0.000 C 
BRANCH  13  14
ATOM     14  C   UNL     1       0.725   9.681  18.836  0.00  0.00    +0.000 A 
ATOM     15  C   UNL     1       0.985  10.080  20.156  0.00  0.00    +0.000 A 
ATOM     16  C   UNL     1       0.119  10.953  20.821  0.00  0.00    +0.000 A 
ATOM     17  C   UNL     1      -1.009  11.447  20.172  0.00  0.00    +0.000 A 
ATOM     18  C   UNL     1      -1.268  11.076  18.854  0.00  0.00    +0.000 A 
ATOM     19  C   UNL     1      -0.401  10.205  18.187  0.00  0.00    +0.000 A 
ENDBRANCH  13  14
ENDBRANCH   2  12
BRANCH   4  20
ATOM     20  O   UNL     1       6.331   7.055  16.286  0.00  0.00    +0.000 OA
ATOM     21  C   UNL     1       7.345   7.598  17.126  0.00  0.00    +0.000 C 
ENDBRANCH   4  20
BRANCH   6  22
ATOM     22  O   UNL     1       3.947   3.133  17.556  0.00  0.00    +0.000 OA
ATOM     23  H   UNL     1       3.020   2.882  17.714  0.00  0.00    +0.000 HD
ENDBRANCH   6  22
BRANCH   5  24
ATOM     24  C   UNL     1       6.290   4.256  16.351  0.00  0.00    +0.000 C 
BRANCH  24  25
ATOM     25  C   UNL     1       5.982   3.725  14.970  0.00  0.00    +0.000 C 
ATOM     26  C   UNL     1       6.525   4.111  13.794  0.00  0.00    +0.000 C 
ATOM     27  C   UNL     1       7.551   5.198  13.619  0.00  0.00    +0.000 C 
ATOM     28  C   UNL     1       6.177   3.398  12.510  0.00  0.00    +0.000 C 
ENDBRANCH  24  25
ENDBRANCH   5  24
TORSDOF 9
ENDMDL
MODEL 5
REMARK VINA RESULT:      -7.4      1.557      2.033
REMARK  Name = 
REMARK  13 active torsions:
REMARK  status: ('A' for Active; 'I' for Inactive)
REMARK    1  A    between atoms: C_1  and  C_2
REMARK    2  A    between atoms: C_2  and  O_3
REMARK    3  A    between atoms: O_3  and  C_4
REMARK    4  A    between atoms: C_4  and  C_6
REMARK    5  A    between atoms: C_7  and  C_8
REMARK    6  A    between atoms: C_9  and  C_10
REMARK    7  A    between atoms: C_17  and  O_18
REMARK    8  A    between atoms: O_18  and  C_19
REMARK    9  A    between atoms: C_20  and  C_21
REMARK   10  A    between atoms: C_21  and  C_22
REMARK   11  A    between atoms: C_23  and  C_24
REMARK   12  A    between atoms: C_23  and  C_25
REMARK   13  A    between atoms: C_26  and  O_27
REMARK                            x       y       z     vdW  Elec       q    Type
REMARK                         _______ _______ _______ _____ _____    ______ ____
ROOT
ATOM      1  C   UNL     1       3.454   5.462  18.264  0.00  0.00    +0.000 A 
ATOM      2  C   UNL     1       3.417   6.862  18.074  0.00  0.00    +0.000 A 
ATOM      3  C   UNL     1       4.562   7.489  17.550  0.00  0.00    +0.000 A 
ATOM      4  C   UNL     1       5.711   6.774  17.192  0.00  0.00    +0.000 A 
ATOM      5  C   UNL     1       5.760   5.380  17.381  0.00  0.00    +0.000 A 
ATOM      6  C   UNL     1       4.620   4.742  17.912  0.00  0.00    +0.000 A 
ENDROOT
BRANCH   1   7
ATOM      7  C   UNL     1       2.276   4.766  18.883  0.00  0.00    +0.000 C 
ATOM      8  O   UNL     1       1.921   4.880  20.042  0.00  0.00    +0.000 OA
BRANCH   7   9
ATOM      9  O   UNL     1       1.786   3.866  17.995  0.00  0.00    +0.000 OA
BRANCH   9  11
ATOM     10  C   UNL     1       1.895   1.766  19.062  0.00  0.00    +0.000 C 
ATOM     11  C   UNL     1       0.957   2.822  18.513  0.00  0.00    +0.000 C 
ENDBRANCH   9  11
ENDBRANCH   7   9
ENDBRANCH   1   7
BRANCH   2  12
ATOM     12  C   UNL     1       2.296   7.736  18.498  0.00  0.00    +0.000 C 
ATOM     13  C   UNL     1       1.892   8.845  17.853  0.00  0.00    +0.000 C 
BRANCH  13  14
ATOM     14  C   UNL     1       0.810   9.728  18.322  0.00  0.00    +0.000 A 
ATOM     15  C   UNL     1      -0.444   9.670  17.692  0.00  0.00    +0.000 A 
ATOM     16  C   UNL     1      -1.493  10.491  18.115  0.00  0.00    +0.000 A 
ATOM     17  C   UNL     1      -1.307  11.369  19.179  0.00  0.00    +0.000 A 
ATOM     18  C   UNL     1      -0.074  11.422  19.827  0.00  0.00    +0.000 A 
ATOM     19  C   UNL     1       0.975  10.599  19.407  0.00  0.00    +0.000 A 
ENDBRANCH  13  14
ENDBRANCH   2  12
BRANCH   4  20
ATOM     20  O   UNL     1       6.826   7.364  16.649  0.00  0.00    +0.000 OA
ATOM     21  C   UNL     1       7.657   8.118  17.526  0.00  0.00    +0.000 C 
ENDBRANCH   4  20
BRANCH   6  22
ATOM     22  O   UNL     1       4.632   3.373  18.043  0.00  0.00    +0.000 OA
ATOM     23  H   UNL     1       4.572   3.144  18.986  0.00  0.00    +0.000 HD
ENDBRANCH   6  22
BRANCH   5  24
ATOM     24  C   UNL     1       7.004   4.591  16.995  0.00  0.00    +0.000 C 
BRANCH  24  25
ATOM     25  C   UNL     1       7.456   4.813  15.571  0.00  0.00    +0.000 C 
ATOM     26  C   UNL     1       6.776   4.545  14.434  0.00  0.00    +0.000 C 
ATOM     27  C   UNL     1       5.406   3.925  14.360  0.00  0.00    +0.000 C 
ATOM     28  C   UNL     1       7.337   4.930  13.088  0.00  0.00    +0.000 C 
ENDBRANCH  24  25
ENDBRANCH   5  24
TORSDOF 9
ENDMDL
MODEL 6
REMARK VINA RESULT:      -6.9      1.001      1.608
REMARK  Name = 
REMARK  13 active torsions:
REMARK  status: ('A' for Active; 'I' for Inactive)
REMARK    1  A    between atoms: C_1  and  C_2
REMARK    2  A    between atoms: C_2  and  O_3
REMARK    3  A    between atoms: O_3  and  C_4
REMARK    4  A    between atoms: C_4  and  C_6
REMARK    5  A    between atoms: C_7  and  C_8
REMARK    6  A    between atoms: C_9  and  C_10
REMARK    7  A    between atoms: C_17  and  O_18
REMARK    8  A    between atoms: O_18  and  C_19
REMARK    9  A    between atoms: C_20  and  C_21
REMARK   10  A    between atoms: C_21  and  C_22
REMARK   11  A    between atoms: C_23  and  C_24
REMARK   12  A    between atoms: C_23  and  C_25
REMARK   13  A    between atoms: C_26  and  O_27
REMARK                            x       y       z     vdW  Elec       q    Type
REMARK                         _______ _______ _______ _____ _____    ______ ____
ROOT
ATOM      1  C   UNL     1       3.592   4.707  19.089  0.00  0.00    +0.000 A 
ATOM      2  C   UNL     1       3.334   6.085  18.915  0.00  0.00    +0.000 A 
ATOM      3  C   UNL     1       4.056   6.774  17.923  0.00  0.00    +0.000 A 
ATOM      4  C   UNL     1       4.991   6.138  17.098  0.00  0.00    +0.000 A 
ATOM      5  C   UNL     1       5.259   4.766  17.265  0.00  0.00    +0.000 A 
ATOM      6  C   UNL     1       4.545   4.067  18.261  0.00  0.00    +0.000 A 
ENDROOT
BRANCH   1   7
ATOM      7  C   UNL     1       2.890   3.953  20.180  0.00  0.00    +0.000 C 
ATOM      8  O   UNL     1       3.423   3.180  20.955  0.00  0.00    +0.000 OA
BRANCH   7   9
ATOM      9  O   UNL     1       1.554   4.139  20.049  0.00  0.00    +0.000 OA
BRANCH   9  11
ATOM     10  C   UNL     1       0.819   2.330  18.725  0.00  0.00    +0.000 C 
ATOM     11  C   UNL     1       0.725   2.974  20.095  0.00  0.00    +0.000 C 
ENDBRANCH   9  11
ENDBRANCH   7   9
ENDBRANCH   1   7
BRANCH   2  12
ATOM     12  C   UNL     1       2.438   6.887  19.784  0.00  0.00    +0.000 C 
ATOM     13  C   UNL     1       1.915   8.083  19.463  0.00  0.00    +0.000 C 
BRANCH  13  14
ATOM     14  C   UNL     1       1.070   8.886  20.365  0.00  0.00    +0.000 A 
ATOM     15  C   UNL     1       0.824  10.233  20.056  0.00  0.00    +0.000 A 
ATOM     16  C   UNL     1       0.023  11.021  20.886  0.00  0.00    +0.000 A 
ATOM     17  C   UNL     1      -0.551  10.471  22.029  0.00  0.00    +0.000 A 
ATOM     18  C   UNL     1      -0.333   9.129  22.337  0.00  0.00    +0.000 A 
ATOM     19  C   UNL     1       0.465   8.340  21.504  0.00  0.00    +0.000 A 
ENDBRANCH  13  14
ENDBRANCH   2  12
BRANCH   4  20
ATOM     20  O   UNL     1       5.682   6.786  16.103  0.00  0.00    +0.000 OA
ATOM     21  C   UNL     1       4.949   7.165  14.942  0.00  0.00    +0.000 C 
ENDBRANCH   4  20
BRANCH   6  22
ATOM     22  O   UNL     1       4.751   2.714  18.392  0.00  0.00    +0.000 OA
ATOM     23  H   UNL     1       4.096   2.239  17.853  0.00  0.00    +0.000 HD
ENDBRANCH   6  22
BRANCH   5  24
ATOM     24  C   UNL     1       6.272   4.062  16.373  0.00  0.00    +0.000 C 
BRANCH  24  25
ATOM     25  C   UNL     1       5.716   3.623  15.039  0.00  0.00    +0.000 C 
ATOM     26  C   UNL     1       6.168   3.944  13.806  0.00  0.00    +0.000 C 
ATOM     27  C   UNL     1       7.330   4.855  13.511  0.00  0.00    +0.000 C 
ATOM     28  C   UNL     1       5.555   3.329  12.573  0.00  0.00    +0.000 C 
ENDBRANCH  24  25
ENDBRANCH   5  24
TORSDOF 9
ENDMDL
MODEL 7
REMARK VINA RESULT:      -6.9      0.947      1.514
REMARK  Name = 
REMARK  13 active torsions:
REMARK  status: ('A' for Active; 'I' for Inactive)
REMARK    1  A    between atoms: C_1  and  C_2
REMARK    2  A    between atoms: C_2  and  O_3
REMARK    3  A    between atoms: O_3  and  C_4
REMARK    4  A    between atoms: C_4  and  C_6
REMARK    5  A    between atoms: C_7  and  C_8
REMARK    6  A    between atoms: C_9  and  C_10
REMARK    7  A    between atoms: C_17  and  O_18
REMARK    8  A    between atoms: O_18  and  C_19
REMARK    9  A    between atoms: C_20  and  C_21
REMARK   10  A    between atoms: C_21  and  C_22
REMARK   11  A    between atoms: C_23  and  C_24
REMARK   12  A    between atoms: C_23  and  C_25
REMARK   13  A    between atoms: C_26  and  O_27
REMARK                            x       y       z     vdW  Elec       q    Type
REMARK                         _______ _______ _______ _____ _____    ______ ____
ROOT
ATOM      1  C   UNL     1       3.127   4.939  17.758  0.00  0.00    +0.000 A 
ATOM      2  C   UNL     1       3.527   6.143  18.381  0.00  0.00    +0.000 A 
ATOM      3  C   UNL     1       4.859   6.564  18.214  0.00  0.00    +0.000 A 
ATOM      4  C   UNL     1       5.781   5.849  17.439  0.00  0.00    +0.000 A 
ATOM      5  C   UNL     1       5.394   4.646  16.818  0.00  0.00    +0.000 A 
ATOM      6  C   UNL     1       4.063   4.212  16.983  0.00  0.00    +0.000 A 
ENDROOT
BRANCH   1   7
ATOM      7  C   UNL     1       1.734   4.423  17.967  0.00  0.00    +0.000 C 
ATOM      8  O   UNL     1       0.881   4.331  17.102  0.00  0.00    +0.000 OA
BRANCH   7   9
ATOM      9  O   UNL     1       1.530   4.241  19.295  0.00  0.00    +0.000 OA
BRANCH   9  11
ATOM     10  C   UNL     1       1.846   1.904  19.352  0.00  0.00    +0.000 C 
ATOM     11  C   UNL     1       0.888   3.028  19.697  0.00  0.00    +0.000 C 
ENDBRANCH   9  11
ENDBRANCH   7   9
ENDBRANCH   1   7
BRANCH   2  12
ATOM     12  C   UNL     1       2.672   6.937  19.297  0.00  0.00    +0.000 C 
ATOM     13  C   UNL     1       2.075   8.100  18.985  0.00  0.00    +0.000 C 
BRANCH  13  14
ATOM     14  C   UNL     1       1.273   8.899  19.929  0.00  0.00    +0.000 A 
ATOM     15  C   UNL     1       0.523   9.982  19.446  0.00  0.00    +0.000 A 
ATOM     16  C   UNL     1      -0.252  10.757  20.314  0.00  0.00    +0.000 A 
ATOM     17  C   UNL     1      -0.296  10.452  21.671  0.00  0.00    +0.000 A 
ATOM     18  C   UNL     1       0.427   9.366  22.161  0.00  0.00    +0.000 A 
ATOM     19  C   UNL     1       1.199   8.589  21.294  0.00  0.00    +0.000 A 
ENDBRANCH  13  14
ENDBRANCH   2  12
BRANCH   4  20
ATOM     20  O   UNL     1       7.075   6.261  17.238  0.00  0.00    +0.000 OA
ATOM     21  C   UNL     1       7.351   7.647  17.408  0.00  0.00    +0.000 C 
ENDBRANCH   4  20
BRANCH   6  22
ATOM     22  O   UNL     1       3.655   3.073  16.330  0.00  0.00    +0.000 OA
ATOM     23  H   UNL     1       4.012   3.081  15.425  0.00  0.00    +0.000 HD
ENDBRANCH   6  22
BRANCH   5  24
ATOM     24  C   UNL     1       6.386   3.860  15.971  0.00  0.00    +0.000 C 
BRANCH  24  25
ATOM     25  C   UNL     1       7.072   4.683  14.906  0.00  0.00    +0.000 C 
ATOM     26  C   UNL     1       6.974   4.550  13.565  0.00  0.00    +0.000 C 
ATOM     27  C   UNL     1       6.160   3.506  12.847  0.00  0.00    +0.000 C 
ATOM     28  C   UNL     1       7.650   5.530  12.639  0.00  0.00    +0.000 C 
ENDBRANCH  24  25
ENDBRANCH   5  24
TORSDOF 9
ENDMDL
MODEL 8
REMARK VINA RESULT:      -6.8      1.772      7.711
REMARK  Name = 
REMARK  13 active torsions:
REMARK  status: ('A' for Active; 'I' for Inactive)
REMARK    1  A    between atoms: C_1  and  C_2
REMARK    2  A    between atoms: C_2  and  O_3
REMARK    3  A    between atoms: O_3  and  C_4
REMARK    4  A    between atoms: C_4  and  C_6
REMARK    5  A    between atoms: C_7  and  C_8
REMARK    6  A    between atoms: C_9  and  C_10
REMARK    7  A    between atoms: C_17  and  O_18
REMARK    8  A    between atoms: O_18  and  C_19
REMARK    9  A    between atoms: C_20  and  C_21
REMARK   10  A    between atoms: C_21  and  C_22
REMARK   11  A    between atoms: C_23  and  C_24
REMARK   12  A    between atoms: C_23  and  C_25
REMARK   13  A    between atoms: C_26  and  O_27
REMARK                            x       y       z     vdW  Elec       q    Type
REMARK                         _______ _______ _______ _____ _____    ______ ____
ROOT
ATOM      1  C   UNL     1       3.438   4.874  19.304  0.00  0.00    +0.000 A 
ATOM      2  C   UNL     1       3.681   5.559  18.093  0.00  0.00    +0.000 A 
ATOM      3  C   UNL     1       3.121   6.840  17.932  0.00  0.00    +0.000 A 
ATOM      4  C   UNL     1       2.362   7.458  18.933  0.00  0.00    +0.000 A 
ATOM      5  C   UNL     1       2.110   6.782  20.143  0.00  0.00    +0.000 A 
ATOM      6  C   UNL     1       2.661   5.495  20.312  0.00  0.00    +0.000 A 
ENDROOT
BRANCH   1   7
ATOM      7  C   UNL     1       3.963   3.480  19.487  0.00  0.00    +0.000 C 
ATOM      8  O   UNL     1       5.130   3.149  19.384  0.00  0.00    +0.000 OA
BRANCH   7   9
ATOM      9  O   UNL     1       2.913   2.631  19.612  0.00  0.00    +0.000 OA
BRANCH   9  11
ATOM     10  C   UNL     1       0.733   2.416  18.737  0.00  0.00    +0.000 C 
ATOM     11  C   UNL     1       2.209   2.283  18.416  0.00  0.00    +0.000 C 
ENDBRANCH   9  11
ENDBRANCH   7   9
ENDBRANCH   1   7
BRANCH   2  12
ATOM     12  C   UNL     1       4.390   4.976  16.927  0.00  0.00    +0.000 C 
ATOM     13  C   UNL     1       5.102   5.674  16.025  0.00  0.00    +0.000 C 
BRANCH  13  14
ATOM     14  C   UNL     1       5.754   5.079  14.845  0.00  0.00    +0.000 A 
ATOM     15  C   UNL     1       7.056   5.479  14.506  0.00  0.00    +0.000 A 
ATOM     16  C   UNL     1       7.704   4.932  13.395  0.00  0.00    +0.000 A 
ATOM     17  C   UNL     1       7.065   3.970  12.618  0.00  0.00    +0.000 A 
ATOM     18  C   UNL     1       5.781   3.547  12.956  0.00  0.00    +0.000 A 
ATOM     19  C   UNL     1       5.133   4.092  14.068  0.00  0.00    +0.000 A 
ENDBRANCH  13  14
ENDBRANCH   2  12
BRANCH   4  20
ATOM     20  O   UNL     1       1.834   8.719  18.808  0.00  0.00    +0.000 OA
ATOM     21  C   UNL     1       1.876   9.317  17.516  0.00  0.00    +0.000 C 
ENDBRANCH   4  20
BRANCH   6  22
ATOM     22  O   UNL     1       2.476   4.851  21.512  0.00  0.00    +0.000 OA
ATOM     23  H   UNL     1       3.035   5.272  22.188  0.00  0.00    +0.000 HD
ENDBRANCH   6  22
BRANCH   5  24
ATOM     24  C   UNL     1       1.287   7.443  21.240  0.00  0.00    +0.000 C 
BRANCH  24  25
ATOM     25  C   UNL     1       1.013   8.910  21.004  0.00  0.00    +0.000 C 
ATOM     26  C   UNL     1       0.295   9.754  21.779  0.00  0.00    +0.000 C 
ATOM     27  C   UNL     1      -0.418   9.380  23.051  0.00  0.00    +0.000 C 
ATOM     28  C   UNL     1       0.209  11.223  21.448  0.00  0.00    +0.000 C 
ENDBRANCH  24  25
ENDBRANCH   5  24
TORSDOF 9
ENDMDL
MODEL 9
REMARK VINA RESULT:      -6.8      1.754      7.685
REMARK  Name = 
REMARK  13 active torsions:
REMARK  status: ('A' for Active; 'I' for Inactive)
REMARK    1  A    between atoms: C_1  and  C_2
REMARK    2  A    between atoms: C_2  and  O_3
REMARK    3  A    between atoms: O_3  and  C_4
REMARK    4  A    between atoms: C_4  and  C_6
REMARK    5  A    between atoms: C_7  and  C_8
REMARK    6  A    between atoms: C_9  and  C_10
REMARK    7  A    between atoms: C_17  and  O_18
REMARK    8  A    between atoms: O_18  and  C_19
REMARK    9  A    between atoms: C_20  and  C_21
REMARK   10  A    between atoms: C_21  and  C_22
REMARK   11  A    between atoms: C_23  and  C_24
REMARK   12  A    between atoms: C_23  and  C_25
REMARK   13  A    between atoms: C_26  and  O_27
REMARK                            x       y       z     vdW  Elec       q    Type
REMARK                         _______ _______ _______ _____ _____    ______ ____
ROOT
ATOM      1  C   UNL     1       3.466   4.794  19.156  0.00  0.00    +0.000 A 
ATOM      2  C   UNL     1       3.776   5.511  17.979  0.00  0.00    +0.000 A 
ATOM      3  C   UNL     1       3.310   6.833  17.867  0.00  0.00    +0.000 A 
ATOM      4  C   UNL     1       2.580   7.460  18.884  0.00  0.00    +0.000 A 
ATOM      5  C   UNL     1       2.262   6.753  20.059  0.00  0.00    +0.000 A 
ATOM      6  C   UNL     1       2.719   5.425  20.179  0.00  0.00    +0.000 A 
ENDROOT
BRANCH   1   7
ATOM      7  C   UNL     1       3.889   3.359  19.284  0.00  0.00    +0.000 C 
ATOM      8  O   UNL     1       4.888   2.969  19.860  0.00  0.00    +0.000 OA
BRANCH   7   9
ATOM      9  O   UNL     1       3.076   2.594  18.513  0.00  0.00    +0.000 OA
BRANCH   9  11
ATOM     10  C   UNL     1       0.732   2.544  18.765  0.00  0.00    +0.000 C 
ATOM     11  C   UNL     1       2.031   1.878  19.176  0.00  0.00    +0.000 C 
ENDBRANCH   9  11
ENDBRANCH   7   9
ENDBRANCH   1   7
BRANCH   2  12
ATOM     12  C   UNL     1       4.460   4.929  16.798  0.00  0.00    +0.000 C 
ATOM     13  C   UNL     1       5.197   5.620  15.911  0.00  0.00    +0.000 C 
BRANCH  13  14
ATOM     14  C   UNL     1       5.824   5.029  14.715  0.00  0.00    +0.000 A 
ATOM     15  C   UNL     1       5.094   4.115  13.940  0.00  0.00    +0.000 A 
ATOM     16  C   UNL     1       5.657   3.539  12.798  0.00  0.00    +0.000 A 
ATOM     17  C   UNL     1       6.950   3.880  12.410  0.00  0.00    +0.000 A 
ATOM     18  C   UNL     1       7.678   4.803  13.158  0.00  0.00    +0.000 A 
ATOM     19  C   UNL     1       7.114   5.381  14.299  0.00  0.00    +0.000 A 
ENDBRANCH  13  14
ENDBRANCH   2  12
BRANCH   4  20
ATOM     20  O   UNL     1       2.144   8.760  18.807  0.00  0.00    +0.000 OA
ATOM     21  C   UNL     1       1.757   9.242  17.525  0.00  0.00    +0.000 C 
ENDBRANCH   4  20
BRANCH   6  22
ATOM     22  O   UNL     1       2.469   4.745  21.348  0.00  0.00    +0.000 OA
ATOM     23  H   UNL     1       2.670   3.802  21.216  0.00  0.00    +0.000 HD
ENDBRANCH   6  22
BRANCH   5  24
ATOM     24  C   UNL     1       1.470   7.423  21.174  0.00  0.00    +0.000 C 
BRANCH  24  25
ATOM     25  C   UNL     1       0.667   8.622  20.724  0.00  0.00    +0.000 C 
ATOM     26  C   UNL     1       0.023   9.525  21.495  0.00  0.00    +0.000 C 
ATOM     27  C   UNL     1      -0.050   9.497  22.998  0.00  0.00    +0.000 C 
ATOM     28  C   UNL     1      -0.648  10.729  20.881  0.00  0.00    +0.000 C 
ENDBRANCH  24  25
ENDBRANCH   5  24
TORSDOF 9
ENDMDL
