MODEL 1
REMARK VINA RESULT:      -9.0      0.000      0.000
REMARK  Name = 
REMARK  12 active torsions:
REMARK  status: ('A' for Active; 'I' for Inactive)
REMARK    1  A    between atoms: C_1  and  C_2
REMARK    2  A    between atoms: C_2  and  C_3
REMARK    3  A    between atoms: C_3  and  O_4
REMARK    4  A    between atoms: O_4  and  N_5
REMARK    5  A    between atoms: C_6  and  C_8
REMARK    6  A    between atoms: C_8  and  C_10
REMARK    7  A    between atoms: C_10  and  C_11
REMARK    8  A    between atoms: C_10  and  N_18
REMARK    9  A    between atoms: C_11  and  C_12
REMARK   10  A    between atoms: C_19  and  C_21
REMARK   11  A    between atoms: C_26  and  N_27
REMARK   12  A    between atoms: C_30  and  C_31
REMARK                            x       y       z     vdW  Elec       q    Type
REMARK                         _______ _______ _______ _____ _____    ______ ____
ROOT
ATOM      1  N   UNL     1       3.816   6.215  17.159  0.00  0.00    +0.000 N 
ATOM      2  C   UNL     1       4.601   5.082  17.082  0.00  0.00    +0.000 C 
ATOM      3  O   UNL     1       4.488   4.135  17.847  0.00  0.00    +0.000 OA
ATOM      4  H   UNL     1       3.928   6.966  16.484  0.00  0.00    +0.000 HD
ENDROOT
BRANCH   2   5
ATOM      5  C   UNL     1       5.526   5.025  15.920  0.00  0.00    +0.000 A 
ATOM      6  C   UNL     1       5.114   4.264  14.810  0.00  0.00    +0.000 A 
ATOM      7  C   UNL     1       5.969   4.069  13.729  0.00  0.00    +0.000 A 
ATOM      8  C   UNL     1       7.237   4.609  13.795  0.00  0.00    +0.000 A 
ATOM      9  N   UNL     1       7.691   5.302  14.858  0.00  0.00    +0.000 NA
ATOM     10  C   UNL     1       6.831   5.524  15.907  0.00  0.00    +0.000 A 
BRANCH  10  11
ATOM     11  N   UNL     1       7.365   6.311  16.974  0.00  0.00    +0.000 N 
ATOM     12  C   UNL     1       7.550   5.858  18.264  0.00  0.00    +0.000 A 
ATOM     13  C   UNL     1       7.999   6.926  18.996  0.00  0.00    +0.000 A 
ATOM     14  C   UNL     1       8.157   7.979  18.061  0.00  0.00    +0.000 A 
ATOM     15  N   UNL     1       7.841   7.570  16.821  0.00  0.00    +0.000 NA
BRANCH  14  16
ATOM     16  C   UNL     1       8.558   9.356  18.349  0.00  0.00    +0.000 A 
ATOM     17  C   UNL     1       9.275   9.666  19.515  0.00  0.00    +0.000 A 
ATOM     18  C   UNL     1       9.570  10.994  19.834  0.00  0.00    +0.000 A 
ATOM     19  C   UNL     1       9.156  12.021  18.989  0.00  0.00    +0.000 A 
ATOM     20  C   UNL     1       8.464  11.723  17.816  0.00  0.00    +0.000 A 
ATOM     21  C   UNL     1       8.170  10.396  17.495  0.00  0.00    +0.000 A 
ENDBRANCH  14  16
ENDBRANCH  10  11
ENDBRANCH   2   5
BRANCH   1  22
ATOM     22  C   UNL     1       2.898   6.473  18.282  0.00  0.00    +0.000 C 
BRANCH  22  23
ATOM     23  C   UNL     1       2.473   7.942  18.210  0.00  0.00    +0.000 C 
ATOM     24  O   UNL     1       2.753   8.699  17.278  0.00  0.00    +0.000 OA
BRANCH  23  26
ATOM     25  N   UNL     1       0.960   9.619  19.091  0.00  0.00    +0.000 N 
ATOM     26  C   UNL     1       1.728   8.525  19.416  0.00  0.00    +0.000 C 
ATOM     27  O   UNL     1       1.876   8.032  20.525  0.00  0.00    +0.000 OA
ATOM     28  H   UNL     1       1.171  10.132  18.238  0.00  0.00    +0.000 HD
BRANCH  25  29
ATOM     29  O   UNL     1       0.484  10.366  20.199  0.00  0.00    +0.000 OA
BRANCH  29  30
ATOM     30  C   UNL     1       1.045  11.683  20.154  0.00  0.00    +0.000 C 
BRANCH  30  32
ATOM     31  C   UNL     1       2.358  12.765  18.287  0.00  0.00    +0.000 C 
ATOM     32  C   UNL     1       1.020  12.182  18.711  0.00  0.00    +0.000 C 
ENDBRANCH  30  32
ENDBRANCH  29  30
ENDBRANCH  25  29
ENDBRANCH  23  26
ENDBRANCH  22  23
BRANCH  22  33
ATOM     33  C   UNL     1       1.730   5.475  18.339  0.00  0.00    +0.000 C 
BRANCH  33  34
ATOM     34  C   UNL     1       1.797   4.416  19.418  0.00  0.00    +0.000 A 
ATOM     35  C   UNL     1       2.311   4.731  20.684  0.00  0.00    +0.000 A 
ATOM     36  C   UNL     1       2.266   3.796  21.720  0.00  0.00    +0.000 A 
ATOM     37  C   UNL     1       1.721   2.535  21.497  0.00  0.00    +0.000 A 
ATOM     38  C   UNL     1       1.234   2.199  20.235  0.00  0.00    +0.000 A 
ATOM     39  C   UNL     1       1.269   3.136  19.201  0.00  0.00    +0.000 A 
ENDBRANCH  33  34
ENDBRANCH  22  33
ENDBRANCH   1  22
TORSDOF 11
ENDMDL
MODEL 2
REMARK VINA RESULT:      -8.6      1.168      1.728
REMARK  Name = 
REMARK  12 active torsions:
REMARK  status: ('A' for Active; 'I' for Inactive)
REMARK    1  A    between atoms: C_1  and  C_2
REMARK    2  A    between atoms: C_2  and  C_3
REMARK    3  A    between atoms: C_3  and  O_4
REMARK    4  A    between atoms: O_4  and  N_5
REMARK    5  A    between atoms: C_6  and  C_8
REMARK    6  A    between atoms: C_8  and  C_10
REMARK    7  A    between atoms: C_10  and  C_11
REMARK    8  A    between atoms: C_10  and  N_18
REMARK    9  A    between atoms: C_11  and  C_12
REMARK   10  A    between atoms: C_19  and  C_21
REMARK   11  A    between atoms: C_26  and  N_27
REMARK   12  A    between atoms: C_30  and  C_31
REMARK                            x       y       z     vdW  Elec       q    Type
REMARK                         _______ _______ _______ _____ _____    ______ ____
ROOT
ATOM      1  N   UNL     1       3.552   6.310  18.143  0.00  0.00    +0.000 N 
ATOM      2  C   UNL     1       4.827   5.791  18.250  0.00  0.00    +0.000 C 
ATOM      3  O   UNL     1       5.326   5.453  19.315  0.00  0.00    +0.000 OA
ATOM      4  H   UNL     1       3.170   6.551  17.234  0.00  0.00    +0.000 HD
ENDROOT
BRANCH   2   5
ATOM      5  C   UNL     1       5.528   5.548  16.962  0.00  0.00    +0.000 A 
ATOM      6  C   UNL     1       4.925   4.646  16.066  0.00  0.00    +0.000 A 
ATOM      7  C   UNL     1       5.572   4.279  14.889  0.00  0.00    +0.000 A 
ATOM      8  C   UNL     1       6.828   4.794  14.648  0.00  0.00    +0.000 A 
ATOM      9  N   UNL     1       7.464   5.622  15.501  0.00  0.00    +0.000 NA
ATOM     10  C   UNL     1       6.806   6.011  16.644  0.00  0.00    +0.000 A 
BRANCH  10  11
ATOM     11  N   UNL     1       7.521   6.930  17.472  0.00  0.00    +0.000 N 
ATOM     12  C   UNL     1       8.132   6.598  18.664  0.00  0.00    +0.000 A 
ATOM     13  C   UNL     1       8.632   7.762  19.188  0.00  0.00    +0.000 A 
ATOM     14  C   UNL     1       8.371   8.754  18.210  0.00  0.00    +0.000 A 
ATOM     15  N   UNL     1       7.764   8.220  17.137  0.00  0.00    +0.000 NA
BRANCH  14  16
ATOM     16  C   UNL     1       8.656  10.184  18.314  0.00  0.00    +0.000 A 
ATOM     17  C   UNL     1       8.017  11.107  17.473  0.00  0.00    +0.000 A 
ATOM     18  C   UNL     1       8.366  12.460  17.509  0.00  0.00    +0.000 A 
ATOM     19  C   UNL     1       9.350  12.902  18.390  0.00  0.00    +0.000 A 
ATOM     20  C   UNL     1       9.975  11.997  19.248  0.00  0.00    +0.000 A 
ATOM     21  C   UNL     1       9.626  10.645  19.214  0.00  0.00    +0.000 A 
ENDBRANCH  14  16
ENDBRANCH  10  11
ENDBRANCH   2   5
BRANCH   1  22
ATOM     22  C   UNL     1       2.742   6.682  19.316  0.00  0.00    +0.000 C 
BRANCH  22  23
ATOM     23  C   UNL     1       2.045   8.007  19.001  0.00  0.00    +0.000 C 
ATOM     24  O   UNL     1       2.087   8.569  17.904  0.00  0.00    +0.000 OA
BRANCH  23  26
ATOM     25  N   UNL     1       0.440   9.679  19.713  0.00  0.00    +0.000 N 
ATOM     26  C   UNL     1       1.324   8.721  20.150  0.00  0.00    +0.000 C 
ATOM     27  O   UNL     1       1.584   8.433  21.310  0.00  0.00    +0.000 OA
ATOM     28  H   UNL     1       0.551  10.058  18.775  0.00  0.00    +0.000 HD
BRANCH  25  29
ATOM     29  O   UNL     1      -0.034  10.559  20.719  0.00  0.00    +0.000 OA
BRANCH  29  30
ATOM     30  C   UNL     1      -0.433  11.794  20.114  0.00  0.00    +0.000 C 
BRANCH  30  32
ATOM     31  C   UNL     1       1.726  13.012  20.597  0.00  0.00    +0.000 C 
ATOM     32  C   UNL     1       0.797  12.475  19.520  0.00  0.00    +0.000 C 
ENDBRANCH  30  32
ENDBRANCH  29  30
ENDBRANCH  25  29
ENDBRANCH  23  26
ENDBRANCH  22  23
BRANCH  22  33
ATOM     33  C   UNL     1       1.796   5.557  19.769  0.00  0.00    +0.000 C 
BRANCH  33  34
ATOM     34  C   UNL     1       2.168   4.151  19.351  0.00  0.00    +0.000 A 
ATOM     35  C   UNL     1       1.806   3.674  18.085  0.00  0.00    +0.000 A 
ATOM     36  C   UNL     1       2.247   2.424  17.645  0.00  0.00    +0.000 A 
ATOM     37  C   UNL     1       3.043   1.636  18.472  0.00  0.00    +0.000 A 
ATOM     38  C   UNL     1       3.386   2.087  19.745  0.00  0.00    +0.000 A 
ATOM     39  C   UNL     1       2.953   3.341  20.182  0.00  0.00    +0.000 A 
ENDBRANCH  33  34
ENDBRANCH  22  33
ENDBRANCH   1  22
TORSDOF 11
ENDMDL
MODEL 3
REMARK VINA RESULT:      -8.4      1.349      1.906
REMARK  Name = 
REMARK  12 active torsions:
REMARK  status: ('A' for Active; 'I' for Inactive)
REMARK    1  A    between atoms: C_1  and  C_2
REMARK    2  A    between atoms: C_2  and  C_3
REMARK    3  A    between atoms: C_3  and  O_4
REMARK    4  A    between atoms: O_4  and  N_5
REMARK    5  A    between atoms: C_6  and  C_8
REMARK    6  A    between atoms: C_8  and  C_10
REMARK    7  A    between atoms: C_10  and  C_11
REMARK    8  A    between atoms: C_10  and  N_18
REMARK    9  A    between atoms: C_11  and  C_12
REMARK   10  A    between atoms: C_19  and  C_21
REMARK   11  A    between atoms: C_26  and  N_27
REMARK   12  A    between atoms: C_30  and  C_31
REMARK                            x       y       z     vdW  Elec       q    Type
REMARK                         _______ _______ _______ _____ _____    ______ ____
ROOT
ATOM      1  N   UNL     1       3.452   6.580  17.583  0.00  0.00    +0.000 N 
ATOM      2  C   UNL     1       4.598   5.840  17.796  0.00  0.00    +0.000 C 
ATOM      3  O   UNL     1       4.889   5.353  18.880  0.00  0.00    +0.000 OA
ATOM      4  H   UNL     1       3.237   6.942  16.659  0.00  0.00    +0.000 HD
ENDROOT
BRANCH   2   5
ATOM      5  C   UNL     1       5.411   5.559  16.584  0.00  0.00    +0.000 A 
ATOM      6  C   UNL     1       4.832   4.733  15.603  0.00  0.00    +0.000 A 
ATOM      7  C   UNL     1       5.569   4.332  14.491  0.00  0.00    +0.000 A 
ATOM      8  C   UNL     1       6.885   4.735  14.401  0.00  0.00    +0.000 A 
ATOM      9  N   UNL     1       7.494   5.485  15.341  0.00  0.00    +0.000 NA
ATOM     10  C   UNL     1       6.752   5.910  16.418  0.00  0.00    +0.000 A 
BRANCH  10  11
ATOM     11  N   UNL     1       7.451   6.744  17.344  0.00  0.00    +0.000 N 
ATOM     12  C   UNL     1       7.979   6.311  18.544  0.00  0.00    +0.000 A 
ATOM     13  C   UNL     1       8.490   7.416  19.172  0.00  0.00    +0.000 A 
ATOM     14  C   UNL     1       8.321   8.480  18.251  0.00  0.00    +0.000 A 
ATOM     15  N   UNL     1       7.758   8.043  17.112  0.00  0.00    +0.000 NA
BRANCH  14  16
ATOM     16  C   UNL     1       8.651   9.888  18.467  0.00  0.00    +0.000 A 
ATOM     17  C   UNL     1       8.251  10.869  17.546  0.00  0.00    +0.000 A 
ATOM     18  C   UNL     1       8.654  12.198  17.707  0.00  0.00    +0.000 A 
ATOM     19  C   UNL     1       9.452  12.558  18.791  0.00  0.00    +0.000 A 
ATOM     20  C   UNL     1       9.835  11.596  19.725  0.00  0.00    +0.000 A 
ATOM     21  C   UNL     1       9.432  10.268  19.566  0.00  0.00    +0.000 A 
ENDBRANCH  14  16
ENDBRANCH  10  11
ENDBRANCH   2   5
BRANCH   1  22
ATOM     22  C   UNL     1       2.568   7.014  18.679  0.00  0.00    +0.000 C 
BRANCH  22  23
ATOM     23  C   UNL     1       2.168   8.467  18.410  0.00  0.00    +0.000 C 
ATOM     24  O   UNL     1       2.733   9.201  17.597  0.00  0.00    +0.000 OA
BRANCH  23  26
ATOM     25  N   UNL     1       1.202   8.789  20.609  0.00  0.00    +0.000 N 
ATOM     26  C   UNL     1       1.051   9.066  19.271  0.00  0.00    +0.000 C 
ATOM     27  O   UNL     1       0.138   9.688  18.746  0.00  0.00    +0.000 OA
ATOM     28  H   UNL     1       1.788   8.005  20.886  0.00  0.00    +0.000 HD
BRANCH  25  29
ATOM     29  O   UNL     1       0.063   9.065  21.409  0.00  0.00    +0.000 OA
BRANCH  29  30
ATOM     30  C   UNL     1       0.310  10.243  22.185  0.00  0.00    +0.000 C 
BRANCH  30  32
ATOM     31  C   UNL     1      -0.469  12.646  22.153  0.00  0.00    +0.000 C 
ATOM     32  C   UNL     1      -0.882  11.187  22.045  0.00  0.00    +0.000 C 
ENDBRANCH  30  32
ENDBRANCH  29  30
ENDBRANCH  25  29
ENDBRANCH  23  26
ENDBRANCH  22  23
BRANCH  22  33
ATOM     33  C   UNL     1       1.384   6.059  18.905  0.00  0.00    +0.000 C 
BRANCH  33  34
ATOM     34  C   UNL     1       1.718   4.591  19.051  0.00  0.00    +0.000 A 
ATOM     35  C   UNL     1       1.687   3.746  17.934  0.00  0.00    +0.000 A 
ATOM     36  C   UNL     1       2.109   2.419  18.036  0.00  0.00    +0.000 A 
ATOM     37  C   UNL     1       2.553   1.921  19.258  0.00  0.00    +0.000 A 
ATOM     38  C   UNL     1       2.561   2.743  20.383  0.00  0.00    +0.000 A 
ATOM     39  C   UNL     1       2.148   4.072  20.281  0.00  0.00    +0.000 A 
ENDBRANCH  33  34
ENDBRANCH  22  33
ENDBRANCH   1  22
TORSDOF 11
ENDMDL
MODEL 4
REMARK VINA RESULT:      -8.4      2.239      7.356
REMARK  Name = 
REMARK  12 active torsions:
REMARK  status: ('A' for Active; 'I' for Inactive)
REMARK    1  A    between atoms: C_1  and  C_2
REMARK    2  A    between atoms: C_2  and  C_3
REMARK    3  A    between atoms: C_3  and  O_4
REMARK    4  A    between atoms: O_4  and  N_5
REMARK    5  A    between atoms: C_6  and  C_8
REMARK    6  A    between atoms: C_8  and  C_10
REMARK    7  A    between atoms: C_10  and  C_11
REMARK    8  A    between atoms: C_10  and  N_18
REMARK    9  A    between atoms: C_11  and  C_12
REMARK   10  A    between atoms: C_19  and  C_21
REMARK   11  A    between atoms: C_26  and  N_27
REMARK   12  A    between atoms: C_30  and  C_31
REMARK                            x       y       z     vdW  Elec       q    Type
REMARK                         _______ _______ _______ _____ _____    ______ ____
ROOT
ATOM      1  N   UNL     1       4.546   4.470  17.686  0.00  0.00    +0.000 N 
ATOM      2  C   UNL     1       3.263   4.062  17.995  0.00  0.00    +0.000 C 
ATOM      3  O   UNL     1       2.411   3.830  17.148  0.00  0.00    +0.000 OA
ATOM      4  H   UNL     1       5.228   4.625  18.422  0.00  0.00    +0.000 HD
ENDROOT
BRANCH   2   5
ATOM      5  C   UNL     1       3.007   3.798  19.435  0.00  0.00    +0.000 A 
ATOM      6  C   UNL     1       3.217   2.484  19.892  0.00  0.00    +0.000 A 
ATOM      7  C   UNL     1       2.893   2.129  21.199  0.00  0.00    +0.000 A 
ATOM      8  C   UNL     1       2.331   3.089  22.015  0.00  0.00    +0.000 A 
ATOM      9  N   UNL     1       2.068   4.345  21.605  0.00  0.00    +0.000 NA
ATOM     10  C   UNL     1       2.423   4.702  20.325  0.00  0.00    +0.000 A 
BRANCH  10  11
ATOM     11  N   UNL     1       2.162   6.064  19.981  0.00  0.00    +0.000 N 
ATOM     12  C   UNL     1       2.660   6.696  18.859  0.00  0.00    +0.000 A 
ATOM     13  C   UNL     1       2.253   8.003  18.932  0.00  0.00    +0.000 A 
ATOM     14  C   UNL     1       1.427   8.074  20.081  0.00  0.00    +0.000 A 
ATOM     15  N   UNL     1       1.317   6.870  20.667  0.00  0.00    +0.000 NA
BRANCH  14  16
ATOM     16  C   UNL     1       0.791   9.270  20.632  0.00  0.00    +0.000 A 
ATOM     17  C   UNL     1       0.554   9.388  22.010  0.00  0.00    +0.000 A 
ATOM     18  C   UNL     1      -0.142  10.488  22.518  0.00  0.00    +0.000 A 
ATOM     19  C   UNL     1      -0.600  11.481  21.655  0.00  0.00    +0.000 A 
ATOM     20  C   UNL     1      -0.349  11.387  20.287  0.00  0.00    +0.000 A 
ATOM     21  C   UNL     1       0.348  10.289  19.778  0.00  0.00    +0.000 A 
ENDBRANCH  14  16
ENDBRANCH  10  11
ENDBRANCH   2   5
BRANCH   1  22
ATOM     22  C   UNL     1       4.955   4.847  16.321  0.00  0.00    +0.000 C 
BRANCH  22  23
ATOM     23  C   UNL     1       5.491   6.280  16.373  0.00  0.00    +0.000 C 
ATOM     24  O   UNL     1       5.148   7.176  15.599  0.00  0.00    +0.000 OA
BRANCH  23  26
ATOM     25  N   UNL     1       6.955   7.915  17.402  0.00  0.00    +0.000 N 
ATOM     26  C   UNL     1       6.588   6.590  17.398  0.00  0.00    +0.000 C 
ATOM     27  O   UNL     1       7.060   5.692  18.083  0.00  0.00    +0.000 OA
ATOM     28  H   UNL     1       6.749   8.484  16.585  0.00  0.00    +0.000 HD
BRANCH  25  29
ATOM     29  O   UNL     1       8.149   8.203  18.112  0.00  0.00    +0.000 OA
BRANCH  29  30
ATOM     30  C   UNL     1       8.435   9.601  18.002  0.00  0.00    +0.000 C 
BRANCH  30  32
ATOM     31  C   UNL     1       9.430  11.531  19.294  0.00  0.00    +0.000 C 
ATOM     32  C   UNL     1       9.322  10.019  19.172  0.00  0.00    +0.000 C 
ENDBRANCH  30  32
ENDBRANCH  29  30
ENDBRANCH  25  29
ENDBRANCH  23  26
ENDBRANCH  22  23
BRANCH  22  33
ATOM     33  C   UNL     1       5.917   3.830  15.685  0.00  0.00    +0.000 C 
BRANCH  33  34
ATOM     34  C   UNL     1       6.349   4.108  14.261  0.00  0.00    +0.000 A 
ATOM     35  C   UNL     1       7.375   5.026  14.003  0.00  0.00    +0.000 A 
ATOM     36  C   UNL     1       7.862   5.199  12.705  0.00  0.00    +0.000 A 
ATOM     37  C   UNL     1       7.318   4.466  11.653  0.00  0.00    +0.000 A 
ATOM     38  C   UNL     1       6.277   3.571  11.894  0.00  0.00    +0.000 A 
ATOM     39  C   UNL     1       5.796   3.390  13.192  0.00  0.00    +0.000 A 
ENDBRANCH  33  34
ENDBRANCH  22  33
ENDBRANCH   1  22
TORSDOF 11
ENDMDL
MODEL 5
REMARK VINA RESULT:      -8.3      2.362      7.441
REMARK  Name = 
REMARK  12 active torsions:
REMARK  status: ('A' for Active; 'I' for Inactive)
REMARK    1  A    between atoms: C_1  and  C_2
REMARK    2  A    between atoms: C_2  and  C_3
REMARK    3  A    between atoms: C_3  and  O_4
REMARK    4  A    between atoms: O_4  and  N_5
REMARK    5  A    between atoms: C_6  and  C_8
REMARK    6  A    between atoms: C_8  and  C_10
REMARK    7  A    between atoms: C_10  and  C_11
REMARK    8  A    between atoms: C_10  and  N_18
REMARK    9  A    between atoms: C_11  and  C_12
REMARK   10  A    between atoms: C_19  and  C_21
REMARK   11  A    between atoms: C_26  and  N_27
REMARK   12  A    between atoms: C_30  and  C_31
REMARK                            x       y       z     vdW  Elec       q    Type
REMARK                         _______ _______ _______ _____ _____    ______ ____
ROOT
ATOM      1  N   UNL     1       5.731   4.859  18.738  0.00  0.00    +0.000 N 
ATOM      2  C   UNL     1       4.372   4.757  18.516  0.00  0.00    +0.000 C 
ATOM      3  O   UNL     1       3.849   5.004  17.437  0.00  0.00    +0.000 OA
ATOM      4  H   UNL     1       6.124   4.618  19.643  0.00  0.00    +0.000 HD
ENDROOT
BRANCH   2   5
ATOM      5  C   UNL     1       3.580   4.205  19.646  0.00  0.00    +0.000 A 
ATOM      6  C   UNL     1       3.812   2.861  19.993  0.00  0.00    +0.000 A 
ATOM      7  C   UNL     1       3.034   2.237  20.964  0.00  0.00    +0.000 A 
ATOM      8  C   UNL     1       2.013   2.960  21.544  0.00  0.00    +0.000 A 
ATOM      9  N   UNL     1       1.724   4.232  21.208  0.00  0.00    +0.000 NA
ATOM     10  C   UNL     1       2.518   4.857  20.275  0.00  0.00    +0.000 A 
BRANCH  10  11
ATOM     11  N   UNL     1       2.184   6.220  20.010  0.00  0.00    +0.000 N 
ATOM     12  C   UNL     1       2.603   6.927  18.901  0.00  0.00    +0.000 A 
ATOM     13  C   UNL     1       2.145   8.209  19.054  0.00  0.00    +0.000 A 
ATOM     14  C   UNL     1       1.369   8.189  20.240  0.00  0.00    +0.000 A 
ATOM     15  N   UNL     1       1.337   6.955  20.770  0.00  0.00    +0.000 NA
BRANCH  14  16
ATOM     16  C   UNL     1       0.709   9.328  20.876  0.00  0.00    +0.000 A 
ATOM     17  C   UNL     1       0.745  10.601  20.286  0.00  0.00    +0.000 A 
ATOM     18  C   UNL     1       0.198  11.704  20.947  0.00  0.00    +0.000 A 
ATOM     19  C   UNL     1      -0.396  11.544  22.196  0.00  0.00    +0.000 A 
ATOM     20  C   UNL     1      -0.459  10.280  22.782  0.00  0.00    +0.000 A 
ATOM     21  C   UNL     1       0.086   9.176  22.122  0.00  0.00    +0.000 A 
ENDBRANCH  14  16
ENDBRANCH  10  11
ENDBRANCH   2   5
BRANCH   1  22
ATOM     22  C   UNL     1       6.657   5.453  17.757  0.00  0.00    +0.000 C 
BRANCH  22  23
ATOM     23  C   UNL     1       7.641   6.342  18.522  0.00  0.00    +0.000 C 
ATOM     24  O   UNL     1       8.185   6.021  19.581  0.00  0.00    +0.000 OA
BRANCH  23  26
ATOM     25  N   UNL     1       8.701   8.504  18.798  0.00  0.00    +0.000 N 
ATOM     26  C   UNL     1       7.893   7.753  17.978  0.00  0.00    +0.000 C 
ATOM     27  O   UNL     1       7.370   8.109  16.931  0.00  0.00    +0.000 OA
ATOM     28  H   UNL     1       8.797   8.235  19.774  0.00  0.00    +0.000 HD
BRANCH  25  29
ATOM     29  O   UNL     1       8.733   9.890  18.499  0.00  0.00    +0.000 OA
BRANCH  29  30
ATOM     30  C   UNL     1       9.380  10.587  19.569  0.00  0.00    +0.000 C 
BRANCH  30  32
ATOM     31  C   UNL     1      10.818  11.648  17.784  0.00  0.00    +0.000 C 
ATOM     32  C   UNL     1       9.977  11.883  19.028  0.00  0.00    +0.000 C 
ENDBRANCH  30  32
ENDBRANCH  29  30
ENDBRANCH  25  29
ENDBRANCH  23  26
ENDBRANCH  22  23
BRANCH  22  33
ATOM     33  C   UNL     1       7.320   4.403  16.850  0.00  0.00    +0.000 C 
BRANCH  33  34
ATOM     34  C   UNL     1       6.932   4.430  15.388  0.00  0.00    +0.000 A 
ATOM     35  C   UNL     1       7.719   5.129  14.463  0.00  0.00    +0.000 A 
ATOM     36  C   UNL     1       7.437   5.061  13.097  0.00  0.00    +0.000 A 
ATOM     37  C   UNL     1       6.358   4.304  12.645  0.00  0.00    +0.000 A 
ATOM     38  C   UNL     1       5.551   3.628  13.558  0.00  0.00    +0.000 A 
ATOM     39  C   UNL     1       5.837   3.688  14.923  0.00  0.00    +0.000 A 
ENDBRANCH  33  34
ENDBRANCH  22  33
ENDBRANCH   1  22
TORSDOF 11
ENDMDL
MODEL 6
REMARK VINA RESULT:      -8.1      2.244      7.497
REMARK  Name = 
REMARK  12 active torsions:
REMARK  status: ('A' for Active; 'I' for Inactive)
REMARK    1  A    between atoms: C_1  and  C_2
REMARK    2  A    between atoms: C_2  and  C_3
REMARK    3  A    between atoms: C_3  and  O_4
REMARK    4  A    between atoms: O_4  and  N_5
REMARK    5  A    between atoms: C_6  and  C_8
REMARK    6  A    between atoms: C_8  and  C_10
REMARK    7  A    between atoms: C_10  and  C_11
REMARK    8  A    between atoms: C_10  and  N_18
REMARK    9  A    between atoms: C_11  and  C_12
REMARK   10  A    between atoms: C_19  and  C_21
REMARK   11  A    between atoms: C_26  and  N_27
REMARK   12  A    between atoms: C_30  and  C_31
REMARK                            x       y       z     vdW  Elec       q    Type
REMARK                         _______ _______ _______ _____ _____    ______ ____
ROOT
ATOM      1  N   UNL     1       5.058   3.962  18.041  0.00  0.00    +0.000 N 
ATOM      2  C   UNL     1       3.695   4.156  18.148  0.00  0.00    +0.000 C 
ATOM      3  O   UNL     1       3.001   4.565  17.226  0.00  0.00    +0.000 OA
ATOM      4  H   UNL     1       5.588   3.596  18.825  0.00  0.00    +0.000 HD
ENDROOT
BRANCH   2   5
ATOM      5  C   UNL     1       3.086   3.717  19.431  0.00  0.00    +0.000 A 
ATOM      6  C   UNL     1       3.176   2.349  19.746  0.00  0.00    +0.000 A 
ATOM      7  C   UNL     1       2.536   1.840  20.873  0.00  0.00    +0.000 A 
ATOM      8  C   UNL     1       1.786   2.704  21.644  0.00  0.00    +0.000 A 
ATOM      9  N   UNL     1       1.633   4.011  21.352  0.00  0.00    +0.000 NA
ATOM     10  C   UNL     1       2.297   4.518  20.260  0.00  0.00    +0.000 A 
BRANCH  10  11
ATOM     11  N   UNL     1       2.129   5.920  20.045  0.00  0.00    +0.000 N 
ATOM     12  C   UNL     1       2.777   6.645  19.065  0.00  0.00    +0.000 A 
ATOM     13  C   UNL     1       2.415   7.955  19.239  0.00  0.00    +0.000 A 
ATOM     14  C   UNL     1       1.464   7.943  20.290  0.00  0.00    +0.000 A 
ATOM     15  N   UNL     1       1.242   6.689  20.720  0.00  0.00    +0.000 NA
BRANCH  14  16
ATOM     16  C   UNL     1       0.815   9.103  20.899  0.00  0.00    +0.000 A 
ATOM     17  C   UNL     1       0.418   9.080  22.245  0.00  0.00    +0.000 A 
ATOM     18  C   UNL     1      -0.290  10.153  22.794  0.00  0.00    +0.000 A 
ATOM     19  C   UNL     1      -0.601  11.258  22.005  0.00  0.00    +0.000 A 
ATOM     20  C   UNL     1      -0.191  11.302  20.673  0.00  0.00    +0.000 A 
ATOM     21  C   UNL     1       0.518  10.231  20.124  0.00  0.00    +0.000 A 
ENDBRANCH  14  16
ENDBRANCH  10  11
ENDBRANCH   2   5
BRANCH   1  22
ATOM     22  C   UNL     1       5.836   4.405  16.871  0.00  0.00    +0.000 C 
BRANCH  22  23
ATOM     23  C   UNL     1       7.247   4.753  17.353  0.00  0.00    +0.000 C 
ATOM     24  O   UNL     1       8.245   4.065  17.128  0.00  0.00    +0.000 OA
BRANCH  23  26
ATOM     25  N   UNL     1       7.996   7.046  17.592  0.00  0.00    +0.000 N 
ATOM     26  C   UNL     1       7.407   5.989  18.245  0.00  0.00    +0.000 C 
ATOM     27  O   UNL     1       7.052   5.951  19.415  0.00  0.00    +0.000 OA
ATOM     28  H   UNL     1       8.542   6.863  16.754  0.00  0.00    +0.000 HD
BRANCH  25  29
ATOM     29  O   UNL     1       8.428   8.103  18.434  0.00  0.00    +0.000 OA
BRANCH  29  30
ATOM     30  C   UNL     1       7.994   9.350  17.882  0.00  0.00    +0.000 C 
BRANCH  30  32
ATOM     31  C   UNL     1       9.488  10.307  19.680  0.00  0.00    +0.000 C 
ATOM     32  C   UNL     1       9.008  10.432  18.243  0.00  0.00    +0.000 C 
ENDBRANCH  30  32
ENDBRANCH  29  30
ENDBRANCH  25  29
ENDBRANCH  23  26
ENDBRANCH  22  23
BRANCH  22  33
ATOM     33  C   UNL     1       5.791   3.400  15.708  0.00  0.00    +0.000 C 
BRANCH  33  34
ATOM     34  C   UNL     1       6.255   3.905  14.359  0.00  0.00    +0.000 A 
ATOM     35  C   UNL     1       7.147   4.983  14.279  0.00  0.00    +0.000 A 
ATOM     36  C   UNL     1       7.674   5.378  13.048  0.00  0.00    +0.000 A 
ATOM     37  C   UNL     1       7.305   4.708  11.885  0.00  0.00    +0.000 A 
ATOM     38  C   UNL     1       6.396   3.653  11.948  0.00  0.00    +0.000 A 
ATOM     39  C   UNL     1       5.875   3.251  13.179  0.00  0.00    +0.000 A 
ENDBRANCH  33  34
ENDBRANCH  22  33
ENDBRANCH   1  22
TORSDOF 11
ENDMDL
MODEL 7
REMARK VINA RESULT:      -8.1      2.281      7.240
REMARK  Name = 
REMARK  12 active torsions:
REMARK  status: ('A' for Active; 'I' for Inactive)
REMARK    1  A    between atoms: C_1  and  C_2
REMARK    2  A    between atoms: C_2  and  C_3
REMARK    3  A    between atoms: C_3  and  O_4
REMARK    4  A    between atoms: O_4  and  N_5
REMARK    5  A    between atoms: C_6  and  C_8
REMARK    6  A    between atoms: C_8  and  C_10
REMARK    7  A    between atoms: C_10  and  C_11
REMARK    8  A    between atoms: C_10  and  N_18
REMARK    9  A    between atoms: C_11  and  C_12
REMARK   10  A    between atoms: C_19  and  C_21
REMARK   11  A    between atoms: C_26  and  N_27
REMARK   12  A    between atoms: C_30  and  C_31
REMARK                            x       y       z     vdW  Elec       q    Type
REMARK                         _______ _______ _______ _____ _____    ______ ____
ROOT
ATOM      1  N   UNL     1       5.601   5.126  18.603  0.00  0.00    +0.000 N 
ATOM      2  C   UNL     1       4.392   4.513  18.343  0.00  0.00    +0.000 C 
ATOM      3  O   UNL     1       4.042   4.170  17.222  0.00  0.00    +0.000 OA
ATOM      4  H   UNL     1       5.861   5.369  19.555  0.00  0.00    +0.000 HD
ENDROOT
BRANCH   2   5
ATOM      5  C   UNL     1       3.576   4.176  19.539  0.00  0.00    +0.000 A 
ATOM      6  C   UNL     1       3.750   2.894  20.092  0.00  0.00    +0.000 A 
ATOM      7  C   UNL     1       2.945   2.461  21.143  0.00  0.00    +0.000 A 
ATOM      8  C   UNL     1       1.956   3.308  21.597  0.00  0.00    +0.000 A 
ATOM      9  N   UNL     1       1.722   4.524  21.065  0.00  0.00    +0.000 NA
ATOM     10  C   UNL     1       2.543   4.962  20.053  0.00  0.00    +0.000 A 
BRANCH  10  11
ATOM     11  N   UNL     1       2.267   6.281  19.577  0.00  0.00    +0.000 N 
ATOM     12  C   UNL     1       2.567   6.733  18.307  0.00  0.00    +0.000 A 
ATOM     13  C   UNL     1       2.226   8.060  18.271  0.00  0.00    +0.000 A 
ATOM     14  C   UNL     1       1.634   8.328  19.531  0.00  0.00    +0.000 A 
ATOM     15  N   UNL     1       1.595   7.218  20.287  0.00  0.00    +0.000 NA
BRANCH  14  16
ATOM     16  C   UNL     1       1.154   9.621  20.018  0.00  0.00    +0.000 A 
ATOM     17  C   UNL     1       0.597   9.744  21.299  0.00  0.00    +0.000 A 
ATOM     18  C   UNL     1       0.051  10.960  21.721  0.00  0.00    +0.000 A 
ATOM     19  C   UNL     1       0.063  12.061  20.869  0.00  0.00    +0.000 A 
ATOM     20  C   UNL     1       0.636  11.957  19.602  0.00  0.00    +0.000 A 
ATOM     21  C   UNL     1       1.184  10.743  19.180  0.00  0.00    +0.000 A 
ENDBRANCH  14  16
ENDBRANCH  10  11
ENDBRANCH   2   5
BRANCH   1  22
ATOM     22  C   UNL     1       6.502   5.596  17.536  0.00  0.00    +0.000 C 
BRANCH  22  23
ATOM     23  C   UNL     1       7.517   6.552  18.169  0.00  0.00    +0.000 C 
ATOM     24  O   UNL     1       8.249   6.257  19.117  0.00  0.00    +0.000 OA
BRANCH  23  26
ATOM     25  N   UNL     1       8.496   8.766  18.285  0.00  0.00    +0.000 N 
ATOM     26  C   UNL     1       7.557   7.992  17.645  0.00  0.00    +0.000 C 
ATOM     27  O   UNL     1       6.782   8.347  16.768  0.00  0.00    +0.000 OA
ATOM     28  H   UNL     1       8.835   8.473  19.198  0.00  0.00    +0.000 HD
BRANCH  25  29
ATOM     29  O   UNL     1       8.382  10.161  18.049  0.00  0.00    +0.000 OA
BRANCH  29  30
ATOM     30  C   UNL     1       9.544  10.820  18.564  0.00  0.00    +0.000 C 
BRANCH  30  32
ATOM     31  C   UNL     1      10.454  11.834  20.691  0.00  0.00    +0.000 C 
ATOM     32  C   UNL     1       9.460  10.855  20.088  0.00  0.00    +0.000 C 
ENDBRANCH  30  32
ENDBRANCH  29  30
ENDBRANCH  25  29
ENDBRANCH  23  26
ENDBRANCH  22  23
BRANCH  22  33
ATOM     33  C   UNL     1       7.129   4.444  16.733  0.00  0.00    +0.000 C 
BRANCH  33  34
ATOM     34  C   UNL     1       6.981   4.510  15.229  0.00  0.00    +0.000 A 
ATOM     35  C   UNL     1       7.830   5.328  14.472  0.00  0.00    +0.000 A 
ATOM     36  C   UNL     1       7.780   5.304  13.077  0.00  0.00    +0.000 A 
ATOM     37  C   UNL     1       6.873   4.472  12.426  0.00  0.00    +0.000 A 
ATOM     38  C   UNL     1       6.003   3.675  13.168  0.00  0.00    +0.000 A 
ATOM     39  C   UNL     1       6.058   3.691  14.563  0.00  0.00    +0.000 A 
ENDBRANCH  33  34
ENDBRANCH  22  33
ENDBRANCH   1  22
TORSDOF 11
ENDMDL
MODEL 8
REMARK VINA RESULT:      -7.8      1.696      4.442
REMARK  Name = 
REMARK  12 active torsions:
REMARK  status: ('A' for Active; 'I' for Inactive)
REMARK    1  A    between atoms: C_1  and  C_2
REMARK    2  A    between atoms: C_2  and  C_3
REMARK    3  A    between atoms: C_3  and  O_4
REMARK    4  A    between atoms: O_4  and  N_5
REMARK    5  A    between atoms: C_6  and  C_8
REMARK    6  A    between atoms: C_8  and  C_10
REMARK    7  A    between atoms: C_10  and  C_11
REMARK    8  A    between atoms: C_10  and  N_18
REMARK    9  A    between atoms: C_11  and  C_12
REMARK   10  A    between atoms: C_19  and  C_21
REMARK   11  A    between atoms: C_26  and  N_27
REMARK   12  A    between atoms: C_30  and  C_31
REMARK                            x       y       z     vdW  Elec       q    Type
REMARK                         _______ _______ _______ _____ _____    ______ ____
ROOT
ATOM      1  N   UNL     1       3.967   6.543  17.072  0.00  0.00    +0.000 N 
ATOM      2  C   UNL     1       4.390   5.245  16.866  0.00  0.00    +0.000 C 
ATOM      3  O   UNL     1       3.935   4.287  17.477  0.00  0.00    +0.000 OA
ATOM      4  H   UNL     1       4.354   7.304  16.522  0.00  0.00    +0.000 HD
ENDROOT
BRANCH   2   5
ATOM      5  C   UNL     1       5.359   5.058  15.754  0.00  0.00    +0.000 A 
ATOM      6  C   UNL     1       4.924   4.311  14.645  0.00  0.00    +0.000 A 
ATOM      7  C   UNL     1       5.805   3.997  13.614  0.00  0.00    +0.000 A 
ATOM      8  C   UNL     1       7.117   4.405  13.731  0.00  0.00    +0.000 A 
ATOM      9  N   UNL     1       7.589   5.080  14.798  0.00  0.00    +0.000 NA
ATOM     10  C   UNL     1       6.707   5.421  15.796  0.00  0.00    +0.000 A 
BRANCH  10  11
ATOM     11  N   UNL     1       7.268   6.181  16.868  0.00  0.00    +0.000 N 
ATOM     12  C   UNL     1       7.542   5.679  18.124  0.00  0.00    +0.000 A 
ATOM     13  C   UNL     1       7.989   6.731  18.880  0.00  0.00    +0.000 A 
ATOM     14  C   UNL     1       8.052   7.831  17.989  0.00  0.00    +0.000 A 
ATOM     15  N   UNL     1       7.685   7.464  16.749  0.00  0.00    +0.000 NA
BRANCH  14  16
ATOM     16  C   UNL     1       8.415   9.208  18.320  0.00  0.00    +0.000 A 
ATOM     17  C   UNL     1       8.097  10.263  17.451  0.00  0.00    +0.000 A 
ATOM     18  C   UNL     1       8.532  11.563  17.725  0.00  0.00    +0.000 A 
ATOM     19  C   UNL     1       9.281  11.819  18.871  0.00  0.00    +0.000 A 
ATOM     20  C   UNL     1       9.582  10.783  19.754  0.00  0.00    +0.000 A 
ATOM     21  C   UNL     1       9.147   9.484  19.482  0.00  0.00    +0.000 A 
ENDBRANCH  14  16
ENDBRANCH  10  11
ENDBRANCH   2   5
BRANCH   1  22
ATOM     22  C   UNL     1       3.067   6.923  18.175  0.00  0.00    +0.000 C 
BRANCH  22  23
ATOM     23  C   UNL     1       3.524   6.174  19.429  0.00  0.00    +0.000 C 
ATOM     24  O   UNL     1       4.703   6.018  19.752  0.00  0.00    +0.000 OA
BRANCH  23  26
ATOM     25  N   UNL     1       2.798   4.237  20.693  0.00  0.00    +0.000 N 
ATOM     26  C   UNL     1       2.445   5.502  20.287  0.00  0.00    +0.000 C 
ATOM     27  O   UNL     1       1.393   6.083  20.516  0.00  0.00    +0.000 OA
ATOM     28  H   UNL     1       3.522   3.740  20.180  0.00  0.00    +0.000 HD
BRANCH  25  29
ATOM     29  O   UNL     1       1.738   3.466  21.237  0.00  0.00    +0.000 OA
BRANCH  29  30
ATOM     30  C   UNL     1       1.905   2.098  20.847  0.00  0.00    +0.000 C 
BRANCH  30  32
ATOM     31  C   UNL     1       0.594   2.500  18.726  0.00  0.00    +0.000 C 
ATOM     32  C   UNL     1       1.905   2.013  19.323  0.00  0.00    +0.000 C 
ENDBRANCH  30  32
ENDBRANCH  29  30
ENDBRANCH  25  29
ENDBRANCH  23  26
ENDBRANCH  22  23
BRANCH  22  33
ATOM     33  C   UNL     1       2.947   8.445  18.351  0.00  0.00    +0.000 C 
BRANCH  33  34
ATOM     34  C   UNL     1       1.573   8.981  18.692  0.00  0.00    +0.000 A 
ATOM     35  C   UNL     1       1.194   9.148  20.031  0.00  0.00    +0.000 A 
ATOM     36  C   UNL     1      -0.022   9.752  20.353  0.00  0.00    +0.000 A 
ATOM     37  C   UNL     1      -0.877  10.182  19.341  0.00  0.00    +0.000 A 
ATOM     38  C   UNL     1      -0.524   9.995  18.006  0.00  0.00    +0.000 A 
ATOM     39  C   UNL     1       0.696   9.400  17.682  0.00  0.00    +0.000 A 
ENDBRANCH  33  34
ENDBRANCH  22  33
ENDBRANCH   1  22
TORSDOF 11
ENDMDL
MODEL 9
REMARK VINA RESULT:      -7.8      1.254      1.561
REMARK  Name = 
REMARK  12 active torsions:
REMARK  status: ('A' for Active; 'I' for Inactive)
REMARK    1  A    between atoms: C_1  and  C_2
REMARK    2  A    between atoms: C_2  and  C_3
REMARK    3  A    between atoms: C_3  and  O_4
REMARK    4  A    between atoms: O_4  and  N_5
REMARK    5  A    between atoms: C_6  and  C_8
REMARK    6  A    between atoms: C_8  and  C_10
REMARK    7  A    between atoms: C_10  and  C_11
REMARK    8  A    between atoms: C_10  and  N_18
REMARK    9  A    between atoms: C_11  and  C_12
REMARK   10  A    between atoms: C_19  and  C_21
REMARK   11  A    between atoms: C_26  and  N_27
REMARK   12  A    between atoms: C_30  and  C_31
REMARK                            x       y       z     vdW  Elec       q    Type
REMARK                         _______ _______ _______ _____ _____    ______ ____
ROOT
ATOM      1  N   UNL     1       3.500   6.754  18.142  0.00  0.00    +0.000 N 
ATOM      2  C   UNL     1       4.728   6.142  18.294  0.00  0.00    +0.000 C 
ATOM      3  O   UNL     1       5.185   5.819  19.382  0.00  0.00    +0.000 OA
ATOM      4  H   UNL     1       3.148   6.979  17.216  0.00  0.00    +0.000 HD
ENDROOT
BRANCH   2   5
ATOM      5  C   UNL     1       5.421   5.779  17.031  0.00  0.00    +0.000 A 
ATOM      6  C   UNL     1       4.767   4.868  16.181  0.00  0.00    +0.000 A 
ATOM      7  C   UNL     1       5.399   4.391  15.035  0.00  0.00    +0.000 A 
ATOM      8  C   UNL     1       6.688   4.808  14.780  0.00  0.00    +0.000 A 
ATOM      9  N   UNL     1       7.370   5.641  15.592  0.00  0.00    +0.000 NA
ATOM     10  C   UNL     1       6.730   6.138  16.702  0.00  0.00    +0.000 A 
BRANCH  10  11
ATOM     11  N   UNL     1       7.498   7.055  17.485  0.00  0.00    +0.000 N 
ATOM     12  C   UNL     1       8.135   6.733  18.666  0.00  0.00    +0.000 A 
ATOM     13  C   UNL     1       8.685   7.893  19.145  0.00  0.00    +0.000 A 
ATOM     14  C   UNL     1       8.423   8.869  18.151  0.00  0.00    +0.000 A 
ATOM     15  N   UNL     1       7.767   8.328  17.111  0.00  0.00    +0.000 NA
BRANCH  14  16
ATOM     16  C   UNL     1       8.754  10.292  18.211  0.00  0.00    +0.000 A 
ATOM     17  C   UNL     1       9.723  10.768  19.107  0.00  0.00    +0.000 A 
ATOM     18  C   UNL     1       9.964  12.139  19.229  0.00  0.00    +0.000 A 
ATOM     19  C   UNL     1       9.243  13.044  18.453  0.00  0.00    +0.000 A 
ATOM     20  C   UNL     1       8.294  12.581  17.542  0.00  0.00    +0.000 A 
ATOM     21  C   UNL     1       8.054  11.211  17.418  0.00  0.00    +0.000 A 
ENDBRANCH  14  16
ENDBRANCH  10  11
ENDBRANCH   2   5
BRANCH   1  22
ATOM     22  C   UNL     1       2.708   7.248  19.282  0.00  0.00    +0.000 C 
BRANCH  22  23
ATOM     23  C   UNL     1       1.770   8.340  18.762  0.00  0.00    +0.000 C 
ATOM     24  O   UNL     1       1.582   8.581  17.567  0.00  0.00    +0.000 OA
BRANCH  23  26
ATOM     25  N   UNL     1       0.960  10.544  19.363  0.00  0.00    +0.000 N 
ATOM     26  C   UNL     1       1.093   9.246  19.797  0.00  0.00    +0.000 C 
ATOM     27  O   UNL     1       0.763   8.795  20.884  0.00  0.00    +0.000 OA
ATOM     28  H   UNL     1       1.556  10.874  18.608  0.00  0.00    +0.000 HD
BRANCH  25  29
ATOM     29  O   UNL     1       0.611  11.479  20.372  0.00  0.00    +0.000 OA
BRANCH  29  30
ATOM     30  C   UNL     1       1.088  12.775  19.996  0.00  0.00    +0.000 C 
BRANCH  30  32
ATOM     31  C   UNL     1      -0.255  14.640  18.948  0.00  0.00    +0.000 C 
ATOM     32  C   UNL     1      -0.035  13.791  20.189  0.00  0.00    +0.000 C 
ENDBRANCH  30  32
ENDBRANCH  29  30
ENDBRANCH  25  29
ENDBRANCH  23  26
ENDBRANCH  22  23
BRANCH  22  33
ATOM     33  C   UNL     1       2.004   6.119  20.054  0.00  0.00    +0.000 C 
BRANCH  33  34
ATOM     34  C   UNL     1       2.089   4.734  19.452  0.00  0.00    +0.000 A 
ATOM     35  C   UNL     1       2.578   3.664  20.213  0.00  0.00    +0.000 A 
ATOM     36  C   UNL     1       2.548   2.362  19.709  0.00  0.00    +0.000 A 
ATOM     37  C   UNL     1       2.041   2.120  18.434  0.00  0.00    +0.000 A 
ATOM     38  C   UNL     1       1.579   3.180  17.656  0.00  0.00    +0.000 A 
ATOM     39  C   UNL     1       1.600   4.481  18.163  0.00  0.00    +0.000 A 
ENDBRANCH  33  34
ENDBRANCH  22  33
ENDBRANCH   1  22
TORSDOF 11
ENDMDL
