MODEL 1
REMARK VINA RESULT:      -6.6      0.000      0.000
REMARK  Name = 
REMARK  2 active torsions:
REMARK  status: ('A' for Active; 'I' for Inactive)
REMARK    1  A    between atoms: N_1  and  N_2
REMARK    2  A    between atoms: C_8  and  N_9
REMARK                            x       y       z     vdW  Elec       q    Type
REMARK                         _______ _______ _______ _____ _____    ______ ____
ROOT
ATOM      1  N   UNL     1       6.585   4.046  18.276  0.00  0.00    +0.000 N 
ATOM      2  C   UNL     1       5.448   4.874  18.164  0.00  0.00    +0.000 A 
ATOM      3  N   UNL     1       5.518   6.033  17.486  0.00  0.00    +0.000 NA
ATOM      4  C   UNL     1       4.388   6.755  17.410  0.00  0.00    +0.000 A 
ATOM      5  C   UNL     1       3.207   6.361  17.984  0.00  0.00    +0.000 A 
ATOM      6  F   UNL     1       2.123   7.148  17.900  0.00  0.00    +0.000 F 
ATOM      7  C   UNL     1       3.208   5.168  18.698  0.00  0.00    +0.000 A 
ATOM      8  N   UNL     1       4.339   4.433  18.792  0.00  0.00    +0.000 NA
ATOM      9  H   UNL     1       6.388   3.388  19.032  0.00  0.00    +0.000 HD
ENDROOT
BRANCH   7  10
ATOM     10  N   UNL     1       2.073   4.746  19.376  0.00  0.00    +0.000 N 
ATOM     11  C   UNL     1       1.980   4.928  20.830  0.00  0.00    +0.000 C 
ATOM     12  C   UNL     1       2.102   3.600  21.584  0.00  0.00    +0.000 C 
ATOM     13  O   UNL     1       1.183   2.620  21.076  0.00  0.00    +0.000 OA
ATOM     14  C   UNL     1       1.463   2.362  19.691  0.00  0.00    +0.000 C 
ATOM     15  C   UNL     1       1.290   3.625  18.831  0.00  0.00    +0.000 C 
ENDBRANCH   7  10
BRANCH   1  16
ATOM     16  N   UNL     1       7.872   4.613  18.167  0.00  0.00    +0.000 NA
ATOM     17  H   UNL     1       8.593   3.893  18.124  0.00  0.00    +0.000 HD
ATOM     18  H   UNL     1       8.075   5.213  18.969  0.00  0.00    +0.000 HD
ENDBRANCH   1  16
TORSDOF 2
ENDMDL
MODEL 2
REMARK VINA RESULT:      -6.4      1.392      1.934
REMARK  Name = 
REMARK  2 active torsions:
REMARK  status: ('A' for Active; 'I' for Inactive)
REMARK    1  A    between atoms: N_1  and  N_2
REMARK    2  A    between atoms: C_8  and  N_9
REMARK                            x       y       z     vdW  Elec       q    Type
REMARK                         _______ _______ _______ _____ _____    ______ ____
ROOT
ATOM      1  N   UNL     1       7.582   5.358  19.287  0.00  0.00    +0.000 N 
ATOM      2  C   UNL     1       6.249   5.327  18.827  0.00  0.00    +0.000 A 
ATOM      3  N   UNL     1       5.845   6.170  17.861  0.00  0.00    +0.000 NA
ATOM      4  C   UNL     1       4.566   6.066  17.465  0.00  0.00    +0.000 A 
ATOM      5  C   UNL     1       3.689   5.158  17.999  0.00  0.00    +0.000 A 
ATOM      6  F   UNL     1       2.413   5.130  17.583  0.00  0.00    +0.000 F 
ATOM      7  C   UNL     1       4.159   4.335  19.017  0.00  0.00    +0.000 A 
ATOM      8  N   UNL     1       5.441   4.433  19.434  0.00  0.00    +0.000 NA
ATOM      9  H   UNL     1       7.592   4.849  20.173  0.00  0.00    +0.000 HD
ENDROOT
BRANCH   7  10
ATOM     10  N   UNL     1       3.307   3.449  19.662  0.00  0.00    +0.000 N 
ATOM     11  C   UNL     1       2.830   2.251  18.960  0.00  0.00    +0.000 C 
ATOM     12  C   UNL     1       1.347   2.354  18.590  0.00  0.00    +0.000 C 
ATOM     13  O   UNL     1       0.543   2.702  19.729  0.00  0.00    +0.000 OA
ATOM     14  C   UNL     1       0.953   3.978  20.243  0.00  0.00    +0.000 C 
ATOM     15  C   UNL     1       2.416   3.956  20.718  0.00  0.00    +0.000 C 
ENDBRANCH   7  10
BRANCH   1  16
ATOM     16  N   UNL     1       8.335   6.544  19.159  0.00  0.00    +0.000 NA
ATOM     17  H   UNL     1       9.250   6.452  19.599  0.00  0.00    +0.000 HD
ATOM     18  H   UNL     1       7.853   7.331  19.599  0.00  0.00    +0.000 HD
ENDBRANCH   1  16
TORSDOF 2
ENDMDL
MODEL 3
REMARK VINA RESULT:      -6.4      3.136      5.249
REMARK  Name = 
REMARK  2 active torsions:
REMARK  status: ('A' for Active; 'I' for Inactive)
REMARK    1  A    between atoms: N_1  and  N_2
REMARK    2  A    between atoms: C_8  and  N_9
REMARK                            x       y       z     vdW  Elec       q    Type
REMARK                         _______ _______ _______ _____ _____    ______ ____
ROOT
ATOM      1  N   UNL     1       1.771   1.899  18.583  0.00  0.00    +0.000 N 
ATOM      2  C   UNL     1       2.382   3.118  18.221  0.00  0.00    +0.000 A 
ATOM      3  N   UNL     1       1.688   4.268  18.281  0.00  0.00    +0.000 NA
ATOM      4  C   UNL     1       2.346   5.387  17.937  0.00  0.00    +0.000 A 
ATOM      5  C   UNL     1       3.658   5.393  17.541  0.00  0.00    +0.000 A 
ATOM      6  F   UNL     1       4.245   6.543  17.177  0.00  0.00    +0.000 F 
ATOM      7  C   UNL     1       4.311   4.167  17.470  0.00  0.00    +0.000 A 
ATOM      8  N   UNL     1       3.661   3.030  17.803  0.00  0.00    +0.000 NA
ATOM      9  H   UNL     1       2.368   1.157  18.212  0.00  0.00    +0.000 HD
ENDROOT
BRANCH   7  10
ATOM     10  N   UNL     1       5.614   4.085  16.997  0.00  0.00    +0.000 N 
ATOM     11  C   UNL     1       6.703   4.731  17.740  0.00  0.00    +0.000 C 
ATOM     12  C   UNL     1       7.235   5.972  17.016  0.00  0.00    +0.000 C 
ATOM     13  O   UNL     1       7.575   5.680  15.651  0.00  0.00    +0.000 OA
ATOM     14  C   UNL     1       6.409   5.229  14.945  0.00  0.00    +0.000 C 
ATOM     15  C   UNL     1       5.841   3.935  15.551  0.00  0.00    +0.000 C 
ENDBRANCH   7  10
BRANCH   1  16
ATOM     16  N   UNL     1       0.369   1.770  18.495  0.00  0.00    +0.000 NA
ATOM     17  H   UNL     1      -0.030   2.473  17.873  0.00  0.00    +0.000 HD
ATOM     18  H   UNL     1      -0.065   1.882  19.414  0.00  0.00    +0.000 HD
ENDBRANCH   1  16
TORSDOF 2
ENDMDL
MODEL 4
REMARK VINA RESULT:      -6.3      2.543      3.313
REMARK  Name = 
REMARK  2 active torsions:
REMARK  status: ('A' for Active; 'I' for Inactive)
REMARK    1  A    between atoms: N_1  and  N_2
REMARK    2  A    between atoms: C_8  and  N_9
REMARK                            x       y       z     vdW  Elec       q    Type
REMARK                         _______ _______ _______ _____ _____    ______ ____
ROOT
ATOM      1  N   UNL     1       6.414   5.386  14.485  0.00  0.00    +0.000 N 
ATOM      2  C   UNL     1       6.401   5.437  15.895  0.00  0.00    +0.000 A 
ATOM      3  N   UNL     1       7.433   5.980  16.563  0.00  0.00    +0.000 NA
ATOM      4  C   UNL     1       7.338   6.007  17.902  0.00  0.00    +0.000 A 
ATOM      5  C   UNL     1       6.257   5.513  18.586  0.00  0.00    +0.000 A 
ATOM      6  F   UNL     1       6.240   5.539  19.927  0.00  0.00    +0.000 F 
ATOM      7  C   UNL     1       5.235   4.936  17.839  0.00  0.00    +0.000 A 
ATOM      8  N   UNL     1       5.320   4.892  16.490  0.00  0.00    +0.000 NA
ATOM      9  H   UNL     1       5.694   4.713  14.215  0.00  0.00    +0.000 HD
ENDROOT
BRANCH   7  10
ATOM     10  N   UNL     1       4.149   4.341  18.465  0.00  0.00    +0.000 N 
ATOM     11  C   UNL     1       3.972   2.885  18.393  0.00  0.00    +0.000 C 
ATOM     12  C   UNL     1       2.803   2.493  17.482  0.00  0.00    +0.000 C 
ATOM     13  O   UNL     1       1.601   3.193  17.838  0.00  0.00    +0.000 OA
ATOM     14  C   UNL     1       1.803   4.608  17.702  0.00  0.00    +0.000 C 
ATOM     15  C   UNL     1       2.911   5.117  18.639  0.00  0.00    +0.000 C 
ENDBRANCH   7  10
BRANCH   1  16
ATOM     16  N   UNL     1       7.647   5.396  13.799  0.00  0.00    +0.000 NA
ATOM     17  H   UNL     1       8.281   4.686  14.167  0.00  0.00    +0.000 HD
ATOM     18  H   UNL     1       8.106   6.304  13.888  0.00  0.00    +0.000 HD
ENDBRANCH   1  16
TORSDOF 2
ENDMDL
MODEL 5
REMARK VINA RESULT:      -6.3      2.239      2.730
REMARK  Name = 
REMARK  2 active torsions:
REMARK  status: ('A' for Active; 'I' for Inactive)
REMARK    1  A    between atoms: N_1  and  N_2
REMARK    2  A    between atoms: C_8  and  N_9
REMARK                            x       y       z     vdW  Elec       q    Type
REMARK                         _______ _______ _______ _____ _____    ______ ____
ROOT
ATOM      1  N   UNL     1       7.344   5.185  19.530  0.00  0.00    +0.000 N 
ATOM      2  C   UNL     1       6.723   4.867  18.304  0.00  0.00    +0.000 A 
ATOM      3  N   UNL     1       7.369   5.071  17.143  0.00  0.00    +0.000 NA
ATOM      4  C   UNL     1       6.716   4.726  16.021  0.00  0.00    +0.000 A 
ATOM      5  C   UNL     1       5.454   4.191  16.023  0.00  0.00    +0.000 A 
ATOM      6  F   UNL     1       4.845   3.901  14.864  0.00  0.00    +0.000 F 
ATOM      7  C   UNL     1       4.827   4.034  17.255  0.00  0.00    +0.000 A 
ATOM      8  N   UNL     1       5.466   4.385  18.393  0.00  0.00    +0.000 NA
ATOM      9  H   UNL     1       6.601   5.210  20.231  0.00  0.00    +0.000 HD
ENDROOT
BRANCH   7  10
ATOM     10  N   UNL     1       3.518   3.577  17.330  0.00  0.00    +0.000 N 
ATOM     11  C   UNL     1       2.430   4.522  17.610  0.00  0.00    +0.000 C 
ATOM     12  C   UNL     1       1.862   4.341  19.022  0.00  0.00    +0.000 C 
ATOM     13  O   UNL     1       1.504   2.974  19.274  0.00  0.00    +0.000 OA
ATOM     14  C   UNL     1       2.666   2.138  19.162  0.00  0.00    +0.000 C 
ATOM     15  C   UNL     1       3.269   2.188  17.749  0.00  0.00    +0.000 C 
ENDBRANCH   7  10
BRANCH   1  16
ATOM     16  N   UNL     1       8.361   6.163  19.561  0.00  0.00    +0.000 NA
ATOM     17  H   UNL     1       8.951   6.112  18.731  0.00  0.00    +0.000 HD
ATOM     18  H   UNL     1       8.960   6.039  20.380  0.00  0.00    +0.000 HD
ENDBRANCH   1  16
TORSDOF 2
ENDMDL
MODEL 6
REMARK VINA RESULT:      -6.3      2.016      2.468
REMARK  Name = 
REMARK  2 active torsions:
REMARK  status: ('A' for Active; 'I' for Inactive)
REMARK    1  A    between atoms: N_1  and  N_2
REMARK    2  A    between atoms: C_8  and  N_9
REMARK                            x       y       z     vdW  Elec       q    Type
REMARK                         _______ _______ _______ _____ _____    ______ ____
ROOT
ATOM      1  N   UNL     1       6.654   4.416  15.006  0.00  0.00    +0.000 N 
ATOM      2  C   UNL     1       5.648   4.718  15.947  0.00  0.00    +0.000 A 
ATOM      3  N   UNL     1       5.296   5.995  16.176  0.00  0.00    +0.000 NA
ATOM      4  C   UNL     1       4.319   6.199  17.075  0.00  0.00    +0.000 A 
ATOM      5  C   UNL     1       3.691   5.180  17.743  0.00  0.00    +0.000 A 
ATOM      6  F   UNL     1       2.746   5.455  18.655  0.00  0.00    +0.000 F 
ATOM      7  C   UNL     1       4.123   3.883  17.485  0.00  0.00    +0.000 A 
ATOM      8  N   UNL     1       5.112   3.661  16.591  0.00  0.00    +0.000 NA
ATOM      9  H   UNL     1       6.939   3.452  15.189  0.00  0.00    +0.000 HD
ENDROOT
BRANCH   7  10
ATOM     10  N   UNL     1       3.593   2.807  18.184  0.00  0.00    +0.000 N 
ATOM     11  C   UNL     1       2.246   2.318  17.862  0.00  0.00    +0.000 C 
ATOM     12  C   UNL     1       1.233   2.663  18.959  0.00  0.00    +0.000 C 
ATOM     13  O   UNL     1       1.694   2.243  20.253  0.00  0.00    +0.000 OA
ATOM     14  C   UNL     1       2.925   2.911  20.572  0.00  0.00    +0.000 C 
ATOM     15  C   UNL     1       4.036   2.566  19.567  0.00  0.00    +0.000 C 
ENDBRANCH   7  10
BRANCH   1  16
ATOM     16  N   UNL     1       7.634   5.383  14.698  0.00  0.00    +0.000 NA
ATOM     17  H   UNL     1       7.924   5.321  13.723  0.00  0.00    +0.000 HD
ATOM     18  H   UNL     1       8.464   5.259  15.281  0.00  0.00    +0.000 HD
ENDBRANCH   1  16
TORSDOF 2
ENDMDL
MODEL 7
REMARK VINA RESULT:      -6.2      2.422      3.012
REMARK  Name = 
REMARK  2 active torsions:
REMARK  status: ('A' for Active; 'I' for Inactive)
REMARK    1  A    between atoms: N_1  and  N_2
REMARK    2  A    between atoms: C_8  and  N_9
REMARK                            x       y       z     vdW  Elec       q    Type
REMARK                         _______ _______ _______ _____ _____    ______ ____
ROOT
ATOM      1  N   UNL     1       6.725   5.505  14.425  0.00  0.00    +0.000 N 
ATOM      2  C   UNL     1       6.415   5.141  15.752  0.00  0.00    +0.000 A 
ATOM      3  N   UNL     1       7.353   5.214  16.712  0.00  0.00    +0.000 NA
ATOM      4  C   UNL     1       6.975   4.867  17.953  0.00  0.00    +0.000 A 
ATOM      5  C   UNL     1       5.705   4.453  18.261  0.00  0.00    +0.000 A 
ATOM      6  F   UNL     1       5.402   4.086  19.515  0.00  0.00    +0.000 F 
ATOM      7  C   UNL     1       4.789   4.368  17.218  0.00  0.00    +0.000 A 
ATOM      8  N   UNL     1       5.155   4.705  15.961  0.00  0.00    +0.000 NA
ATOM      9  H   UNL     1       5.979   5.122  13.841  0.00  0.00    +0.000 HD
ENDROOT
BRANCH   7  10
ATOM     10  N   UNL     1       3.509   3.877  17.437  0.00  0.00    +0.000 N 
ATOM     11  C   UNL     1       2.481   4.750  18.018  0.00  0.00    +0.000 C 
ATOM     12  C   UNL     1       2.149   4.362  19.463  0.00  0.00    +0.000 C 
ATOM     13  O   UNL     1       1.834   2.965  19.574  0.00  0.00    +0.000 OA
ATOM     14  C   UNL     1       2.962   2.178  19.160  0.00  0.00    +0.000 C 
ATOM     15  C   UNL     1       3.328   2.439  17.689  0.00  0.00    +0.000 C 
ENDBRANCH   7  10
BRANCH   1  16
ATOM     16  N   UNL     1       8.061   5.436  13.978  0.00  0.00    +0.000 NA
ATOM     17  H   UNL     1       8.191   5.963  13.115  0.00  0.00    +0.000 HD
ATOM     18  H   UNL     1       8.336   4.468  13.799  0.00  0.00    +0.000 HD
ENDBRANCH   1  16
TORSDOF 2
ENDMDL
MODEL 8
REMARK VINA RESULT:      -6.2      2.680      3.322
REMARK  Name = 
REMARK  2 active torsions:
REMARK  status: ('A' for Active; 'I' for Inactive)
REMARK    1  A    between atoms: N_1  and  N_2
REMARK    2  A    between atoms: C_8  and  N_9
REMARK                            x       y       z     vdW  Elec       q    Type
REMARK                         _______ _______ _______ _____ _____    ______ ____
ROOT
ATOM      1  N   UNL     1       5.637   4.044  14.117  0.00  0.00    +0.000 N 
ATOM      2  C   UNL     1       5.899   4.279  15.483  0.00  0.00    +0.000 A 
ATOM      3  N   UNL     1       7.147   4.567  15.894  0.00  0.00    +0.000 NA
ATOM      4  C   UNL     1       7.311   4.795  17.207  0.00  0.00    +0.000 A 
ATOM      5  C   UNL     1       6.281   4.744  18.111  0.00  0.00    +0.000 A 
ATOM      6  F   UNL     1       6.520   4.947  19.415  0.00  0.00    +0.000 F 
ATOM      7  C   UNL     1       5.020   4.411  17.627  0.00  0.00    +0.000 A 
ATOM      8  N   UNL     1       4.839   4.168  16.309  0.00  0.00    +0.000 NA
ATOM      9  H   UNL     1       4.722   3.591  14.073  0.00  0.00    +0.000 HD
ENDROOT
BRANCH   7  10
ATOM     10  N   UNL     1       3.946   4.258  18.493  0.00  0.00    +0.000 N 
ATOM     11  C   UNL     1       3.721   2.967  19.157  0.00  0.00    +0.000 C 
ATOM     12  C   UNL     1       2.499   2.237  18.590  0.00  0.00    +0.000 C 
ATOM     13  O   UNL     1       1.337   3.081  18.583  0.00  0.00    +0.000 OA
ATOM     14  C   UNL     1       1.577   4.232  17.758  0.00  0.00    +0.000 C 
ATOM     15  C   UNL     1       2.743   5.081  18.292  0.00  0.00    +0.000 C 
ENDBRANCH   7  10
BRANCH   1  16
ATOM     16  N   UNL     1       6.676   3.591  13.277  0.00  0.00    +0.000 NA
ATOM     17  H   UNL     1       6.316   3.006  12.523  0.00  0.00    +0.000 HD
ATOM     18  H   UNL     1       7.358   3.042  13.803  0.00  0.00    +0.000 HD
ENDBRANCH   1  16
TORSDOF 2
ENDMDL
MODEL 9
REMARK VINA RESULT:      -6.2      2.932      5.162
REMARK  Name = 
REMARK  2 active torsions:
REMARK  status: ('A' for Active; 'I' for Inactive)
REMARK    1  A    between atoms: N_1  and  N_2
REMARK    2  A    between atoms: C_8  and  N_9
REMARK                            x       y       z     vdW  Elec       q    Type
REMARK                         _______ _______ _______ _____ _____    ______ ____
ROOT
ATOM      1  N   UNL     1       2.174   3.684  21.520  0.00  0.00    +0.000 N 
ATOM      2  C   UNL     1       2.594   3.644  20.174  0.00  0.00    +0.000 A 
ATOM      3  N   UNL     1       2.062   2.749  19.324  0.00  0.00    +0.000 NA
ATOM      4  C   UNL     1       2.502   2.786  18.056  0.00  0.00    +0.000 A 
ATOM      5  C   UNL     1       3.447   3.676  17.617  0.00  0.00    +0.000 A 
ATOM      6  F   UNL     1       3.869   3.636  16.344  0.00  0.00    +0.000 F 
ATOM      7  C   UNL     1       3.982   4.556  18.552  0.00  0.00    +0.000 A 
ATOM      8  N   UNL     1       3.557   4.526  19.835  0.00  0.00    +0.000 NA
ATOM      9  H   UNL     1       2.877   4.226  22.025  0.00  0.00    +0.000 HD
ENDROOT
BRANCH   7  10
ATOM     10  N   UNL     1       5.002   5.429  18.201  0.00  0.00    +0.000 N 
ATOM     11  C   UNL     1       4.707   6.598  17.363  0.00  0.00    +0.000 C 
ATOM     12  C   UNL     1       5.266   6.443  15.944  0.00  0.00    +0.000 C 
ATOM     13  O   UNL     1       6.660   6.097  15.963  0.00  0.00    +0.000 OA
ATOM     14  C   UNL     1       6.841   4.844  16.641  0.00  0.00    +0.000 C 
ATOM     15  C   UNL     1       6.379   4.919  18.106  0.00  0.00    +0.000 C 
ENDBRANCH   7  10
BRANCH   1  16
ATOM     16  N   UNL     1       1.631   2.526  22.115  0.00  0.00    +0.000 NA
ATOM     17  H   UNL     1       1.726   1.715  21.504  0.00  0.00    +0.000 HD
ATOM     18  H   UNL     1       0.637   2.652  22.316  0.00  0.00    +0.000 HD
ENDBRANCH   1  16
TORSDOF 2
ENDMDL
