MODEL 1
REMARK VINA RESULT:      -8.1      0.000      0.000
REMARK  Name = 
REMARK  6 active torsions:
REMARK  status: ('A' for Active; 'I' for Inactive)
REMARK    1  A    between atoms: C_1  and  O_2
REMARK    2  A    between atoms: O_2  and  C_3
REMARK    3  A    between atoms: C_5  and  C_6
REMARK    4  A    between atoms: C_8  and  N_9
REMARK    5  A    between atoms: C_10  and  C_11
REMARK    6  A    between atoms: C_10  and  C_12
REMARK                            x       y       z     vdW  Elec       q    Type
REMARK                         _______ _______ _______ _____ _____    ______ ____
ROOT
ATOM      1  N   UNL     1       4.179   6.967  17.599  0.00  0.00    +0.000 NA
ATOM      2  C   UNL     1       3.115   6.673  18.290  0.00  0.00    +0.000 C 
ATOM      3  C   UNL     1       2.667   5.288  18.714  0.00  0.00    +0.000 C 
ENDROOT
BRANCH   2   4
ATOM      4  C   UNL     1       2.239   7.812  18.724  0.00  0.00    +0.000 A 
ATOM      5  C   UNL     1       1.762   8.750  17.803  0.00  0.00    +0.000 A 
ATOM      6  C   UNL     1       0.905   9.772  18.217  0.00  0.00    +0.000 A 
ATOM      7  C   UNL     1       0.509   9.879  19.558  0.00  0.00    +0.000 A 
ATOM      8  C   UNL     1      -0.374  10.887  19.981  0.00  0.00    +0.000 A 
ATOM      9  C   UNL     1      -0.766  10.975  21.317  0.00  0.00    +0.000 A 
ATOM     10  C   UNL     1      -0.274  10.065  22.247  0.00  0.00    +0.000 A 
ATOM     11  C   UNL     1       0.602   9.056  21.842  0.00  0.00    +0.000 A 
ATOM     12  C   UNL     1       0.998   8.943  20.498  0.00  0.00    +0.000 A 
ATOM     13  C   UNL     1       1.857   7.916  20.069  0.00  0.00    +0.000 A 
ENDBRANCH   2   4
BRANCH   1  19
ATOM     14  C   UNL     1       7.016   4.907  17.451  0.00  0.00    +0.000 A 
ATOM     15  N   UNL     1       6.952   4.363  16.236  0.00  0.00    +0.000 NA
ATOM     16  C   UNL     1       5.898   4.741  15.516  0.00  0.00    +0.000 A 
ATOM     17  C   UNL     1       5.778   4.206  14.123  0.00  0.00    +0.000 C 
ATOM     18  N   UNL     1       4.945   5.564  15.949  0.00  0.00    +0.000 NA
ATOM     19  C   UNL     1       5.117   6.024  17.187  0.00  0.00    +0.000 A 
ATOM     20  N   UNL     1       6.145   5.756  17.973  0.00  0.00    +0.000 NA
BRANCH  14  22
ATOM     21  C   UNL     1       8.166   5.400  19.412  0.00  0.00    +0.000 C 
ATOM     22  O   UNL     1       8.009   4.510  18.318  0.00  0.00    +0.000 OA
ENDBRANCH  14  22
ENDBRANCH   1  19
TORSDOF 3
ENDMDL
MODEL 2
REMARK VINA RESULT:      -8.0      1.873      2.469
REMARK  Name = 
REMARK  6 active torsions:
REMARK  status: ('A' for Active; 'I' for Inactive)
REMARK    1  A    between atoms: C_1  and  O_2
REMARK    2  A    between atoms: O_2  and  C_3
REMARK    3  A    between atoms: C_5  and  C_6
REMARK    4  A    between atoms: C_8  and  N_9
REMARK    5  A    between atoms: C_10  and  C_11
REMARK    6  A    between atoms: C_10  and  C_12
REMARK                            x       y       z     vdW  Elec       q    Type
REMARK                         _______ _______ _______ _____ _____    ______ ____
ROOT
ATOM      1  N   UNL     1       2.515   6.568  19.716  0.00  0.00    +0.000 NA
ATOM      2  C   UNL     1       2.337   7.618  18.964  0.00  0.00    +0.000 C 
ATOM      3  C   UNL     1       2.930   7.854  17.588  0.00  0.00    +0.000 C 
ENDROOT
BRANCH   2   4
ATOM      4  C   UNL     1       1.453   8.707  19.499  0.00  0.00    +0.000 A 
ATOM      5  C   UNL     1       0.962   9.715  18.664  0.00  0.00    +0.000 A 
ATOM      6  C   UNL     1       0.099  10.689  19.170  0.00  0.00    +0.000 A 
ATOM      7  C   UNL     1      -0.290  10.677  20.517  0.00  0.00    +0.000 A 
ATOM      8  C   UNL     1      -1.179  11.636  21.029  0.00  0.00    +0.000 A 
ATOM      9  C   UNL     1      -1.564  11.606  22.371  0.00  0.00    +0.000 A 
ATOM     10  C   UNL     1      -1.057  10.625  23.216  0.00  0.00    +0.000 A 
ATOM     11  C   UNL     1      -0.174   9.662  22.721  0.00  0.00    +0.000 A 
ATOM     12  C   UNL     1       0.214   9.668  21.371  0.00  0.00    +0.000 A 
ATOM     13  C   UNL     1       1.079   8.691  20.850  0.00  0.00    +0.000 A 
ENDBRANCH   2   4
BRANCH   1  19
ATOM     14  C   UNL     1       5.172   4.433  18.886  0.00  0.00    +0.000 A 
ATOM     15  N   UNL     1       4.571   3.358  18.376  0.00  0.00    +0.000 NA
ATOM     16  C   UNL     1       3.242   3.428  18.353  0.00  0.00    +0.000 A 
ATOM     17  C   UNL     1       2.494   2.277  17.755  0.00  0.00    +0.000 C 
ATOM     18  N   UNL     1       2.532   4.452  18.824  0.00  0.00    +0.000 NA
ATOM     19  C   UNL     1       3.252   5.455  19.324  0.00  0.00    +0.000 A 
ATOM     20  N   UNL     1       4.572   5.515  19.354  0.00  0.00    +0.000 NA
BRANCH  14  22
ATOM     21  C   UNL     1       7.235   4.689  17.842  0.00  0.00    +0.000 C 
ATOM     22  O   UNL     1       6.540   4.428  19.050  0.00  0.00    +0.000 OA
ENDBRANCH  14  22
ENDBRANCH   1  19
TORSDOF 3
ENDMDL
MODEL 3
REMARK VINA RESULT:      -7.6      1.136      2.268
REMARK  Name = 
REMARK  6 active torsions:
REMARK  status: ('A' for Active; 'I' for Inactive)
REMARK    1  A    between atoms: C_1  and  O_2
REMARK    2  A    between atoms: O_2  and  C_3
REMARK    3  A    between atoms: C_5  and  C_6
REMARK    4  A    between atoms: C_8  and  N_9
REMARK    5  A    between atoms: C_10  and  C_11
REMARK    6  A    between atoms: C_10  and  C_12
REMARK                            x       y       z     vdW  Elec       q    Type
REMARK                         _______ _______ _______ _____ _____    ______ ____
ROOT
ATOM      1  N   UNL     1       4.470   7.287  17.422  0.00  0.00    +0.000 NA
ATOM      2  C   UNL     1       3.368   6.839  17.954  0.00  0.00    +0.000 C 
ATOM      3  C   UNL     1       2.946   5.386  18.069  0.00  0.00    +0.000 C 
ENDROOT
BRANCH   2   4
ATOM      4  C   UNL     1       2.415   7.851  18.520  0.00  0.00    +0.000 A 
ATOM      5  C   UNL     1       1.802   8.804  17.702  0.00  0.00    +0.000 A 
ATOM      6  C   UNL     1       0.878   9.704  18.239  0.00  0.00    +0.000 A 
ATOM      7  C   UNL     1       0.549   9.669  19.602  0.00  0.00    +0.000 A 
ATOM      8  C   UNL     1      -0.398  10.551  20.147  0.00  0.00    +0.000 A 
ATOM      9  C   UNL     1      -0.722  10.500  21.504  0.00  0.00    +0.000 A 
ATOM     10  C   UNL     1      -0.095   9.574  22.332  0.00  0.00    +0.000 A 
ATOM     11  C   UNL     1       0.847   8.689  21.804  0.00  0.00    +0.000 A 
ATOM     12  C   UNL     1       1.175   8.717  20.439  0.00  0.00    +0.000 A 
ATOM     13  C   UNL     1       2.101   7.815  19.886  0.00  0.00    +0.000 A 
ENDBRANCH   2   4
BRANCH   1  19
ATOM     14  C   UNL     1       6.397   5.273  15.292  0.00  0.00    +0.000 A 
ATOM     15  N   UNL     1       7.314   4.740  16.099  0.00  0.00    +0.000 NA
ATOM     16  C   UNL     1       7.220   5.123  17.370  0.00  0.00    +0.000 A 
ATOM     17  C   UNL     1       8.188   4.534  18.349  0.00  0.00    +0.000 C 
ATOM     18  N   UNL     1       6.322   5.991  17.832  0.00  0.00    +0.000 NA
ATOM     19  C   UNL     1       5.474   6.465  16.920  0.00  0.00    +0.000 A 
ATOM     20  N   UNL     1       5.444   6.119  15.644  0.00  0.00    +0.000 NA
BRANCH  14  22
ATOM     21  C   UNL     1       5.733   3.868  13.560  0.00  0.00    +0.000 C 
ATOM     22  O   UNL     1       6.462   5.025  13.938  0.00  0.00    +0.000 OA
ENDBRANCH  14  22
ENDBRANCH   1  19
TORSDOF 3
ENDMDL
MODEL 4
REMARK VINA RESULT:      -7.5      1.837      3.018
REMARK  Name = 
REMARK  6 active torsions:
REMARK  status: ('A' for Active; 'I' for Inactive)
REMARK    1  A    between atoms: C_1  and  O_2
REMARK    2  A    between atoms: O_2  and  C_3
REMARK    3  A    between atoms: C_5  and  C_6
REMARK    4  A    between atoms: C_8  and  N_9
REMARK    5  A    between atoms: C_10  and  C_11
REMARK    6  A    between atoms: C_10  and  C_12
REMARK                            x       y       z     vdW  Elec       q    Type
REMARK                         _______ _______ _______ _____ _____    ______ ____
ROOT
ATOM      1  N   UNL     1       2.539   6.423  20.158  0.00  0.00    +0.000 NA
ATOM      2  C   UNL     1       2.176   7.506  19.533  0.00  0.00    +0.000 C 
ATOM      3  C   UNL     1       2.504   7.874  18.098  0.00  0.00    +0.000 C 
ENDROOT
BRANCH   2   4
ATOM      4  C   UNL     1       1.342   8.495  20.295  0.00  0.00    +0.000 A 
ATOM      5  C   UNL     1       1.255   8.445  21.689  0.00  0.00    +0.000 A 
ATOM      6  C   UNL     1       0.516   9.406  22.383  0.00  0.00    +0.000 A 
ATOM      7  C   UNL     1      -0.149  10.434  21.700  0.00  0.00    +0.000 A 
ATOM      8  C   UNL     1      -0.873  11.421  22.389  0.00  0.00    +0.000 A 
ATOM      9  C   UNL     1      -1.523  12.443  21.696  0.00  0.00    +0.000 A 
ATOM     10  C   UNL     1      -1.466  12.483  20.307  0.00  0.00    +0.000 A 
ATOM     11  C   UNL     1      -0.749  11.511  19.607  0.00  0.00    +0.000 A 
ATOM     12  C   UNL     1      -0.077  10.483  20.288  0.00  0.00    +0.000 A 
ATOM     13  C   UNL     1       0.672   9.512  19.600  0.00  0.00    +0.000 A 
ENDBRANCH   2   4
BRANCH   1  19
ATOM     14  C   UNL     1       5.145   4.478  18.840  0.00  0.00    +0.000 A 
ATOM     15  N   UNL     1       4.517   3.473  18.231  0.00  0.00    +0.000 NA
ATOM     16  C   UNL     1       3.189   3.518  18.317  0.00  0.00    +0.000 A 
ATOM     17  C   UNL     1       2.409   2.447  17.621  0.00  0.00    +0.000 C 
ATOM     18  N   UNL     1       2.507   4.452  18.979  0.00  0.00    +0.000 NA
ATOM     19  C   UNL     1       3.254   5.389  19.560  0.00  0.00    +0.000 A 
ATOM     20  N   UNL     1       4.572   5.472  19.499  0.00  0.00    +0.000 NA
BRANCH  14  22
ATOM     21  C   UNL     1       7.121   4.777  17.649  0.00  0.00    +0.000 C 
ATOM     22  O   UNL     1       6.521   4.478  18.899  0.00  0.00    +0.000 OA
ENDBRANCH  14  22
ENDBRANCH   1  19
TORSDOF 3
ENDMDL
MODEL 5
REMARK VINA RESULT:      -7.4      2.713      8.055
REMARK  Name = 
REMARK  6 active torsions:
REMARK  status: ('A' for Active; 'I' for Inactive)
REMARK    1  A    between atoms: C_1  and  O_2
REMARK    2  A    between atoms: O_2  and  C_3
REMARK    3  A    between atoms: C_5  and  C_6
REMARK    4  A    between atoms: C_8  and  N_9
REMARK    5  A    between atoms: C_10  and  C_11
REMARK    6  A    between atoms: C_10  and  C_12
REMARK                            x       y       z     vdW  Elec       q    Type
REMARK                         _______ _______ _______ _____ _____    ______ ____
ROOT
ATOM      1  N   UNL     1       3.651   5.450  17.773  0.00  0.00    +0.000 NA
ATOM      2  C   UNL     1       4.933   5.214  17.792  0.00  0.00    +0.000 C 
ATOM      3  C   UNL     1       5.804   5.055  19.024  0.00  0.00    +0.000 C 
ENDROOT
BRANCH   2   4
ATOM      4  C   UNL     1       5.627   5.076  16.469  0.00  0.00    +0.000 A 
ATOM      5  C   UNL     1       6.911   5.593  16.268  0.00  0.00    +0.000 A 
ATOM      6  C   UNL     1       7.561   5.409  15.046  0.00  0.00    +0.000 A 
ATOM      7  C   UNL     1       6.944   4.705  14.002  0.00  0.00    +0.000 A 
ATOM      8  C   UNL     1       7.600   4.491  12.778  0.00  0.00    +0.000 A 
ATOM      9  C   UNL     1       6.976   3.782  11.751  0.00  0.00    +0.000 A 
ATOM     10  C   UNL     1       5.688   3.288  11.931  0.00  0.00    +0.000 A 
ATOM     11  C   UNL     1       5.024   3.491  13.142  0.00  0.00    +0.000 A 
ATOM     12  C   UNL     1       5.641   4.191  14.193  0.00  0.00    +0.000 A 
ATOM     13  C   UNL     1       4.997   4.380  15.428  0.00  0.00    +0.000 A 
ENDBRANCH   2   4
BRANCH   1  19
ATOM     14  C   UNL     1       1.533   4.639  20.450  0.00  0.00    +0.000 A 
ATOM     15  N   UNL     1       1.228   5.821  20.985  0.00  0.00    +0.000 NA
ATOM     16  C   UNL     1       1.793   6.863  20.380  0.00  0.00    +0.000 A 
ATOM     17  C   UNL     1       1.464   8.230  20.896  0.00  0.00    +0.000 C 
ATOM     18  N   UNL     1       2.628   6.774  19.347  0.00  0.00    +0.000 NA
ATOM     19  C   UNL     1       2.865   5.535  18.919  0.00  0.00    +0.000 A 
ATOM     20  N   UNL     1       2.324   4.434  19.410  0.00  0.00    +0.000 NA
BRANCH  14  22
ATOM     21  C   UNL     1       2.139   2.717  21.613  0.00  0.00    +0.000 C 
ATOM     22  O   UNL     1       1.084   3.486  21.057  0.00  0.00    +0.000 OA
ENDBRANCH  14  22
ENDBRANCH   1  19
TORSDOF 3
ENDMDL
MODEL 6
REMARK VINA RESULT:      -7.4      4.204      5.605
REMARK  Name = 
REMARK  6 active torsions:
REMARK  status: ('A' for Active; 'I' for Inactive)
REMARK    1  A    between atoms: C_1  and  O_2
REMARK    2  A    between atoms: O_2  and  C_3
REMARK    3  A    between atoms: C_5  and  C_6
REMARK    4  A    between atoms: C_8  and  N_9
REMARK    5  A    between atoms: C_10  and  C_11
REMARK    6  A    between atoms: C_10  and  C_12
REMARK                            x       y       z     vdW  Elec       q    Type
REMARK                         _______ _______ _______ _____ _____    ______ ____
ROOT
ATOM      1  N   UNL     1       5.389   4.111  15.475  0.00  0.00    +0.000 NA
ATOM      2  C   UNL     1       4.966   5.166  16.112  0.00  0.00    +0.000 C 
ATOM      3  C   UNL     1       5.092   6.607  15.655  0.00  0.00    +0.000 C 
ENDROOT
BRANCH   2   4
ATOM      4  C   UNL     1       4.278   4.947  17.428  0.00  0.00    +0.000 A 
ATOM      5  C   UNL     1       4.479   5.818  18.503  0.00  0.00    +0.000 A 
ATOM      6  C   UNL     1       3.789   5.627  19.702  0.00  0.00    +0.000 A 
ATOM      7  C   UNL     1       2.887   4.564  19.852  0.00  0.00    +0.000 A 
ATOM      8  C   UNL     1       2.167   4.379  21.044  0.00  0.00    +0.000 A 
ATOM      9  C   UNL     1       1.266   3.321  21.175  0.00  0.00    +0.000 A 
ATOM     10  C   UNL     1       1.082   2.432  20.121  0.00  0.00    +0.000 A 
ATOM     11  C   UNL     1       1.787   2.604  18.929  0.00  0.00    +0.000 A 
ATOM     12  C   UNL     1       2.689   3.671  18.773  0.00  0.00    +0.000 A 
ATOM     13  C   UNL     1       3.386   3.875  17.570  0.00  0.00    +0.000 A 
ENDBRANCH   2   4
BRANCH   1  19
ATOM     14  C   UNL     1       6.313   3.346  12.178  0.00  0.00    +0.000 A 
ATOM     15  N   UNL     1       7.307   4.194  11.920  0.00  0.00    +0.000 NA
ATOM     16  C   UNL     1       7.609   5.014  12.924  0.00  0.00    +0.000 A 
ATOM     17  C   UNL     1       8.745   5.969  12.728  0.00  0.00    +0.000 C 
ATOM     18  N   UNL     1       6.970   5.042  14.093  0.00  0.00    +0.000 NA
ATOM     19  C   UNL     1       5.983   4.155  14.217  0.00  0.00    +0.000 A 
ATOM     20  N   UNL     1       5.630   3.263  13.308  0.00  0.00    +0.000 NA
BRANCH  14  22
ATOM     21  C   UNL     1       6.552   1.288  11.119  0.00  0.00    +0.000 C 
ATOM     22  O   UNL     1       5.852   2.520  11.176  0.00  0.00    +0.000 OA
ENDBRANCH  14  22
ENDBRANCH   1  19
TORSDOF 3
ENDMDL
MODEL 7
REMARK VINA RESULT:      -7.3      1.611      2.021
REMARK  Name = 
REMARK  6 active torsions:
REMARK  status: ('A' for Active; 'I' for Inactive)
REMARK    1  A    between atoms: C_1  and  O_2
REMARK    2  A    between atoms: O_2  and  C_3
REMARK    3  A    between atoms: C_5  and  C_6
REMARK    4  A    between atoms: C_8  and  N_9
REMARK    5  A    between atoms: C_10  and  C_11
REMARK    6  A    between atoms: C_10  and  C_12
REMARK                            x       y       z     vdW  Elec       q    Type
REMARK                         _______ _______ _______ _____ _____    ______ ____
ROOT
ATOM      1  N   UNL     1       3.078   7.073  18.665  0.00  0.00    +0.000 NA
ATOM      2  C   UNL     1       2.221   7.005  19.645  0.00  0.00    +0.000 C 
ATOM      3  C   UNL     1       1.888   5.776  20.470  0.00  0.00    +0.000 C 
ENDROOT
BRANCH   2   4
ATOM      4  C   UNL     1       1.489   8.263  20.009  0.00  0.00    +0.000 A 
ATOM      5  C   UNL     1       1.353   9.312  19.094  0.00  0.00    +0.000 A 
ATOM      6  C   UNL     1       0.624  10.453  19.434  0.00  0.00    +0.000 A 
ATOM      7  C   UNL     1       0.017  10.571  20.693  0.00  0.00    +0.000 A 
ATOM      8  C   UNL     1      -0.741  11.702  21.035  0.00  0.00    +0.000 A 
ATOM      9  C   UNL     1      -1.347  11.802  22.288  0.00  0.00    +0.000 A 
ATOM     10  C   UNL     1      -1.193  10.777  23.216  0.00  0.00    +0.000 A 
ATOM     11  C   UNL     1      -0.444   9.644  22.890  0.00  0.00    +0.000 A 
ATOM     12  C   UNL     1       0.161   9.521  21.628  0.00  0.00    +0.000 A 
ATOM     13  C   UNL     1       0.895   8.375  21.274  0.00  0.00    +0.000 A 
ENDBRANCH   2   4
BRANCH   1  19
ATOM     14  C   UNL     1       5.070   4.185  18.687  0.00  0.00    +0.000 A 
ATOM     15  N   UNL     1       5.552   4.120  17.447  0.00  0.00    +0.000 NA
ATOM     16  C   UNL     1       5.146   5.101  16.644  0.00  0.00    +0.000 A 
ATOM     17  C   UNL     1       5.679   5.123  15.245  0.00  0.00    +0.000 C 
ATOM     18  N   UNL     1       4.299   6.066  17.001  0.00  0.00    +0.000 NA
ATOM     19  C   UNL     1       3.876   6.006  18.263  0.00  0.00    +0.000 A 
ATOM     20  N   UNL     1       4.250   5.109  19.159  0.00  0.00    +0.000 NA
BRANCH  14  22
ATOM     21  C   UNL     1       4.180   2.462  19.974  0.00  0.00    +0.000 C 
ATOM     22  O   UNL     1       5.345   3.166  19.573  0.00  0.00    +0.000 OA
ENDBRANCH  14  22
ENDBRANCH   1  19
TORSDOF 3
ENDMDL
MODEL 8
REMARK VINA RESULT:      -7.3      3.969      8.189
REMARK  Name = 
REMARK  6 active torsions:
REMARK  status: ('A' for Active; 'I' for Inactive)
REMARK    1  A    between atoms: C_1  and  O_2
REMARK    2  A    between atoms: O_2  and  C_3
REMARK    3  A    between atoms: C_5  and  C_6
REMARK    4  A    between atoms: C_8  and  N_9
REMARK    5  A    between atoms: C_10  and  C_11
REMARK    6  A    between atoms: C_10  and  C_12
REMARK                            x       y       z     vdW  Elec       q    Type
REMARK                         _______ _______ _______ _____ _____    ______ ____
ROOT
ATOM      1  N   UNL     1       1.517   9.125  18.053  0.00  0.00    +0.000 NA
ATOM      2  C   UNL     1       1.865   8.231  18.934  0.00  0.00    +0.000 C 
ATOM      3  C   UNL     1       1.533   8.243  20.414  0.00  0.00    +0.000 C 
ENDROOT
BRANCH   2   4
ATOM      4  C   UNL     1       2.671   7.062  18.447  0.00  0.00    +0.000 A 
ATOM      5  C   UNL     1       2.439   5.771  18.931  0.00  0.00    +0.000 A 
ATOM      6  C   UNL     1       3.163   4.688  18.428  0.00  0.00    +0.000 A 
ATOM      7  C   UNL     1       4.133   4.873  17.431  0.00  0.00    +0.000 A 
ATOM      8  C   UNL     1       4.848   3.788  16.899  0.00  0.00    +0.000 A 
ATOM      9  C   UNL     1       5.804   3.986  15.901  0.00  0.00    +0.000 A 
ATOM     10  C   UNL     1       6.063   5.270  15.434  0.00  0.00    +0.000 A 
ATOM     11  C   UNL     1       5.359   6.359  15.951  0.00  0.00    +0.000 A 
ATOM     12  C   UNL     1       4.383   6.177  16.946  0.00  0.00    +0.000 A 
ATOM     13  C   UNL     1       3.646   7.259  17.458  0.00  0.00    +0.000 A 
ENDBRANCH   2   4
BRANCH   1  19
ATOM     14  C   UNL     1      -1.236  11.281  18.342  0.00  0.00    +0.000 A 
ATOM     15  N   UNL     1      -0.700  12.431  18.750  0.00  0.00    +0.000 NA
ATOM     16  C   UNL     1       0.620  12.396  18.915  0.00  0.00    +0.000 A 
ATOM     17  C   UNL     1       1.304  13.662  19.331  0.00  0.00    +0.000 C 
ATOM     18  N   UNL     1       1.375  11.314  18.735  0.00  0.00    +0.000 NA
ATOM     19  C   UNL     1       0.715  10.225  18.345  0.00  0.00    +0.000 A 
ATOM     20  N   UNL     1      -0.583  10.156  18.103  0.00  0.00    +0.000 NA
BRANCH  14  22
ATOM     21  C   UNL     1      -3.017   9.909  17.741  0.00  0.00    +0.000 C 
ATOM     22  O   UNL     1      -2.605  11.175  18.234  0.00  0.00    +0.000 OA
ENDBRANCH  14  22
ENDBRANCH   1  19
TORSDOF 3
ENDMDL
MODEL 9
REMARK VINA RESULT:      -7.3      1.790      2.262
REMARK  Name = 
REMARK  6 active torsions:
REMARK  status: ('A' for Active; 'I' for Inactive)
REMARK    1  A    between atoms: C_1  and  O_2
REMARK    2  A    between atoms: O_2  and  C_3
REMARK    3  A    between atoms: C_5  and  C_6
REMARK    4  A    between atoms: C_8  and  N_9
REMARK    5  A    between atoms: C_10  and  C_11
REMARK    6  A    between atoms: C_10  and  C_12
REMARK                            x       y       z     vdW  Elec       q    Type
REMARK                         _______ _______ _______ _____ _____    ______ ____
ROOT
ATOM      1  N   UNL     1       2.812   6.810  19.027  0.00  0.00    +0.000 NA
ATOM      2  C   UNL     1       1.968   6.913  20.014  0.00  0.00    +0.000 C 
ATOM      3  C   UNL     1       1.553   5.809  20.968  0.00  0.00    +0.000 C 
ENDROOT
BRANCH   2   4
ATOM      4  C   UNL     1       1.341   8.257  20.247  0.00  0.00    +0.000 A 
ATOM      5  C   UNL     1       1.343   9.239  19.252  0.00  0.00    +0.000 A 
ATOM      6  C   UNL     1       0.709  10.464  19.470  0.00  0.00    +0.000 A 
ATOM      7  C   UNL     1       0.061  10.733  20.684  0.00  0.00    +0.000 A 
ATOM      8  C   UNL     1      -0.603  11.951  20.903  0.00  0.00    +0.000 A 
ATOM      9  C   UNL     1      -1.251  12.201  22.114  0.00  0.00    +0.000 A 
ATOM     10  C   UNL     1      -1.233  11.242  23.121  0.00  0.00    +0.000 A 
ATOM     11  C   UNL     1      -0.580  10.025  22.917  0.00  0.00    +0.000 A 
ATOM     12  C   UNL     1       0.066   9.750  21.700  0.00  0.00    +0.000 A 
ATOM     13  C   UNL     1       0.705   8.519  21.469  0.00  0.00    +0.000 A 
ENDBRANCH   2   4
BRANCH   1  19
ATOM     14  C   UNL     1       5.410   4.510  18.510  0.00  0.00    +0.000 A 
ATOM     15  N   UNL     1       4.801   3.456  17.967  0.00  0.00    +0.000 NA
ATOM     16  C   UNL     1       3.486   3.598  17.812  0.00  0.00    +0.000 A 
ATOM     17  C   UNL     1       2.736   2.473  17.169  0.00  0.00    +0.000 C 
ATOM     18  N   UNL     1       2.794   4.672  18.188  0.00  0.00    +0.000 NA
ATOM     19  C   UNL     1       3.518   5.647  18.734  0.00  0.00    +0.000 A 
ATOM     20  N   UNL     1       4.830   5.635  18.892  0.00  0.00    +0.000 NA
BRANCH  14  22
ATOM     21  C   UNL     1       7.577   4.698  17.684  0.00  0.00    +0.000 C 
ATOM     22  O   UNL     1       6.753   4.434  18.808  0.00  0.00    +0.000 OA
ENDBRANCH  14  22
ENDBRANCH   1  19
TORSDOF 3
ENDMDL
