MODEL 1
REMARK VINA RESULT:      -9.7      0.000      0.000
REMARK  Name = 
REMARK  3 active torsions:
REMARK  status: ('A' for Active; 'I' for Inactive)
REMARK    1  A    between atoms: N_3  and  N_4
REMARK    2  A    between atoms: C_12  and  C_13
REMARK    3  A    between atoms: C_20  and  C_21
REMARK                            x       y       z     vdW  Elec       q    Type
REMARK                         _______ _______ _______ _____ _____    ______ ____
ROOT
ATOM      1  N   UNL     1       5.022   4.918  16.235  0.00  0.00    +0.000 N 
ATOM      2  C   UNL     1       4.383   4.021  17.080  0.00  0.00    +0.000 A 
ATOM      3  N   UNL     1       3.550   4.318  18.027  0.00  0.00    +0.000 NA
ATOM      4  C   UNL     1       3.325   5.688  18.164  0.00  0.00    +0.000 A 
ATOM      5  C   UNL     1       3.870   6.626  17.336  0.00  0.00    +0.000 A 
ATOM      6  O   UNL     1       3.416   7.866  17.675  0.00  0.00    +0.000 OA
ATOM      7  C   UNL     1       2.580   7.691  18.762  0.00  0.00    +0.000 A 
ATOM      8  N   UNL     1       1.940   8.708  19.371  0.00  0.00    +0.000 NA
ATOM      9  C   UNL     1       1.175   8.339  20.434  0.00  0.00    +0.000 A 
ATOM     10  C   UNL     1       1.032   7.013  20.853  0.00  0.00    +0.000 A 
ATOM     11  C   UNL     1       1.726   5.984  20.215  0.00  0.00    +0.000 A 
ATOM     12  C   UNL     1       2.521   6.335  19.114  0.00  0.00    +0.000 A 
ATOM     13  C   UNL     1       4.770   6.304  16.263  0.00  0.00    +0.000 A 
ATOM     14  O   UNL     1       5.236   7.088  15.443  0.00  0.00    +0.000 OA
ENDROOT
BRANCH   9  15
ATOM     15  C   UNL     1       0.509   9.437  21.178  0.00  0.00    +0.000 A 
ATOM     16  C   UNL     1       0.521  10.760  20.704  0.00  0.00    +0.000 A 
ATOM     17  C   UNL     1      -0.109  11.793  21.410  0.00  0.00    +0.000 A 
ATOM     18  C   UNL     1      -0.763  11.528  22.610  0.00  0.00    +0.000 A 
ATOM     19  C   UNL     1      -0.790  10.229  23.105  0.00  0.00    +0.000 A 
ATOM     20  C   UNL     1      -0.160   9.200  22.398  0.00  0.00    +0.000 A 
ENDBRANCH   9  15
BRANCH  11  21
ATOM     21  C   UNL     1       1.654   4.607  20.674  0.00  0.00    +0.000 A 
ATOM     22  C   UNL     1       0.864   3.514  20.378  0.00  0.00    +0.000 A 
ATOM     23  C   UNL     1       1.281   2.460  21.220  0.00  0.00    +0.000 A 
ATOM     24  C   UNL     1       2.341   2.952  21.942  0.00  0.00    +0.000 A 
ATOM     25  O   UNL     1       2.580   4.248  21.615  0.00  0.00    +0.000 OA
ENDBRANCH  11  21
BRANCH   1  28
ATOM     26  O   UNL     1       7.810   4.530  16.444  0.00  0.00    +0.000 OA
ATOM     27  C   UNL     1       7.208   4.307  15.405  0.00  0.00    +0.000 C 
ATOM     28  N   UNL     1       5.846   4.400  15.213  0.00  0.00    +0.000 N 
ATOM     29  H   UNL     1       5.438   4.369  14.282  0.00  0.00    +0.000 HD
ENDBRANCH   1  28
TORSDOF 3
ENDMDL
MODEL 2
REMARK VINA RESULT:      -9.7      0.516      1.153
REMARK  Name = 
REMARK  3 active torsions:
REMARK  status: ('A' for Active; 'I' for Inactive)
REMARK    1  A    between atoms: N_3  and  N_4
REMARK    2  A    between atoms: C_12  and  C_13
REMARK    3  A    between atoms: C_20  and  C_21
REMARK                            x       y       z     vdW  Elec       q    Type
REMARK                         _______ _______ _______ _____ _____    ______ ____
ROOT
ATOM      1  N   UNL     1       5.010   4.893  16.222  0.00  0.00    +0.000 N 
ATOM      2  C   UNL     1       4.412   3.994  17.095  0.00  0.00    +0.000 A 
ATOM      3  N   UNL     1       3.598   4.286  18.059  0.00  0.00    +0.000 NA
ATOM      4  C   UNL     1       3.347   5.652  18.185  0.00  0.00    +0.000 A 
ATOM      5  C   UNL     1       3.850   6.591  17.332  0.00  0.00    +0.000 A 
ATOM      6  O   UNL     1       3.379   7.825  17.668  0.00  0.00    +0.000 OA
ATOM      7  C   UNL     1       2.575   7.646  18.778  0.00  0.00    +0.000 A 
ATOM      8  N   UNL     1       1.929   8.658  19.391  0.00  0.00    +0.000 NA
ATOM      9  C   UNL     1       1.200   8.286  20.478  0.00  0.00    +0.000 A 
ATOM     10  C   UNL     1       1.096   6.963  20.916  0.00  0.00    +0.000 A 
ATOM     11  C   UNL     1       1.796   5.940  20.273  0.00  0.00    +0.000 A 
ATOM     12  C   UNL     1       2.554   6.294  19.148  0.00  0.00    +0.000 A 
ATOM     13  C   UNL     1       4.729   6.274  16.240  0.00  0.00    +0.000 A 
ATOM     14  O   UNL     1       5.158   7.057  15.398  0.00  0.00    +0.000 OA
ENDROOT
BRANCH   9  15
ATOM     15  C   UNL     1       0.530   9.379  21.225  0.00  0.00    +0.000 A 
ATOM     16  C   UNL     1      -0.145   9.138  22.434  0.00  0.00    +0.000 A 
ATOM     17  C   UNL     1      -0.777  10.173  23.135  0.00  0.00    +0.000 A 
ATOM     18  C   UNL     1      -0.752  11.475  22.641  0.00  0.00    +0.000 A 
ATOM     19  C   UNL     1      -0.093  11.744  21.447  0.00  0.00    +0.000 A 
ATOM     20  C   UNL     1       0.536  10.709  20.749  0.00  0.00    +0.000 A 
ENDBRANCH   9  15
BRANCH  11  21
ATOM     21  C   UNL     1       1.764   4.569  20.751  0.00  0.00    +0.000 A 
ATOM     22  C   UNL     1       2.374   3.872  21.776  0.00  0.00    +0.000 A 
ATOM     23  C   UNL     1       1.949   2.529  21.676  0.00  0.00    +0.000 A 
ATOM     24  C   UNL     1       1.057   2.493  20.631  0.00  0.00    +0.000 A 
ATOM     25  O   UNL     1       0.932   3.723  20.070  0.00  0.00    +0.000 OA
ENDBRANCH  11  21
BRANCH   1  28
ATOM     26  O   UNL     1       7.810   4.571  16.362  0.00  0.00    +0.000 OA
ATOM     27  C   UNL     1       7.187   4.320  15.342  0.00  0.00    +0.000 C 
ATOM     28  N   UNL     1       5.818   4.380  15.185  0.00  0.00    +0.000 N 
ATOM     29  H   UNL     1       5.386   4.326  14.267  0.00  0.00    +0.000 HD
ENDBRANCH   1  28
TORSDOF 3
ENDMDL
MODEL 3
REMARK VINA RESULT:      -9.0      0.967      1.149
REMARK  Name = 
REMARK  3 active torsions:
REMARK  status: ('A' for Active; 'I' for Inactive)
REMARK    1  A    between atoms: N_3  and  N_4
REMARK    2  A    between atoms: C_12  and  C_13
REMARK    3  A    between atoms: C_20  and  C_21
REMARK                            x       y       z     vdW  Elec       q    Type
REMARK                         _______ _______ _______ _____ _____    ______ ____
ROOT
ATOM      1  N   UNL     1       5.532   4.757  16.489  0.00  0.00    +0.000 N 
ATOM      2  C   UNL     1       4.863   3.859  17.309  0.00  0.00    +0.000 A 
ATOM      3  N   UNL     1       3.951   4.148  18.182  0.00  0.00    +0.000 NA
ATOM      4  C   UNL     1       3.665   5.510  18.261  0.00  0.00    +0.000 A 
ATOM      5  C   UNL     1       4.236   6.448  17.450  0.00  0.00    +0.000 A 
ATOM      6  O   UNL     1       3.711   7.677  17.717  0.00  0.00    +0.000 OA
ATOM      7  C   UNL     1       2.802   7.498  18.742  0.00  0.00    +0.000 A 
ATOM      8  N   UNL     1       2.080   8.505  19.272  0.00  0.00    +0.000 NA
ATOM      9  C   UNL     1       1.251   8.134  20.284  0.00  0.00    +0.000 A 
ATOM     10  C   UNL     1       1.125   6.815  20.730  0.00  0.00    +0.000 A 
ATOM     11  C   UNL     1       1.904   5.798  20.176  0.00  0.00    +0.000 A 
ATOM     12  C   UNL     1       2.767   6.151  19.129  0.00  0.00    +0.000 A 
ATOM     13  C   UNL     1       5.227   6.133  16.457  0.00  0.00    +0.000 A 
ATOM     14  O   UNL     1       5.725   6.913  15.652  0.00  0.00    +0.000 OA
ENDROOT
BRANCH   9  15
ATOM     15  C   UNL     1       0.489   9.225  20.943  0.00  0.00    +0.000 A 
ATOM     16  C   UNL     1       0.137  10.397  20.253  0.00  0.00    +0.000 A 
ATOM     17  C   UNL     1      -0.581  11.424  20.880  0.00  0.00    +0.000 A 
ATOM     18  C   UNL     1      -0.961  11.303  22.215  0.00  0.00    +0.000 A 
ATOM     19  C   UNL     1      -0.626  10.155  22.923  0.00  0.00    +0.000 A 
ATOM     20  C   UNL     1       0.091   9.133  22.295  0.00  0.00    +0.000 A 
ENDBRANCH   9  15
BRANCH  11  21
ATOM     21  C   UNL     1       1.848   4.432  20.669  0.00  0.00    +0.000 A 
ATOM     22  C   UNL     1       2.360   3.761  21.762  0.00  0.00    +0.000 A 
ATOM     23  C   UNL     1       1.972   2.408  21.639  0.00  0.00    +0.000 A 
ATOM     24  C   UNL     1       1.195   2.342  20.507  0.00  0.00    +0.000 A 
ATOM     25  O   UNL     1       1.107   3.561  19.917  0.00  0.00    +0.000 OA
ENDBRANCH  11  21
BRANCH   1  28
ATOM     26  O   UNL     1       4.918   4.129  13.807  0.00  0.00    +0.000 OA
ATOM     27  C   UNL     1       6.026   3.921  14.277  0.00  0.00    +0.000 C 
ATOM     28  N   UNL     1       6.450   4.246  15.547  0.00  0.00    +0.000 N 
ATOM     29  H   UNL     1       7.324   3.888  15.923  0.00  0.00    +0.000 HD
ENDBRANCH   1  28
TORSDOF 3
ENDMDL
MODEL 4
REMARK VINA RESULT:      -8.4      2.079      7.233
REMARK  Name = 
REMARK  3 active torsions:
REMARK  status: ('A' for Active; 'I' for Inactive)
REMARK    1  A    between atoms: N_3  and  N_4
REMARK    2  A    between atoms: C_12  and  C_13
REMARK    3  A    between atoms: C_20  and  C_21
REMARK                            x       y       z     vdW  Elec       q    Type
REMARK                         _______ _______ _______ _____ _____    ______ ____
ROOT
ATOM      1  N   UNL     1       0.257   9.381  20.841  0.00  0.00    +0.000 N 
ATOM      2  C   UNL     1       0.296   8.093  21.358  0.00  0.00    +0.000 A 
ATOM      3  N   UNL     1       0.990   7.101  20.898  0.00  0.00    +0.000 NA
ATOM      4  C   UNL     1       1.744   7.422  19.769  0.00  0.00    +0.000 A 
ATOM      5  C   UNL     1       1.805   8.677  19.237  0.00  0.00    +0.000 A 
ATOM      6  O   UNL     1       2.670   8.696  18.185  0.00  0.00    +0.000 OA
ATOM      7  C   UNL     1       3.143   7.405  18.047  0.00  0.00    +0.000 A 
ATOM      8  N   UNL     1       4.032   7.042  17.101  0.00  0.00    +0.000 NA
ATOM      9  C   UNL     1       4.364   5.723  17.114  0.00  0.00    +0.000 A 
ATOM     10  C   UNL     1       3.857   4.813  18.046  0.00  0.00    +0.000 A 
ATOM     11  C   UNL     1       2.921   5.215  19.000  0.00  0.00    +0.000 A 
ATOM     12  C   UNL     1       2.560   6.570  19.010  0.00  0.00    +0.000 A 
ATOM     13  C   UNL     1       1.061   9.792  19.759  0.00  0.00    +0.000 A 
ATOM     14  O   UNL     1       1.125  10.955  19.374  0.00  0.00    +0.000 OA
ENDROOT
BRANCH   9  15
ATOM     15  C   UNL     1       5.286   5.267  16.044  0.00  0.00    +0.000 A 
ATOM     16  C   UNL     1       6.656   5.578  16.071  0.00  0.00    +0.000 A 
ATOM     17  C   UNL     1       7.522   5.145  15.058  0.00  0.00    +0.000 A 
ATOM     18  C   UNL     1       7.036   4.394  13.991  0.00  0.00    +0.000 A 
ATOM     19  C   UNL     1       5.685   4.071  13.936  0.00  0.00    +0.000 A 
ATOM     20  C   UNL     1       4.823   4.505  14.948  0.00  0.00    +0.000 A 
ENDBRANCH   9  15
BRANCH  11  21
ATOM     21  C   UNL     1       2.322   4.276  19.933  0.00  0.00    +0.000 A 
ATOM     22  C   UNL     1       1.057   3.753  20.124  0.00  0.00    +0.000 A 
ATOM     23  C   UNL     1       1.125   2.906  21.252  0.00  0.00    +0.000 A 
ATOM     24  C   UNL     1       2.440   2.913  21.651  0.00  0.00    +0.000 A 
ATOM     25  O   UNL     1       3.174   3.732  20.855  0.00  0.00    +0.000 OA
ENDBRANCH  11  21
BRANCH   1  28
ATOM     26  O   UNL     1       0.304   9.816  23.629  0.00  0.00    +0.000 OA
ATOM     27  C   UNL     1      -0.450  10.438  22.896  0.00  0.00    +0.000 C 
ATOM     28  N   UNL     1      -0.509  10.351  21.522  0.00  0.00    +0.000 N 
ATOM     29  H   UNL     1      -1.274  10.766  20.996  0.00  0.00    +0.000 HD
ENDBRANCH   1  28
TORSDOF 3
ENDMDL
MODEL 5
REMARK VINA RESULT:      -8.0      1.230      1.614
REMARK  Name = 
REMARK  3 active torsions:
REMARK  status: ('A' for Active; 'I' for Inactive)
REMARK    1  A    between atoms: N_3  and  N_4
REMARK    2  A    between atoms: C_12  and  C_13
REMARK    3  A    between atoms: C_20  and  C_21
REMARK                            x       y       z     vdW  Elec       q    Type
REMARK                         _______ _______ _______ _____ _____    ______ ____
ROOT
ATOM      1  N   UNL     1       5.796   4.376  15.820  0.00  0.00    +0.000 N 
ATOM      2  C   UNL     1       5.077   3.486  16.607  0.00  0.00    +0.000 A 
ATOM      3  N   UNL     1       4.193   3.795  17.501  0.00  0.00    +0.000 NA
ATOM      4  C   UNL     1       3.997   5.168  17.644  0.00  0.00    +0.000 A 
ATOM      5  C   UNL     1       4.621   6.102  16.869  0.00  0.00    +0.000 A 
ATOM      6  O   UNL     1       4.180   7.349  17.196  0.00  0.00    +0.000 OA
ATOM      7  C   UNL     1       3.270   7.183  18.222  0.00  0.00    +0.000 A 
ATOM      8  N   UNL     1       2.618   8.211  18.803  0.00  0.00    +0.000 NA
ATOM      9  C   UNL     1       1.775   7.849  19.807  0.00  0.00    +0.000 A 
ATOM     10  C   UNL     1       1.568   6.522  20.196  0.00  0.00    +0.000 A 
ATOM     11  C   UNL     1       2.274   5.482  19.589  0.00  0.00    +0.000 A 
ATOM     12  C   UNL     1       3.150   5.826  18.549  0.00  0.00    +0.000 A 
ATOM     13  C   UNL     1       5.581   5.768  15.852  0.00  0.00    +0.000 A 
ATOM     14  O   UNL     1       6.123   6.550  15.076  0.00  0.00    +0.000 OA
ENDROOT
BRANCH   9  15
ATOM     15  C   UNL     1       1.091   8.956  20.522  0.00  0.00    +0.000 A 
ATOM     16  C   UNL     1       0.691   8.829  21.863  0.00  0.00    +0.000 A 
ATOM     17  C   UNL     1       0.045   9.876  22.534  0.00  0.00    +0.000 A 
ATOM     18  C   UNL     1      -0.219  11.075  21.876  0.00  0.00    +0.000 A 
ATOM     19  C   UNL     1       0.164  11.230  20.549  0.00  0.00    +0.000 A 
ATOM     20  C   UNL     1       0.808  10.182  19.883  0.00  0.00    +0.000 A 
ENDBRANCH   9  15
BRANCH  11  21
ATOM     21  C   UNL     1       2.133   4.103  20.021  0.00  0.00    +0.000 A 
ATOM     22  C   UNL     1       1.177   3.117  19.865  0.00  0.00    +0.000 A 
ATOM     23  C   UNL     1       1.626   1.986  20.581  0.00  0.00    +0.000 A 
ATOM     24  C   UNL     1       2.859   2.325  21.086  0.00  0.00    +0.000 A 
ATOM     25  O   UNL     1       3.178   3.600  20.747  0.00  0.00    +0.000 OA
ENDBRANCH  11  21
BRANCH   1  28
ATOM     26  O   UNL     1       5.112   3.883  13.126  0.00  0.00    +0.000 OA
ATOM     27  C   UNL     1       6.213   3.595  13.571  0.00  0.00    +0.000 C 
ATOM     28  N   UNL     1       6.672   3.849  14.846  0.00  0.00    +0.000 N 
ATOM     29  H   UNL     1       7.528   3.428  15.196  0.00  0.00    +0.000 HD
ENDBRANCH   1  28
TORSDOF 3
ENDMDL
MODEL 6
REMARK VINA RESULT:      -7.7      2.132      7.452
REMARK  Name = 
REMARK  3 active torsions:
REMARK  status: ('A' for Active; 'I' for Inactive)
REMARK    1  A    between atoms: N_3  and  N_4
REMARK    2  A    between atoms: C_12  and  C_13
REMARK    3  A    between atoms: C_20  and  C_21
REMARK                            x       y       z     vdW  Elec       q    Type
REMARK                         _______ _______ _______ _____ _____    ______ ____
ROOT
ATOM      1  N   UNL     1       1.279   8.192  20.247  0.00  0.00    +0.000 N 
ATOM      2  C   UNL     1       1.574   6.917  20.711  0.00  0.00    +0.000 A 
ATOM      3  N   UNL     1       2.315   6.037  20.116  0.00  0.00    +0.000 NA
ATOM      4  C   UNL     1       2.829   6.471  18.895  0.00  0.00    +0.000 A 
ATOM      5  C   UNL     1       2.633   7.728  18.400  0.00  0.00    +0.000 A 
ATOM      6  O   UNL     1       3.309   7.877  17.226  0.00  0.00    +0.000 OA
ATOM      7  C   UNL     1       3.926   6.667  16.976  0.00  0.00    +0.000 A 
ATOM      8  N   UNL     1       4.695   6.441  15.891  0.00  0.00    +0.000 NA
ATOM      9  C   UNL     1       5.202   5.182  15.811  0.00  0.00    +0.000 A 
ATOM     10  C   UNL     1       4.978   4.200  16.781  0.00  0.00    +0.000 A 
ATOM     11  C   UNL     1       4.159   4.458  17.881  0.00  0.00    +0.000 A 
ATOM     12  C   UNL     1       3.624   5.749  17.991  0.00  0.00    +0.000 A 
ATOM     13  C   UNL     1       1.837   8.722  19.067  0.00  0.00    +0.000 A 
ATOM     14  O   UNL     1       1.679   9.887  18.713  0.00  0.00    +0.000 OA
ENDROOT
BRANCH   9  15
ATOM     15  C   UNL     1       5.996   4.869  14.596  0.00  0.00    +0.000 A 
ATOM     16  C   UNL     1       7.214   5.516  14.326  0.00  0.00    +0.000 A 
ATOM     17  C   UNL     1       7.959   5.218  13.178  0.00  0.00    +0.000 A 
ATOM     18  C   UNL     1       7.500   4.267  12.269  0.00  0.00    +0.000 A 
ATOM     19  C   UNL     1       6.298   3.612  12.509  0.00  0.00    +0.000 A 
ATOM     20  C   UNL     1       5.557   3.912  13.655  0.00  0.00    +0.000 A 
ENDBRANCH   9  15
BRANCH  11  21
ATOM     21  C   UNL     1       3.850   3.435  18.866  0.00  0.00    +0.000 A 
ATOM     22  C   UNL     1       2.745   2.660  19.163  0.00  0.00    +0.000 A 
ATOM     23  C   UNL     1       3.081   1.874  20.287  0.00  0.00    +0.000 A 
ATOM     24  C   UNL     1       4.391   2.170  20.577  0.00  0.00    +0.000 A 
ATOM     25  O   UNL     1       4.869   3.107  19.718  0.00  0.00    +0.000 OA
ENDBRANCH  11  21
BRANCH   1  28
ATOM     26  O   UNL     1       2.153   9.328  22.678  0.00  0.00    +0.000 OA
ATOM     27  C   UNL     1       1.015   9.492  22.267  0.00  0.00    +0.000 C 
ATOM     28  N   UNL     1       0.505   9.039  21.069  0.00  0.00    +0.000 N 
ATOM     29  H   UNL     1      -0.492   9.063  20.874  0.00  0.00    +0.000 HD
ENDBRANCH   1  28
TORSDOF 3
ENDMDL
MODEL 7
REMARK VINA RESULT:      -7.7      2.116      7.572
REMARK  Name = 
REMARK  3 active torsions:
REMARK  status: ('A' for Active; 'I' for Inactive)
REMARK    1  A    between atoms: N_3  and  N_4
REMARK    2  A    between atoms: C_12  and  C_13
REMARK    3  A    between atoms: C_20  and  C_21
REMARK                            x       y       z     vdW  Elec       q    Type
REMARK                         _______ _______ _______ _____ _____    ______ ____
ROOT
ATOM      1  N   UNL     1       1.521   8.759  19.810  0.00  0.00    +0.000 N 
ATOM      2  C   UNL     1       1.650   7.465  20.297  0.00  0.00    +0.000 A 
ATOM      3  N   UNL     1       2.300   6.495  19.736  0.00  0.00    +0.000 NA
ATOM      4  C   UNL     1       2.899   6.848  18.527  0.00  0.00    +0.000 A 
ATOM      5  C   UNL     1       2.868   8.111  18.012  0.00  0.00    +0.000 A 
ATOM      6  O   UNL     1       3.592   8.162  16.860  0.00  0.00    +0.000 OA
ATOM      7  C   UNL     1       4.070   6.884  16.643  0.00  0.00    +0.000 A 
ATOM      8  N   UNL     1       4.839   6.554  15.586  0.00  0.00    +0.000 NA
ATOM      9  C   UNL     1       5.197   5.242  15.536  0.00  0.00    +0.000 A 
ATOM     10  C   UNL     1       4.829   4.309  16.509  0.00  0.00    +0.000 A 
ATOM     11  C   UNL     1       4.013   4.677  17.580  0.00  0.00    +0.000 A 
ATOM     12  C   UNL     1       3.630   6.024  17.658  0.00  0.00    +0.000 A 
ATOM     13  C   UNL     1       2.174   9.202  18.642  0.00  0.00    +0.000 A 
ATOM     14  O   UNL     1       2.166  10.372  18.271  0.00  0.00    +0.000 OA
ENDROOT
BRANCH   9  15
ATOM     15  C   UNL     1       5.985   4.820  14.351  0.00  0.00    +0.000 A 
ATOM     16  C   UNL     1       7.239   5.386  14.062  0.00  0.00    +0.000 A 
ATOM     17  C   UNL     1       7.978   4.984  12.942  0.00  0.00    +0.000 A 
ATOM     18  C   UNL     1       7.478   4.010  12.081  0.00  0.00    +0.000 A 
ATOM     19  C   UNL     1       6.240   3.434  12.340  0.00  0.00    +0.000 A 
ATOM     20  C   UNL     1       5.504   3.837  13.459  0.00  0.00    +0.000 A 
ENDBRANCH   9  15
BRANCH  11  21
ATOM     21  C   UNL     1       3.555   3.712  18.565  0.00  0.00    +0.000 A 
ATOM     22  C   UNL     1       2.373   3.037  18.803  0.00  0.00    +0.000 A 
ATOM     23  C   UNL     1       2.566   2.261  19.967  0.00  0.00    +0.000 A 
ATOM     24  C   UNL     1       3.873   2.461  20.341  0.00  0.00    +0.000 A 
ATOM     25  O   UNL     1       4.483   3.331  19.496  0.00  0.00    +0.000 OA
ENDBRANCH  11  21
BRANCH   1  28
ATOM     26  O   UNL     1      -1.028   9.808  19.206  0.00  0.00    +0.000 OA
ATOM     27  C   UNL     1      -0.390  10.191  20.175  0.00  0.00    +0.000 C 
ATOM     28  N   UNL     1       0.828   9.703  20.597  0.00  0.00    +0.000 N 
ATOM     29  H   UNL     1       1.377  10.184  21.304  0.00  0.00    +0.000 HD
ENDBRANCH   1  28
TORSDOF 3
ENDMDL
MODEL 8
REMARK VINA RESULT:      -7.5      2.228      7.321
REMARK  Name = 
REMARK  3 active torsions:
REMARK  status: ('A' for Active; 'I' for Inactive)
REMARK    1  A    between atoms: N_3  and  N_4
REMARK    2  A    between atoms: C_12  and  C_13
REMARK    3  A    between atoms: C_20  and  C_21
REMARK                            x       y       z     vdW  Elec       q    Type
REMARK                         _______ _______ _______ _____ _____    ______ ____
ROOT
ATOM      1  N   UNL     1       0.488   9.821  20.575  0.00  0.00    +0.000 N 
ATOM      2  C   UNL     1       0.484   8.559  21.154  0.00  0.00    +0.000 A 
ATOM      3  N   UNL     1       1.135   7.520  20.736  0.00  0.00    +0.000 NA
ATOM      4  C   UNL     1       1.885   7.757  19.585  0.00  0.00    +0.000 A 
ATOM      5  C   UNL     1       1.987   8.981  18.991  0.00  0.00    +0.000 A 
ATOM      6  O   UNL     1       2.839   8.915  17.930  0.00  0.00    +0.000 OA
ATOM      7  C   UNL     1       3.262   7.602  17.851  0.00  0.00    +0.000 A 
ATOM      8  N   UNL     1       4.124   7.160  16.914  0.00  0.00    +0.000 NA
ATOM      9  C   UNL     1       4.407   5.832  16.989  0.00  0.00    +0.000 A 
ATOM     10  C   UNL     1       3.877   4.988  17.969  0.00  0.00    +0.000 A 
ATOM     11  C   UNL     1       2.969   5.471  18.912  0.00  0.00    +0.000 A 
ATOM     12  C   UNL     1       2.660   6.838  18.860  0.00  0.00    +0.000 A 
ATOM     13  C   UNL     1       1.293  10.148  19.466  0.00  0.00    +0.000 A 
ATOM     14  O   UNL     1       1.396  11.287  19.024  0.00  0.00    +0.000 OA
ENDROOT
BRANCH   9  15
ATOM     15  C   UNL     1       5.298   5.288  15.932  0.00  0.00    +0.000 A 
ATOM     16  C   UNL     1       4.797   4.501  14.882  0.00  0.00    +0.000 A 
ATOM     17  C   UNL     1       5.642   3.990  13.888  0.00  0.00    +0.000 A 
ATOM     18  C   UNL     1       7.009   4.251  13.924  0.00  0.00    +0.000 A 
ATOM     19  C   UNL     1       7.534   5.026  14.952  0.00  0.00    +0.000 A 
ATOM     20  C   UNL     1       6.688   5.534  15.943  0.00  0.00    +0.000 A 
ENDBRANCH   9  15
BRANCH  11  21
ATOM     21  C   UNL     1       2.346   4.602  19.896  0.00  0.00    +0.000 A 
ATOM     22  C   UNL     1       2.591   4.281  21.217  0.00  0.00    +0.000 A 
ATOM     23  C   UNL     1       1.628   3.319  21.596  0.00  0.00    +0.000 A 
ATOM     24  C   UNL     1       0.814   3.151  20.503  0.00  0.00    +0.000 A 
ATOM     25  O   UNL     1       1.234   3.928  19.471  0.00  0.00    +0.000 OA
ENDBRANCH  11  21
BRANCH   1  28
ATOM     26  O   UNL     1      -1.779  11.116  19.504  0.00  0.00    +0.000 OA
ATOM     27  C   UNL     1      -1.293  11.454  20.573  0.00  0.00    +0.000 C 
ATOM     28  N   UNL     1      -0.233  10.851  21.215  0.00  0.00    +0.000 N 
ATOM     29  H   UNL     1       0.224  11.289  22.010  0.00  0.00    +0.000 HD
ENDBRANCH   1  28
TORSDOF 3
ENDMDL
MODEL 9
REMARK VINA RESULT:      -6.9      4.651      9.372
REMARK  Name = 
REMARK  3 active torsions:
REMARK  status: ('A' for Active; 'I' for Inactive)
REMARK    1  A    between atoms: N_3  and  N_4
REMARK    2  A    between atoms: C_12  and  C_13
REMARK    3  A    between atoms: C_20  and  C_21
REMARK                            x       y       z     vdW  Elec       q    Type
REMARK                         _______ _______ _______ _____ _____    ______ ____
ROOT
ATOM      1  N   UNL     1      -2.221  13.709  22.020  0.00  0.00    +0.000 N 
ATOM      2  C   UNL     1      -2.916  13.282  20.897  0.00  0.00    +0.000 A 
ATOM      3  N   UNL     1      -2.553  12.344  20.081  0.00  0.00    +0.000 NA
ATOM      4  C   UNL     1      -1.335  11.753  20.414  0.00  0.00    +0.000 A 
ATOM      5  C   UNL     1      -0.622  12.076  21.532  0.00  0.00    +0.000 A 
ATOM      6  O   UNL     1       0.485  11.288  21.623  0.00  0.00    +0.000 OA
ATOM      7  C   UNL     1       0.469  10.464  20.513  0.00  0.00    +0.000 A 
ATOM      8  N   UNL     1       1.418   9.538  20.268  0.00  0.00    +0.000 NA
ATOM      9  C   UNL     1       1.238   8.837  19.117  0.00  0.00    +0.000 A 
ATOM     10  C   UNL     1       0.147   9.028  18.264  0.00  0.00    +0.000 A 
ATOM     11  C   UNL     1      -0.808  10.009  18.534  0.00  0.00    +0.000 A 
ATOM     12  C   UNL     1      -0.648  10.748  19.716  0.00  0.00    +0.000 A 
ATOM     13  C   UNL     1      -1.032  13.095  22.461  0.00  0.00    +0.000 A 
ATOM     14  O   UNL     1      -0.477  13.384  23.516  0.00  0.00    +0.000 OA
ENDROOT
BRANCH   9  15
ATOM     15  C   UNL     1       2.298   7.856  18.772  0.00  0.00    +0.000 A 
ATOM     16  C   UNL     1       2.528   6.714  19.558  0.00  0.00    +0.000 A 
ATOM     17  C   UNL     1       3.530   5.793  19.228  0.00  0.00    +0.000 A 
ATOM     18  C   UNL     1       4.329   5.994  18.105  0.00  0.00    +0.000 A 
ATOM     19  C   UNL     1       4.126   7.115  17.309  0.00  0.00    +0.000 A 
ATOM     20  C   UNL     1       3.125   8.033  17.641  0.00  0.00    +0.000 A 
ENDBRANCH   9  15
BRANCH  11  21
ATOM     21  C   UNL     1      -1.911  10.279  17.628  0.00  0.00    +0.000 A 
ATOM     22  C   UNL     1      -3.129   9.685  17.360  0.00  0.00    +0.000 A 
ATOM     23  C   UNL     1      -3.730  10.424  16.316  0.00  0.00    +0.000 A 
ATOM     24  C   UNL     1      -2.871  11.462  16.047  0.00  0.00    +0.000 A 
ATOM     25  O   UNL     1      -1.772  11.389  16.840  0.00  0.00    +0.000 OA
ENDBRANCH  11  21
BRANCH   1  28
ATOM     26  O   UNL     1      -4.058  13.217  24.104  0.00  0.00    +0.000 OA
ATOM     27  C   UNL     1      -3.740  14.352  23.786  0.00  0.00    +0.000 C 
ATOM     28  N   UNL     1      -2.809  14.703  22.832  0.00  0.00    +0.000 N 
ATOM     29  H   UNL     1      -2.723  15.660  22.500  0.00  0.00    +0.000 HD
ENDBRANCH   1  28
TORSDOF 3
ENDMDL
