MODEL 1
REMARK VINA RESULT:      -6.7      0.000      0.000
REMARK  Name = 
REMARK  4 active torsions:
REMARK  status: ('A' for Active; 'I' for Inactive)
REMARK    1  A    between atoms: C_1  and  N_2
REMARK    2  A    between atoms: C_5  and  C_6
REMARK    3  A    between atoms: N_8  and  C_9
REMARK    4  A    between atoms: C_16  and  C_18
REMARK                            x       y       z     vdW  Elec       q    Type
REMARK                         _______ _______ _______ _____ _____    ______ ____
ROOT
ATOM      1  C   UNL     1       6.422   4.037  14.332  0.00  0.00    +0.000 C 
ATOM      2  C   UNL     1       7.371   5.242  14.132  0.00  0.00    +0.000 C 
ATOM      3  C   UNL     1       6.549   6.014  15.181  0.00  0.00    +0.000 C 
ATOM      4  C   UNL     1       6.046   4.647  15.737  0.00  0.00    +0.000 C 
ATOM      5  C   UNL     1       4.550   4.641  16.088  0.00  0.00    +0.000 C 
ATOM      6  C   UNL     1       4.344   5.286  17.457  0.00  0.00    +0.000 C 
ATOM      7  N   UNL     1       5.053   4.481  18.438  0.00  0.00    +0.000 N 
ATOM      8  C   UNL     1       4.503   3.569  19.346  0.00  0.00    +0.000 C 
ATOM      9  O   UNL     1       5.206   2.935  20.135  0.00  0.00    +0.000 OA
ATOM     10  C   UNL     1       6.504   4.540  18.263  0.00  0.00    +0.000 C 
ATOM     11  C   UNL     1       6.901   4.021  16.874  0.00  0.00    +0.000 C 
ENDROOT
BRANCH   8  12
ATOM     12  C   UNL     1       3.027   3.337  19.440  0.00  0.00    +0.000 A 
ATOM     13  C   UNL     1       2.181   4.047  20.288  0.00  0.00    +0.000 A 
ATOM     14  C   UNL     1       0.838   3.717  20.326  0.00  0.00    +0.000 A 
ATOM     15  N   UNL     1       0.275   2.788  19.531  0.00  0.00    +0.000 NA
ATOM     16  C   UNL     1       1.091   2.175  18.647  0.00  0.00    +0.000 A 
ATOM     17  C   UNL     1       2.455   2.407  18.567  0.00  0.00    +0.000 A 
ENDBRANCH   8  12
BRANCH   1  20
ATOM     18  C   UNL     1       5.459   3.305  12.131  0.00  0.00    +0.000 C 
ATOM     19  O   UNL     1       6.459   2.657  11.846  0.00  0.00    +0.000 OA
ATOM     20  N   UNL     1       5.331   3.987  13.327  0.00  0.00    +0.000 N 
ATOM     21  H   UNL     1       4.491   4.529  13.446  0.00  0.00    +0.000 HD
BRANCH  18  26
ATOM     22  C   UNL     1       2.145   4.998   8.766  0.00  0.00    +0.000 C 
ATOM     23  N   UNL     1       2.812   4.144   9.723  0.00  0.00    +0.000 N 
ATOM     24  C   UNL     1       2.524   2.828   9.945  0.00  0.00    +0.000 A 
ATOM     25  C   UNL     1       3.438   2.349  10.857  0.00  0.00    +0.000 A 
ATOM     26  C   UNL     1       4.318   3.416  11.215  0.00  0.00    +0.000 A 
ATOM     27  C   UNL     1       3.868   4.527  10.515  0.00  0.00    +0.000 A 
ENDBRANCH  18  26
ENDBRANCH   1  20
TORSDOF 3
ENDMDL
MODEL 2
REMARK VINA RESULT:      -6.2      9.098     11.456
REMARK  Name = 
REMARK  4 active torsions:
REMARK  status: ('A' for Active; 'I' for Inactive)
REMARK    1  A    between atoms: C_1  and  N_2
REMARK    2  A    between atoms: C_5  and  C_6
REMARK    3  A    between atoms: N_8  and  C_9
REMARK    4  A    between atoms: C_16  and  C_18
REMARK                            x       y       z     vdW  Elec       q    Type
REMARK                         _______ _______ _______ _____ _____    ______ ____
ROOT
ATOM      1  C   UNL     1      10.702  12.218  18.642  0.00  0.00    +0.000 C 
ATOM      2  C   UNL     1      11.826  12.553  17.636  0.00  0.00    +0.000 C 
ATOM      3  C   UNL     1      10.876  13.566  16.970  0.00  0.00    +0.000 C 
ATOM      4  C   UNL     1      10.062  13.618  18.300  0.00  0.00    +0.000 C 
ATOM      5  C   UNL     1       8.541  13.623  18.086  0.00  0.00    +0.000 C 
ATOM      6  C   UNL     1       8.078  15.035  17.736  0.00  0.00    +0.000 C 
ATOM      7  N   UNL     1       8.391  15.898  18.863  0.00  0.00    +0.000 N 
ATOM      8  C   UNL     1       7.504  16.391  19.827  0.00  0.00    +0.000 C 
ATOM      9  O   UNL     1       7.885  17.117  20.748  0.00  0.00    +0.000 OA
ATOM     10  C   UNL     1       9.832  16.063  19.055  0.00  0.00    +0.000 C 
ATOM     11  C   UNL     1      10.499  14.706  19.320  0.00  0.00    +0.000 C 
ENDROOT
BRANCH   8  12
ATOM     12  C   UNL     1       6.037  16.098  19.777  0.00  0.00    +0.000 A 
ATOM     13  C   UNL     1       5.135  16.784  18.967  0.00  0.00    +0.000 A 
ATOM     14  C   UNL     1       3.791  16.461  19.036  0.00  0.00    +0.000 A 
ATOM     15  N   UNL     1       3.304  15.460  19.793  0.00  0.00    +0.000 NA
ATOM     16  C   UNL     1       4.202  14.743  20.500  0.00  0.00    +0.000 A 
ATOM     17  C   UNL     1       5.559  15.021  20.529  0.00  0.00    +0.000 A 
ENDBRANCH   8  12
BRANCH   1  20
ATOM     18  C   UNL     1       9.319  10.190  19.180  0.00  0.00    +0.000 C 
ATOM     19  O   UNL     1       9.364  10.411  20.385  0.00  0.00    +0.000 OA
ATOM     20  N   UNL     1       9.912  11.024  18.250  0.00  0.00    +0.000 N 
ATOM     21  H   UNL     1       9.859  10.731  17.288  0.00  0.00    +0.000 HD
BRANCH  18  26
ATOM     22  C   UNL     1       7.481   5.567  18.535  0.00  0.00    +0.000 C 
ATOM     23  N   UNL     1       7.812   6.955  18.304  0.00  0.00    +0.000 N 
ATOM     24  C   UNL     1       7.302   7.734  17.304  0.00  0.00    +0.000 A 
ATOM     25  C   UNL     1       7.790   9.010  17.481  0.00  0.00    +0.000 A 
ATOM     26  C   UNL     1       8.639   9.013  18.631  0.00  0.00    +0.000 A 
ATOM     27  C   UNL     1       8.655   7.703  19.090  0.00  0.00    +0.000 A 
ENDBRANCH  18  26
ENDBRANCH   1  20
TORSDOF 3
ENDMDL
MODEL 3
REMARK VINA RESULT:      -6.1      8.285     11.073
REMARK  Name = 
REMARK  4 active torsions:
REMARK  status: ('A' for Active; 'I' for Inactive)
REMARK    1  A    between atoms: C_1  and  N_2
REMARK    2  A    between atoms: C_5  and  C_6
REMARK    3  A    between atoms: N_8  and  C_9
REMARK    4  A    between atoms: C_16  and  C_18
REMARK                            x       y       z     vdW  Elec       q    Type
REMARK                         _______ _______ _______ _____ _____    ______ ____
ROOT
ATOM      1  C   UNL     1      -0.156  11.017  18.795  0.00  0.00    +0.000 C 
ATOM      2  C   UNL     1      -1.387  11.116  19.726  0.00  0.00    +0.000 C 
ATOM      3  C   UNL     1      -0.554  12.005  20.669  0.00  0.00    +0.000 C 
ATOM      4  C   UNL     1       0.379  12.340  19.465  0.00  0.00    +0.000 C 
ATOM      5  C   UNL     1       1.872  12.347  19.831  0.00  0.00    +0.000 C 
ATOM      6  C   UNL     1       2.230  13.675  20.492  0.00  0.00    +0.000 C 
ATOM      7  N   UNL     1       1.985  14.733  19.526  0.00  0.00    +0.000 N 
ATOM      8  C   UNL     1       2.935  15.431  18.772  0.00  0.00    +0.000 C 
ATOM      9  O   UNL     1       2.609  16.312  17.974  0.00  0.00    +0.000 OA
ATOM     10  C   UNL     1       0.563  14.892  19.222  0.00  0.00    +0.000 C 
ATOM     11  C   UNL     1      -0.010  13.595  18.634  0.00  0.00    +0.000 C 
ENDROOT
BRANCH   8  12
ATOM     12  C   UNL     1       4.403  15.176  18.915  0.00  0.00    +0.000 A 
ATOM     13  C   UNL     1       5.105  15.329  20.108  0.00  0.00    +0.000 A 
ATOM     14  C   UNL     1       6.472  15.110  20.114  0.00  0.00    +0.000 A 
ATOM     15  N   UNL     1       7.164  14.683  19.042  0.00  0.00    +0.000 NA
ATOM     16  C   UNL     1       6.454  14.449  17.918  0.00  0.00    +0.000 A 
ATOM     17  C   UNL     1       5.092  14.682  17.804  0.00  0.00    +0.000 A 
ENDBRANCH   8  12
BRANCH   1  20
ATOM     18  C   UNL     1       1.680   9.413  18.191  0.00  0.00    +0.000 C 
ATOM     19  O   UNL     1       2.030  10.089  17.230  0.00  0.00    +0.000 OA
ATOM     20  N   UNL     1       0.649   9.792  19.030  0.00  0.00    +0.000 N 
ATOM     21  H   UNL     1       0.407   9.146  19.763  0.00  0.00    +0.000 HD
BRANCH  18  26
ATOM     22  C   UNL     1       2.854   5.034  20.338  0.00  0.00    +0.000 C 
ATOM     23  N   UNL     1       2.887   6.182  19.462  0.00  0.00    +0.000 N 
ATOM     24  C   UNL     1       3.658   6.301  18.341  0.00  0.00    +0.000 A 
ATOM     25  C   UNL     1       3.333   7.495  17.736  0.00  0.00    +0.000 A 
ATOM     26  C   UNL     1       2.326   8.138  18.520  0.00  0.00    +0.000 A 
ATOM     27  C   UNL     1       2.105   7.304  19.607  0.00  0.00    +0.000 A 
ENDBRANCH  18  26
ENDBRANCH   1  20
TORSDOF 3
ENDMDL
MODEL 4
REMARK VINA RESULT:      -6.1      9.009     11.752
REMARK  Name = 
REMARK  4 active torsions:
REMARK  status: ('A' for Active; 'I' for Inactive)
REMARK    1  A    between atoms: C_1  and  N_2
REMARK    2  A    between atoms: C_5  and  C_6
REMARK    3  A    between atoms: N_8  and  C_9
REMARK    4  A    between atoms: C_16  and  C_18
REMARK                            x       y       z     vdW  Elec       q    Type
REMARK                         _______ _______ _______ _____ _____    ______ ____
ROOT
ATOM      1  C   UNL     1       0.468  12.109  19.047  0.00  0.00    +0.000 C 
ATOM      2  C   UNL     1      -0.546  12.137  20.214  0.00  0.00    +0.000 C 
ATOM      3  C   UNL     1       0.470  12.961  21.026  0.00  0.00    +0.000 C 
ATOM      4  C   UNL     1       1.141  13.384  19.684  0.00  0.00    +0.000 C 
ATOM      5  C   UNL     1       2.677  13.373  19.736  0.00  0.00    +0.000 C 
ATOM      6  C   UNL     1       3.176  14.654  20.402  0.00  0.00    +0.000 C 
ATOM      7  N   UNL     1       2.749  15.775  19.583  0.00  0.00    +0.000 N 
ATOM      8  C   UNL     1       3.531  16.529  18.700  0.00  0.00    +0.000 C 
ATOM      9  O   UNL     1       3.058  17.463  18.050  0.00  0.00    +0.000 OA
ATOM     10  C   UNL     1       1.296  15.948  19.588  0.00  0.00    +0.000 C 
ATOM     11  C   UNL     1       0.603  14.693  19.039  0.00  0.00    +0.000 C 
ENDROOT
BRANCH   8  12
ATOM     12  C   UNL     1       4.995  16.273  18.523  0.00  0.00    +0.000 A 
ATOM     13  C   UNL     1       5.996  17.107  19.014  0.00  0.00    +0.000 A 
ATOM     14  C   UNL     1       7.318  16.796  18.750  0.00  0.00    +0.000 A 
ATOM     15  N   UNL     1       7.707  15.683  18.102  0.00  0.00    +0.000 NA
ATOM     16  C   UNL     1       6.730  14.836  17.715  0.00  0.00    +0.000 A 
ATOM     17  C   UNL     1       5.379  15.083  17.895  0.00  0.00    +0.000 A 
ENDBRANCH   8  12
BRANCH   1  20
ATOM     18  C   UNL     1       0.885   9.726  18.373  0.00  0.00    +0.000 C 
ATOM     19  O   UNL     1      -0.156   9.667  17.729  0.00  0.00    +0.000 OA
ATOM     20  N   UNL     1       1.292  10.875  19.026  0.00  0.00    +0.000 N 
ATOM     21  H   UNL     1       2.138  10.808  19.566  0.00  0.00    +0.000 HD
BRANCH  18  26
ATOM     22  C   UNL     1       3.123   5.551  20.027  0.00  0.00    +0.000 C 
ATOM     23  N   UNL     1       2.811   6.713  19.227  0.00  0.00    +0.000 N 
ATOM     24  C   UNL     1       3.340   6.995  18.000  0.00  0.00    +0.000 A 
ATOM     25  C   UNL     1       2.721   8.133  17.531  0.00  0.00    +0.000 A 
ATOM     26  C   UNL     1       1.779   8.571  18.512  0.00  0.00    +0.000 A 
ATOM     27  C   UNL     1       1.895   7.680  19.569  0.00  0.00    +0.000 A 
ENDBRANCH  18  26
ENDBRANCH   1  20
TORSDOF 3
ENDMDL
MODEL 5
REMARK VINA RESULT:      -6.1      9.091     11.839
REMARK  Name = 
REMARK  4 active torsions:
REMARK  status: ('A' for Active; 'I' for Inactive)
REMARK    1  A    between atoms: C_1  and  N_2
REMARK    2  A    between atoms: C_5  and  C_6
REMARK    3  A    between atoms: N_8  and  C_9
REMARK    4  A    between atoms: C_16  and  C_18
REMARK                            x       y       z     vdW  Elec       q    Type
REMARK                         _______ _______ _______ _____ _____    ______ ____
ROOT
ATOM      1  C   UNL     1       0.353  12.237  19.161  0.00  0.00    +0.000 C 
ATOM      2  C   UNL     1      -0.659  12.343  20.324  0.00  0.00    +0.000 C 
ATOM      3  C   UNL     1       0.386  13.157  21.109  0.00  0.00    +0.000 C 
ATOM      4  C   UNL     1       1.073  13.508  19.754  0.00  0.00    +0.000 C 
ATOM      5  C   UNL     1       2.607  13.441  19.810  0.00  0.00    +0.000 C 
ATOM      6  C   UNL     1       3.152  14.725  20.431  0.00  0.00    +0.000 C 
ATOM      7  N   UNL     1       2.768  15.832  19.572  0.00  0.00    +0.000 N 
ATOM      8  C   UNL     1       3.579  16.525  18.665  0.00  0.00    +0.000 C 
ATOM      9  O   UNL     1       3.141  17.452  17.980  0.00  0.00    +0.000 OA
ATOM     10  C   UNL     1       1.322  16.059  19.567  0.00  0.00    +0.000 C 
ATOM     11  C   UNL     1       0.584  14.811  19.062  0.00  0.00    +0.000 C 
ENDROOT
BRANCH   8  12
ATOM     12  C   UNL     1       5.032  16.208  18.500  0.00  0.00    +0.000 A 
ATOM     13  C   UNL     1       5.511  15.079  17.841  0.00  0.00    +0.000 A 
ATOM     14  C   UNL     1       6.877  14.862  17.789  0.00  0.00    +0.000 A 
ATOM     15  N   UNL     1       7.788  15.724  18.277  0.00  0.00    +0.000 NA
ATOM     16  C   UNL     1       7.312  16.860  18.828  0.00  0.00    +0.000 A 
ATOM     17  C   UNL     1       5.962  17.143  18.966  0.00  0.00    +0.000 A 
ENDBRANCH   8  12
BRANCH   1  20
ATOM     18  C   UNL     1       0.740   9.850  18.480  0.00  0.00    +0.000 C 
ATOM     19  O   UNL     1      -0.245   9.840  17.752  0.00  0.00    +0.000 OA
ATOM     20  N   UNL     1       1.131  10.972  19.186  0.00  0.00    +0.000 N 
ATOM     21  H   UNL     1       1.926  10.865  19.793  0.00  0.00    +0.000 HD
BRANCH  18  26
ATOM     22  C   UNL     1       4.100   6.182  17.825  0.00  0.00    +0.000 C 
ATOM     23  N   UNL     1       3.060   7.000  18.407  0.00  0.00    +0.000 N 
ATOM     24  C   UNL     1       2.594   6.895  19.686  0.00  0.00    +0.000 A 
ATOM     25  C   UNL     1       1.681   7.908  19.881  0.00  0.00    +0.000 A 
ATOM     26  C   UNL     1       1.577   8.660  18.671  0.00  0.00    +0.000 A 
ATOM     27  C   UNL     1       2.425   8.037  17.766  0.00  0.00    +0.000 A 
ENDBRANCH  18  26
ENDBRANCH   1  20
TORSDOF 3
ENDMDL
MODEL 6
REMARK VINA RESULT:      -6.0      6.806      9.770
REMARK  Name = 
REMARK  4 active torsions:
REMARK  status: ('A' for Active; 'I' for Inactive)
REMARK    1  A    between atoms: C_1  and  N_2
REMARK    2  A    between atoms: C_5  and  C_6
REMARK    3  A    between atoms: N_8  and  C_9
REMARK    4  A    between atoms: C_16  and  C_18
REMARK                            x       y       z     vdW  Elec       q    Type
REMARK                         _______ _______ _______ _____ _____    ______ ____
ROOT
ATOM      1  C   UNL     1       1.212  10.905  20.351  0.00  0.00    +0.000 C 
ATOM      2  C   UNL     1      -0.331  10.861  20.432  0.00  0.00    +0.000 C 
ATOM      3  C   UNL     1      -0.322   9.809  19.307  0.00  0.00    +0.000 C 
ATOM      4  C   UNL     1       1.156   9.479  19.681  0.00  0.00    +0.000 C 
ATOM      5  C   UNL     1       2.066   9.277  18.460  0.00  0.00    +0.000 C 
ATOM      6  C   UNL     1       1.879   7.866  17.909  0.00  0.00    +0.000 C 
ATOM      7  N   UNL     1       2.279   6.928  18.945  0.00  0.00    +0.000 N 
ATOM      8  C   UNL     1       3.471   6.198  19.015  0.00  0.00    +0.000 C 
ATOM      9  O   UNL     1       3.707   5.429  19.949  0.00  0.00    +0.000 OA
ATOM     10  C   UNL     1       1.378   6.952  20.097  0.00  0.00    +0.000 C 
ATOM     11  C   UNL     1       1.353   8.350  20.732  0.00  0.00    +0.000 C 
ENDROOT
BRANCH   8  12
ATOM     12  C   UNL     1       4.513   6.277  17.943  0.00  0.00    +0.000 A 
ATOM     13  C   UNL     1       5.630   7.106  18.005  0.00  0.00    +0.000 A 
ATOM     14  C   UNL     1       6.506   7.133  16.933  0.00  0.00    +0.000 A 
ATOM     15  N   UNL     1       6.383   6.343  15.851  0.00  0.00    +0.000 NA
ATOM     16  C   UNL     1       5.348   5.478  15.847  0.00  0.00    +0.000 A 
ATOM     17  C   UNL     1       4.396   5.410  16.852  0.00  0.00    +0.000 A 
ENDBRANCH   8  12
BRANCH   1  20
ATOM     18  C   UNL     1       2.273  13.158  20.027  0.00  0.00    +0.000 C 
ATOM     19  O   UNL     1       2.435  13.317  21.231  0.00  0.00    +0.000 OA
ATOM     20  N   UNL     1       1.715  12.010  19.497  0.00  0.00    +0.000 N 
ATOM     21  H   UNL     1       1.582  11.995  18.500  0.00  0.00    +0.000 HD
BRANCH  18  26
ATOM     22  C   UNL     1       2.375  17.315  17.220  0.00  0.00    +0.000 C 
ATOM     23  N   UNL     1       2.722  16.025  17.771  0.00  0.00    +0.000 N 
ATOM     24  C   UNL     1       3.886  15.351  17.534  0.00  0.00    +0.000 A 
ATOM     25  C   UNL     1       3.874  14.214  18.312  0.00  0.00    +0.000 A 
ATOM     26  C   UNL     1       2.651  14.186  19.051  0.00  0.00    +0.000 A 
ATOM     27  C   UNL     1       1.946  15.314  18.654  0.00  0.00    +0.000 A 
ENDBRANCH  18  26
ENDBRANCH   1  20
TORSDOF 3
ENDMDL
MODEL 7
REMARK VINA RESULT:      -6.0     10.214     12.862
REMARK  Name = 
REMARK  4 active torsions:
REMARK  status: ('A' for Active; 'I' for Inactive)
REMARK    1  A    between atoms: C_1  and  N_2
REMARK    2  A    between atoms: C_5  and  C_6
REMARK    3  A    between atoms: N_8  and  C_9
REMARK    4  A    between atoms: C_16  and  C_18
REMARK                            x       y       z     vdW  Elec       q    Type
REMARK                         _______ _______ _______ _____ _____    ______ ____
ROOT
ATOM      1  C   UNL     1      -2.844  11.375  16.466  0.00  0.00    +0.000 C 
ATOM      2  C   UNL     1      -3.234  10.629  15.169  0.00  0.00    +0.000 C 
ATOM      3  C   UNL     1      -4.464  10.069  15.907  0.00  0.00    +0.000 C 
ATOM      4  C   UNL     1      -4.351  11.254  16.915  0.00  0.00    +0.000 C 
ATOM      5  C   UNL     1      -4.581  10.839  18.376  0.00  0.00    +0.000 C 
ATOM      6  C   UNL     1      -6.080  10.736  18.649  0.00  0.00    +0.000 C 
ATOM      7  N   UNL     1      -6.659  12.054  18.445  0.00  0.00    +0.000 N 
ATOM      8  C   UNL     1      -7.055  12.969  19.427  0.00  0.00    +0.000 C 
ATOM      9  O   UNL     1      -7.534  14.066  19.136  0.00  0.00    +0.000 OA
ATOM     10  C   UNL     1      -6.609  12.474  17.045  0.00  0.00    +0.000 C 
ATOM     11  C   UNL     1      -5.156  12.533  16.552  0.00  0.00    +0.000 C 
ENDROOT
BRANCH   8  12
ATOM     12  C   UNL     1      -6.957  12.655  20.888  0.00  0.00    +0.000 A 
ATOM     13  C   UNL     1      -7.914  11.930  21.593  0.00  0.00    +0.000 A 
ATOM     14  C   UNL     1      -7.743  11.739  22.953  0.00  0.00    +0.000 A 
ATOM     15  N   UNL     1      -6.659  12.153  23.633  0.00  0.00    +0.000 NA
ATOM     16  C   UNL     1      -5.696  12.772  22.918  0.00  0.00    +0.000 A 
ATOM     17  C   UNL     1      -5.798  13.047  21.564  0.00  0.00    +0.000 A 
ENDBRANCH   8  12
BRANCH   1  20
ATOM     18  C   UNL     1      -1.057  11.255  18.227  0.00  0.00    +0.000 C 
ATOM     19  O   UNL     1      -1.149  12.450  18.481  0.00  0.00    +0.000 OA
ATOM     20  N   UNL     1      -1.855  10.632  17.286  0.00  0.00    +0.000 N 
ATOM     21  H   UNL     1      -1.669   9.657  17.116  0.00  0.00    +0.000 HD
BRANCH  18  26
ATOM     22  C   UNL     1       1.407   8.542  21.654  0.00  0.00    +0.000 C 
ATOM     23  N   UNL     1       1.054   9.179  20.405  0.00  0.00    +0.000 N 
ATOM     24  C   UNL     1       1.646   8.937  19.198  0.00  0.00    +0.000 A 
ATOM     25  C   UNL     1       0.967   9.667  18.248  0.00  0.00    +0.000 A 
ATOM     26  C   UNL     1      -0.079  10.392  18.898  0.00  0.00    +0.000 A 
ATOM     27  C   UNL     1       0.036  10.089  20.248  0.00  0.00    +0.000 A 
ENDBRANCH  18  26
ENDBRANCH   1  20
TORSDOF 3
ENDMDL
MODEL 8
REMARK VINA RESULT:      -5.9     10.933     13.058
REMARK  Name = 
REMARK  4 active torsions:
REMARK  status: ('A' for Active; 'I' for Inactive)
REMARK    1  A    between atoms: C_1  and  N_2
REMARK    2  A    between atoms: C_5  and  C_6
REMARK    3  A    between atoms: N_8  and  C_9
REMARK    4  A    between atoms: C_16  and  C_18
REMARK                            x       y       z     vdW  Elec       q    Type
REMARK                         _______ _______ _______ _____ _____    ______ ____
ROOT
ATOM      1  C   UNL     1      -3.869  10.995  17.747  0.00  0.00    +0.000 C 
ATOM      2  C   UNL     1      -3.696  10.379  16.340  0.00  0.00    +0.000 C 
ATOM      3  C   UNL     1      -2.322  11.068  16.249  0.00  0.00    +0.000 C 
ATOM      4  C   UNL     1      -2.301  11.144  17.806  0.00  0.00    +0.000 C 
ATOM      5  C   UNL     1      -1.778  12.484  18.347  0.00  0.00    +0.000 C 
ATOM      6  C   UNL     1      -0.251  12.487  18.316  0.00  0.00    +0.000 C 
ATOM      7  N   UNL     1       0.213  11.422  19.189  0.00  0.00    +0.000 N 
ATOM      8  C   UNL     1       0.743  11.551  20.478  0.00  0.00    +0.000 C 
ATOM      9  O   UNL     1       1.102  10.570  21.133  0.00  0.00    +0.000 OA
ATOM     10  C   UNL     1      -0.123  10.093  18.676  0.00  0.00    +0.000 C 
ATOM     11  C   UNL     1      -1.644   9.939  18.536  0.00  0.00    +0.000 C 
ENDROOT
BRANCH   8  12
ATOM     12  C   UNL     1       0.939  12.887  21.124  0.00  0.00    +0.000 A 
ATOM     13  C   UNL     1       2.082  13.666  20.966  0.00  0.00    +0.000 A 
ATOM     14  C   UNL     1       2.176  14.866  21.649  0.00  0.00    +0.000 A 
ATOM     15  N   UNL     1       1.186  15.370  22.409  0.00  0.00    +0.000 NA
ATOM     16  C   UNL     1       0.048  14.649  22.476  0.00  0.00    +0.000 A 
ATOM     17  C   UNL     1      -0.122  13.417  21.865  0.00  0.00    +0.000 A 
ENDBRANCH   8  12
BRANCH   1  20
ATOM     18  C   UNL     1      -6.029  12.278  17.783  0.00  0.00    +0.000 C 
ATOM     19  O   UNL     1      -6.698  11.257  17.893  0.00  0.00    +0.000 OA
ATOM     20  N   UNL     1      -4.648  12.259  17.733  0.00  0.00    +0.000 N 
ATOM     21  H   UNL     1      -4.192  13.146  17.594  0.00  0.00    +0.000 HD
BRANCH  18  26
ATOM     22  C   UNL     1      -7.600  16.935  18.789  0.00  0.00    +0.000 C 
ATOM     23  N   UNL     1      -7.375  15.683  18.103  0.00  0.00    +0.000 N 
ATOM     24  C   UNL     1      -7.646  15.442  16.786  0.00  0.00    +0.000 A 
ATOM     25  C   UNL     1      -7.205  14.170  16.496  0.00  0.00    +0.000 A 
ATOM     26  C   UNL     1      -6.647  13.604  17.684  0.00  0.00    +0.000 A 
ATOM     27  C   UNL     1      -6.809  14.567  18.671  0.00  0.00    +0.000 A 
ENDBRANCH  18  26
ENDBRANCH   1  20
TORSDOF 3
ENDMDL
MODEL 9
REMARK VINA RESULT:      -5.9      8.219     10.958
REMARK  Name = 
REMARK  4 active torsions:
REMARK  status: ('A' for Active; 'I' for Inactive)
REMARK    1  A    between atoms: C_1  and  N_2
REMARK    2  A    between atoms: C_5  and  C_6
REMARK    3  A    between atoms: N_8  and  C_9
REMARK    4  A    between atoms: C_16  and  C_18
REMARK                            x       y       z     vdW  Elec       q    Type
REMARK                         _______ _______ _______ _____ _____    ______ ____
ROOT
ATOM      1  C   UNL     1      -0.228  10.758  18.554  0.00  0.00    +0.000 C 
ATOM      2  C   UNL     1      -1.525  10.810  19.395  0.00  0.00    +0.000 C 
ATOM      3  C   UNL     1      -0.798  11.735  20.389  0.00  0.00    +0.000 C 
ATOM      4  C   UNL     1       0.205  12.104  19.252  0.00  0.00    +0.000 C 
ATOM      5  C   UNL     1       1.666  12.173  19.722  0.00  0.00    +0.000 C 
ATOM      6  C   UNL     1       1.923  13.517  20.399  0.00  0.00    +0.000 C 
ATOM      7  N   UNL     1       1.704  14.561  19.412  0.00  0.00    +0.000 N 
ATOM      8  C   UNL     1       2.676  15.294  18.722  0.00  0.00    +0.000 C 
ATOM      9  O   UNL     1       2.373  16.159  17.898  0.00  0.00    +0.000 OA
ATOM     10  C   UNL     1       0.301  14.660  19.007  0.00  0.00    +0.000 C 
ATOM     11  C   UNL     1      -0.175  13.339  18.388  0.00  0.00    +0.000 C 
ENDROOT
BRANCH   8  12
ATOM     12  C   UNL     1       4.139  15.100  18.970  0.00  0.00    +0.000 A 
ATOM     13  C   UNL     1       5.047  14.701  17.993  0.00  0.00    +0.000 A 
ATOM     14  C   UNL     1       6.371  14.507  18.347  0.00  0.00    +0.000 A 
ATOM     15  N   UNL     1       6.858  14.755  19.576  0.00  0.00    +0.000 NA
ATOM     16  C   UNL     1       5.985  15.233  20.488  0.00  0.00    +0.000 A 
ATOM     17  C   UNL     1       4.634  15.415  20.240  0.00  0.00    +0.000 A 
ENDBRANCH   8  12
BRANCH   1  20
ATOM     18  C   UNL     1       1.723   9.241  18.105  0.00  0.00    +0.000 C 
ATOM     19  O   UNL     1       2.124   9.939  17.181  0.00  0.00    +0.000 OA
ATOM     20  N   UNL     1       0.607   9.568  18.853  0.00  0.00    +0.000 N 
ATOM     21  H   UNL     1       0.331   8.906  19.559  0.00  0.00    +0.000 HD
BRANCH  18  26
ATOM     22  C   UNL     1       4.823   5.299  18.233  0.00  0.00    +0.000 C 
ATOM     23  N   UNL     1       3.754   6.213  18.565  0.00  0.00    +0.000 N 
ATOM     24  C   UNL     1       3.010   6.177  19.710  0.00  0.00    +0.000 A 
ATOM     25  C   UNL     1       2.165   7.265  19.691  0.00  0.00    +0.000 A 
ATOM     26  C   UNL     1       2.394   7.993  18.484  0.00  0.00    +0.000 A 
ATOM     27  C   UNL     1       3.365   7.281  17.793  0.00  0.00    +0.000 A 
ENDBRANCH  18  26
ENDBRANCH   1  20
TORSDOF 3
ENDMDL
