MODEL 1
REMARK VINA RESULT:      -7.6      0.000      0.000
REMARK  Name = 
REMARK  4 active torsions:
REMARK  status: ('A' for Active; 'I' for Inactive)
REMARK    1  A    between atoms: C_1  and  C_2
REMARK    2  A    between atoms: C_2  and  C_3
REMARK    3  A    between atoms: C_3  and  O_4
REMARK    4  A    between atoms: C_20  and  O_21
REMARK                            x       y       z     vdW  Elec       q    Type
REMARK                         _______ _______ _______ _____ _____    ______ ____
ROOT
ATOM      1  C   UNL     1       1.037  12.149  18.958  0.00  0.00    +0.000 C 
ATOM      2  C   UNL     1       0.022  12.177  20.165  0.00  0.00    +0.000 C 
ATOM      3  O   UNL     1       0.091  12.882  21.173  0.00  0.00    +0.000 OA
ATOM      4  C   UNL     1      -1.032  11.146  20.035  0.00  0.00    +0.000 C 
ATOM      5  C   UNL     1      -0.063  10.142  19.549  0.00  0.00    +0.000 A 
ATOM      6  C   UNL     1       0.971  10.596  18.806  0.00  0.00    +0.000 A 
ATOM      7  C   UNL     1       1.751   9.510  18.119  0.00  0.00    +0.000 A 
ATOM      8  C   UNL     1       1.877   8.313  18.772  0.00  0.00    +0.000 A 
ATOM      9  N   UNL     1       1.403   8.340  20.073  0.00  0.00    +0.000 N 
ATOM     10  C   UNL     1       0.274   9.013  20.447  0.00  0.00    +0.000 A 
ATOM     11  O   UNL     1      -0.342   8.811  21.482  0.00  0.00    +0.000 OA
ATOM     12  C   UNL     1       2.075   7.400  20.938  0.00  0.00    +0.000 C 
ATOM     13  C   UNL     1       2.613   6.446  19.935  0.00  0.00    +0.000 A 
ATOM     14  C   UNL     1       3.078   5.191  20.242  0.00  0.00    +0.000 A 
ATOM     15  C   UNL     1       3.184   4.287  19.202  0.00  0.00    +0.000 A 
ATOM     16  C   UNL     1       3.621   2.994  19.545  0.00  0.00    +0.000 A 
ATOM     17  C   UNL     1       3.603   1.992  18.601  0.00  0.00    +0.000 A 
ATOM     18  C   UNL     1       3.106   2.273  17.334  0.00  0.00    +0.000 A 
ATOM     19  C   UNL     1       2.705   3.595  17.003  0.00  0.00    +0.000 A 
ATOM     20  C   UNL     1       2.768   4.679  17.907  0.00  0.00    +0.000 A 
ATOM     21  N   UNL     1       2.430   6.007  17.603  0.00  0.00    +0.000 NA
ATOM     22  C   UNL     1       2.421   6.895  18.630  0.00  0.00    +0.000 A 
ENDROOT
BRANCH   1  24
ATOM     23  C   UNL     1       2.974  13.970  18.616  0.00  0.00    +0.000 C 
ATOM     24  C   UNL     1       2.207  13.025  19.523  0.00  0.00    +0.000 C 
ENDBRANCH   1  24
BRANCH   1  25
ATOM     25  O   UNL     1       0.432  12.780  17.842  0.00  0.00    +0.000 OA
ATOM     26  H   UNL     1       0.314  13.724  18.062  0.00  0.00    +0.000 HD
ENDBRANCH   1  25
BRANCH  17  27
ATOM     27  O   UNL     1       4.041   0.736  18.892  0.00  0.00    +0.000 OA
ATOM     28  H   UNL     1       3.811   0.523  19.813  0.00  0.00    +0.000 HD
ENDBRANCH  17  27
TORSDOF 3
ENDMDL
MODEL 2
REMARK VINA RESULT:      -7.5      2.060      3.490
REMARK  Name = 
REMARK  4 active torsions:
REMARK  status: ('A' for Active; 'I' for Inactive)
REMARK    1  A    between atoms: C_1  and  C_2
REMARK    2  A    between atoms: C_2  and  C_3
REMARK    3  A    between atoms: C_3  and  O_4
REMARK    4  A    between atoms: C_20  and  O_21
REMARK                            x       y       z     vdW  Elec       q    Type
REMARK                         _______ _______ _______ _____ _____    ______ ____
ROOT
ATOM      1  C   UNL     1      -1.831  12.190  20.811  0.00  0.00    +0.000 C 
ATOM      2  C   UNL     1      -1.002  13.505  20.541  0.00  0.00    +0.000 C 
ATOM      3  O   UNL     1      -1.343  14.464  19.848  0.00  0.00    +0.000 OA
ATOM      4  C   UNL     1       0.352  13.445  21.136  0.00  0.00    +0.000 C 
ATOM      5  C   UNL     1       0.527  12.036  20.730  0.00  0.00    +0.000 A 
ATOM      6  C   UNL     1      -0.580  11.260  20.714  0.00  0.00    +0.000 A 
ATOM      7  C   UNL     1      -0.294   9.792  20.567  0.00  0.00    +0.000 A 
ATOM      8  C   UNL     1       0.781   9.432  19.797  0.00  0.00    +0.000 A 
ATOM      9  N   UNL     1       1.350  10.493  19.113  0.00  0.00    +0.000 N 
ATOM     10  C   UNL     1       1.499  11.740  19.652  0.00  0.00    +0.000 A 
ATOM     11  O   UNL     1       2.259  12.595  19.223  0.00  0.00    +0.000 OA
ATOM     12  C   UNL     1       1.985  10.094  17.880  0.00  0.00    +0.000 C 
ATOM     13  C   UNL     1       2.210   8.651  18.147  0.00  0.00    +0.000 A 
ATOM     14  C   UNL     1       3.062   7.859  17.415  0.00  0.00    +0.000 A 
ATOM     15  C   UNL     1       3.463   6.668  17.991  0.00  0.00    +0.000 A 
ATOM     16  C   UNL     1       4.370   5.892  17.244  0.00  0.00    +0.000 A 
ATOM     17  C   UNL     1       4.940   4.774  17.808  0.00  0.00    +0.000 A 
ATOM     18  C   UNL     1       4.640   4.461  19.128  0.00  0.00    +0.000 A 
ATOM     19  C   UNL     1       3.694   5.239  19.848  0.00  0.00    +0.000 A 
ATOM     20  C   UNL     1       3.023   6.354  19.299  0.00  0.00    +0.000 A 
ATOM     21  N   UNL     1       2.047   7.117  19.959  0.00  0.00    +0.000 NA
ATOM     22  C   UNL     1       1.604   8.236  19.330  0.00  0.00    +0.000 A 
ENDROOT
BRANCH   1  24
ATOM     23  C   UNL     1      -2.994  11.601  18.470  0.00  0.00    +0.000 C 
ATOM     24  C   UNL     1      -3.006  12.355  19.787  0.00  0.00    +0.000 C 
ENDBRANCH   1  24
BRANCH   1  25
ATOM     25  O   UNL     1      -2.317  12.227  22.142  0.00  0.00    +0.000 OA
ATOM     26  H   UNL     1      -2.653  11.337  22.361  0.00  0.00    +0.000 HD
ENDBRANCH   1  25
BRANCH  17  27
ATOM     27  O   UNL     1       5.802   3.988  17.107  0.00  0.00    +0.000 OA
ATOM     28  H   UNL     1       5.804   3.094  17.491  0.00  0.00    +0.000 HD
ENDBRANCH  17  27
TORSDOF 3
ENDMDL
MODEL 3
REMARK VINA RESULT:      -7.2      1.790      8.329
REMARK  Name = 
REMARK  4 active torsions:
REMARK  status: ('A' for Active; 'I' for Inactive)
REMARK    1  A    between atoms: C_1  and  C_2
REMARK    2  A    between atoms: C_2  and  C_3
REMARK    3  A    between atoms: C_3  and  O_4
REMARK    4  A    between atoms: C_20  and  O_21
REMARK                            x       y       z     vdW  Elec       q    Type
REMARK                         _______ _______ _______ _____ _____    ______ ____
ROOT
ATOM      1  C   UNL     1       3.125   2.569  20.611  0.00  0.00    +0.000 C 
ATOM      2  C   UNL     1       2.621   1.896  19.276  0.00  0.00    +0.000 C 
ATOM      3  O   UNL     1       3.283   1.205  18.501  0.00  0.00    +0.000 OA
ATOM      4  C   UNL     1       1.226   2.271  18.951  0.00  0.00    +0.000 C 
ATOM      5  C   UNL     1       1.454   3.674  19.354  0.00  0.00    +0.000 A 
ATOM      6  C   UNL     1       2.324   3.888  20.367  0.00  0.00    +0.000 A 
ATOM      7  C   UNL     1       2.298   5.291  20.906  0.00  0.00    +0.000 A 
ATOM      8  C   UNL     1       2.049   6.304  20.019  0.00  0.00    +0.000 A 
ATOM      9  N   UNL     1       2.028   5.890  18.698  0.00  0.00    +0.000 N 
ATOM     10  C   UNL     1       1.483   4.705  18.291  0.00  0.00    +0.000 A 
ATOM     11  O   UNL     1       1.164   4.448  17.141  0.00  0.00    +0.000 OA
ATOM     12  C   UNL     1       2.416   6.929  17.775  0.00  0.00    +0.000 C 
ATOM     13  C   UNL     1       2.156   8.135  18.601  0.00  0.00    +0.000 A 
ATOM     14  C   UNL     1       2.068   9.409  18.092  0.00  0.00    +0.000 A 
ATOM     15  C   UNL     1       1.455  10.361  18.884  0.00  0.00    +0.000 A 
ATOM     16  C   UNL     1       1.337  11.649  18.328  0.00  0.00    +0.000 A 
ATOM     17  C   UNL     1       0.601  12.612  18.981  0.00  0.00    +0.000 A 
ATOM     18  C   UNL     1      -0.050  12.274  20.160  0.00  0.00    +0.000 A 
ATOM     19  C   UNL     1       0.115  10.978  20.719  0.00  0.00    +0.000 A 
ATOM     20  C   UNL     1       0.914   9.972  20.133  0.00  0.00    +0.000 A 
ATOM     21  N   UNL     1       1.142   8.699  20.679  0.00  0.00    +0.000 NA
ATOM     22  C   UNL     1       1.828   7.810  19.915  0.00  0.00    +0.000 A 
ENDROOT
BRANCH   1  24
ATOM     23  C   UNL     1       5.323   1.160  21.213  0.00  0.00    +0.000 C 
ATOM     24  C   UNL     1       4.670   2.334  20.506  0.00  0.00    +0.000 C 
ENDBRANCH   1  24
BRANCH   1  25
ATOM     25  O   UNL     1       2.582   1.859  21.710  0.00  0.00    +0.000 OA
ATOM     26  H   UNL     1       2.673   2.422  22.502  0.00  0.00    +0.000 HD
ENDBRANCH   1  25
BRANCH  17  27
ATOM     27  O   UNL     1       0.486  13.874  18.483  0.00  0.00    +0.000 OA
ATOM     28  H   UNL     1      -0.016  14.420  19.112  0.00  0.00    +0.000 HD
ENDBRANCH  17  27
TORSDOF 3
ENDMDL
MODEL 4
REMARK VINA RESULT:      -7.1      1.219      1.325
REMARK  Name = 
REMARK  4 active torsions:
REMARK  status: ('A' for Active; 'I' for Inactive)
REMARK    1  A    between atoms: C_1  and  C_2
REMARK    2  A    between atoms: C_2  and  C_3
REMARK    3  A    between atoms: C_3  and  O_4
REMARK    4  A    between atoms: C_20  and  O_21
REMARK                            x       y       z     vdW  Elec       q    Type
REMARK                         _______ _______ _______ _____ _____    ______ ____
ROOT
ATOM      1  C   UNL     1       2.037  12.925  18.595  0.00  0.00    +0.000 C 
ATOM      2  C   UNL     1       0.719  13.275  19.387  0.00  0.00    +0.000 C 
ATOM      3  O   UNL     1       0.617  14.030  20.354  0.00  0.00    +0.000 OA
ATOM      4  C   UNL     1      -0.443  12.488  18.917  0.00  0.00    +0.000 C 
ATOM      5  C   UNL     1       0.370  11.261  18.794  0.00  0.00    +0.000 A 
ATOM      6  C   UNL     1       1.666  11.416  18.441  0.00  0.00    +0.000 A 
ATOM      7  C   UNL     1       2.353  10.133  18.065  0.00  0.00    +0.000 A 
ATOM      8  C   UNL     1       1.977   8.996  18.731  0.00  0.00    +0.000 A 
ATOM      9  N   UNL     1       1.124   9.236  19.795  0.00  0.00    +0.000 N 
ATOM     10  C   UNL     1       0.123  10.166  19.760  0.00  0.00    +0.000 A 
ATOM     11  O   UNL     1      -0.826  10.191  20.528  0.00  0.00    +0.000 OA
ATOM     12  C   UNL     1       1.238   8.250  20.843  0.00  0.00    +0.000 C 
ATOM     13  C   UNL     1       1.837   7.121  20.087  0.00  0.00    +0.000 A 
ATOM     14  C   UNL     1       1.871   5.825  20.543  0.00  0.00    +0.000 A 
ATOM     15  C   UNL     1       2.098   4.835  19.606  0.00  0.00    +0.000 A 
ATOM     16  C   UNL     1       2.086   3.512  20.086  0.00  0.00    +0.000 A 
ATOM     17  C   UNL     1       2.146   2.461  19.198  0.00  0.00    +0.000 A 
ATOM     18  C   UNL     1       2.171   2.734  17.836  0.00  0.00    +0.000 A 
ATOM     19  C   UNL     1       2.219   4.079  17.379  0.00  0.00    +0.000 A 
ATOM     20  C   UNL     1       2.233   5.195  18.244  0.00  0.00    +0.000 A 
ATOM     21  N   UNL     1       2.330   6.534  17.834  0.00  0.00    +0.000 NA
ATOM     22  C   UNL     1       2.193   7.488  18.792  0.00  0.00    +0.000 A 
ENDROOT
BRANCH   1  24
ATOM     23  C   UNL     1       3.878  14.814  19.071  0.00  0.00    +0.000 C 
ATOM     24  C   UNL     1       3.127  13.572  19.516  0.00  0.00    +0.000 C 
ENDBRANCH   1  24
BRANCH   1  25
ATOM     25  O   UNL     1       1.994  13.575  17.336  0.00  0.00    +0.000 OA
ATOM     26  H   UNL     1       2.635  13.129  16.749  0.00  0.00    +0.000 HD
ENDBRANCH   1  25
BRANCH  17  27
ATOM     27  O   UNL     1       2.160   1.170  19.629  0.00  0.00    +0.000 OA
ATOM     28  H   UNL     1       2.375   1.151  20.578  0.00  0.00    +0.000 HD
ENDBRANCH  17  27
TORSDOF 3
ENDMDL
MODEL 5
REMARK VINA RESULT:      -7.1      9.658     10.845
REMARK  Name = 
REMARK  4 active torsions:
REMARK  status: ('A' for Active; 'I' for Inactive)
REMARK    1  A    between atoms: C_1  and  C_2
REMARK    2  A    between atoms: C_2  and  C_3
REMARK    3  A    between atoms: C_3  and  O_4
REMARK    4  A    between atoms: C_20  and  O_21
REMARK                            x       y       z     vdW  Elec       q    Type
REMARK                         _______ _______ _______ _____ _____    ______ ____
ROOT
ATOM      1  C   UNL     1       6.893  12.287  26.709  0.00  0.00    +0.000 C 
ATOM      2  C   UNL     1       7.062  13.760  27.246  0.00  0.00    +0.000 C 
ATOM      3  O   UNL     1       6.174  14.494  27.682  0.00  0.00    +0.000 OA
ATOM      4  C   UNL     1       8.442  14.265  27.073  0.00  0.00    +0.000 C 
ATOM      5  C   UNL     1       8.554  13.657  25.732  0.00  0.00    +0.000 A 
ATOM      6  C   UNL     1       7.894  12.494  25.528  0.00  0.00    +0.000 A 
ATOM      7  C   UNL     1       8.271  11.796  24.251  0.00  0.00    +0.000 A 
ATOM      8  C   UNL     1       8.586  12.579  23.172  0.00  0.00    +0.000 A 
ATOM      9  N   UNL     1       8.338  13.926  23.375  0.00  0.00    +0.000 N 
ATOM     10  C   UNL     1       8.578  14.563  24.560  0.00  0.00    +0.000 A 
ATOM     11  O   UNL     1       8.674  15.774  24.689  0.00  0.00    +0.000 OA
ATOM     12  C   UNL     1       8.035  14.634  22.155  0.00  0.00    +0.000 C 
ATOM     13  C   UNL     1       8.641  13.719  21.154  0.00  0.00    +0.000 A 
ATOM     14  C   UNL     1       8.904  14.071  19.853  0.00  0.00    +0.000 A 
ATOM     15  C   UNL     1       9.798  13.281  19.155  0.00  0.00    +0.000 A 
ATOM     16  C   UNL     1      10.086  13.684  17.838  0.00  0.00    +0.000 A 
ATOM     17  C   UNL     1      11.081  13.048  17.130  0.00  0.00    +0.000 A 
ATOM     18  C   UNL     1      11.813  12.046  17.754  0.00  0.00    +0.000 A 
ATOM     19  C   UNL     1      11.478  11.634  19.072  0.00  0.00    +0.000 A 
ATOM     20  C   UNL     1      10.423  12.199  19.820  0.00  0.00    +0.000 A 
ATOM     21  N   UNL     1      10.028  11.786  21.103  0.00  0.00    +0.000 NA
ATOM     22  C   UNL     1       9.081  12.530  21.731  0.00  0.00    +0.000 A 
ENDROOT
BRANCH   1  24
ATOM     23  C   UNL     1       4.661  10.807  26.803  0.00  0.00    +0.000 C 
ATOM     24  C   UNL     1       5.332  12.160  26.653  0.00  0.00    +0.000 C 
ENDBRANCH   1  24
BRANCH   1  25
ATOM     25  O   UNL     1       7.436  11.391  27.664  0.00  0.00    +0.000 OA
ATOM     26  H   UNL     1       8.018  11.905  28.256  0.00  0.00    +0.000 HD
ENDBRANCH   1  25
BRANCH  17  27
ATOM     27  O   UNL     1      11.370  13.396  15.846  0.00  0.00    +0.000 OA
ATOM     28  H   UNL     1      10.545  13.435  15.332  0.00  0.00    +0.000 HD
ENDBRANCH  17  27
TORSDOF 3
ENDMDL
MODEL 6
REMARK VINA RESULT:      -7.0      3.220      7.796
REMARK  Name = 
REMARK  4 active torsions:
REMARK  status: ('A' for Active; 'I' for Inactive)
REMARK    1  A    between atoms: C_1  and  C_2
REMARK    2  A    between atoms: C_2  and  C_3
REMARK    3  A    between atoms: C_3  and  O_4
REMARK    4  A    between atoms: C_20  and  O_21
REMARK                            x       y       z     vdW  Elec       q    Type
REMARK                         _______ _______ _______ _____ _____    ______ ____
ROOT
ATOM      1  C   UNL     1       5.825   5.297  15.250  0.00  0.00    +0.000 C 
ATOM      2  C   UNL     1       6.914   4.640  16.183  0.00  0.00    +0.000 C 
ATOM      3  O   UNL     1       7.254   3.456  16.202  0.00  0.00    +0.000 OA
ATOM      4  C   UNL     1       7.456   5.598  17.172  0.00  0.00    +0.000 C 
ATOM      5  C   UNL     1       6.119   6.173  17.425  0.00  0.00    +0.000 A 
ATOM      6  C   UNL     1       5.259   6.211  16.383  0.00  0.00    +0.000 A 
ATOM      7  C   UNL     1       4.037   7.050  16.630  0.00  0.00    +0.000 A 
ATOM      8  C   UNL     1       3.537   7.077  17.905  0.00  0.00    +0.000 A 
ATOM      9  N   UNL     1       4.145   6.170  18.757  0.00  0.00    +0.000 N 
ATOM     10  C   UNL     1       5.485   5.902  18.736  0.00  0.00    +0.000 A 
ATOM     11  O   UNL     1       6.099   5.368  19.647  0.00  0.00    +0.000 OA
ATOM     12  C   UNL     1       3.275   5.722  19.817  0.00  0.00    +0.000 C 
ATOM     13  C   UNL     1       2.285   6.829  19.841  0.00  0.00    +0.000 A 
ATOM     14  C   UNL     1       1.410   7.054  20.876  0.00  0.00    +0.000 A 
ATOM     15  C   UNL     1       0.829   8.306  20.947  0.00  0.00    +0.000 A 
ATOM     16  C   UNL     1      -0.031   8.530  22.039  0.00  0.00    +0.000 A 
ATOM     17  C   UNL     1      -0.525   9.793  22.273  0.00  0.00    +0.000 A 
ATOM     18  C   UNL     1      -0.123  10.835  21.446  0.00  0.00    +0.000 A 
ATOM     19  C   UNL     1       0.717  10.576  20.330  0.00  0.00    +0.000 A 
ATOM     20  C   UNL     1       1.196   9.290  19.998  0.00  0.00    +0.000 A 
ATOM     21  N   UNL     1       1.985   8.985  18.877  0.00  0.00    +0.000 NA
ATOM     22  C   UNL     1       2.470   7.719  18.785  0.00  0.00    +0.000 A 
ENDROOT
BRANCH   1  24
ATOM     23  C   UNL     1       5.514   3.620  13.182  0.00  0.00    +0.000 C 
ATOM     24  C   UNL     1       5.172   4.027  14.604  0.00  0.00    +0.000 C 
ENDBRANCH   1  24
BRANCH   1  25
ATOM     25  O   UNL     1       6.482   6.078  14.267  0.00  0.00    +0.000 OA
ATOM     26  H   UNL     1       5.871   6.789  13.995  0.00  0.00    +0.000 HD
ENDBRANCH   1  25
BRANCH  17  27
ATOM     27  O   UNL     1      -1.378  10.041  23.305  0.00  0.00    +0.000 OA
ATOM     28  H   UNL     1      -1.359   9.289  23.923  0.00  0.00    +0.000 HD
ENDBRANCH  17  27
TORSDOF 3
ENDMDL
MODEL 7
REMARK VINA RESULT:      -6.9      2.230      4.082
REMARK  Name = 
REMARK  4 active torsions:
REMARK  status: ('A' for Active; 'I' for Inactive)
REMARK    1  A    between atoms: C_1  and  C_2
REMARK    2  A    between atoms: C_2  and  C_3
REMARK    3  A    between atoms: C_3  and  O_4
REMARK    4  A    between atoms: C_20  and  O_21
REMARK                            x       y       z     vdW  Elec       q    Type
REMARK                         _______ _______ _______ _____ _____    ______ ____
ROOT
ATOM      1  C   UNL     1      -2.003  12.960  21.981  0.00  0.00    +0.000 C 
ATOM      2  C   UNL     1      -1.178  14.262  21.647  0.00  0.00    +0.000 C 
ATOM      3  O   UNL     1      -1.579  15.256  21.041  0.00  0.00    +0.000 OA
ATOM      4  C   UNL     1       0.241  14.145  22.051  0.00  0.00    +0.000 C 
ATOM      5  C   UNL     1       0.316  12.749  21.575  0.00  0.00    +0.000 A 
ATOM      6  C   UNL     1      -0.806  12.002  21.682  0.00  0.00    +0.000 A 
ATOM      7  C   UNL     1      -0.587  10.534  21.446  0.00  0.00    +0.000 A 
ATOM      8  C   UNL     1       0.362  10.178  20.524  0.00  0.00    +0.000 A 
ATOM      9  N   UNL     1       0.867  11.250  19.808  0.00  0.00    +0.000 N 
ATOM     10  C   UNL     1       1.125  12.471  20.366  0.00  0.00    +0.000 A 
ATOM     11  O   UNL     1       1.846  13.322  19.868  0.00  0.00    +0.000 OA
ATOM     12  C   UNL     1       1.318  10.884  18.487  0.00  0.00    +0.000 C 
ATOM     13  C   UNL     1       1.532   9.426  18.669  0.00  0.00    +0.000 A 
ATOM     14  C   UNL     1       2.253   8.642  17.801  0.00  0.00    +0.000 A 
ATOM     15  C   UNL     1       2.691   7.419  18.274  0.00  0.00    +0.000 A 
ATOM     16  C   UNL     1       3.465   6.650  17.384  0.00  0.00    +0.000 A 
ATOM     17  C   UNL     1       4.071   5.496  17.826  0.00  0.00    +0.000 A 
ATOM     18  C   UNL     1       3.942   5.140  19.162  0.00  0.00    +0.000 A 
ATOM     19  C   UNL     1       3.126   5.913  20.031  0.00  0.00    +0.000 A 
ATOM     20  C   UNL     1       2.422   7.065  19.618  0.00  0.00    +0.000 A 
ATOM     21  N   UNL     1       1.567   7.826  20.431  0.00  0.00    +0.000 NA
ATOM     22  C   UNL     1       1.078   8.980  19.908  0.00  0.00    +0.000 A 
ENDROOT
BRANCH   1  24
ATOM     23  C   UNL     1      -3.495  12.483  19.806  0.00  0.00    +0.000 C 
ATOM     24  C   UNL     1      -3.299  13.195  21.132  0.00  0.00    +0.000 C 
ENDBRANCH   1  24
BRANCH   1  25
ATOM     25  O   UNL     1      -2.304  12.957  23.366  0.00  0.00    +0.000 OA
ATOM     26  H   UNL     1      -1.865  12.181  23.764  0.00  0.00    +0.000 HD
ENDBRANCH   1  25
BRANCH  17  27
ATOM     27  O   UNL     1       4.807   4.716  16.986  0.00  0.00    +0.000 OA
ATOM     28  H   UNL     1       5.012   5.221  16.180  0.00  0.00    +0.000 HD
ENDBRANCH  17  27
TORSDOF 3
ENDMDL
MODEL 8
REMARK VINA RESULT:      -6.8      2.244      7.977
REMARK  Name = 
REMARK  4 active torsions:
REMARK  status: ('A' for Active; 'I' for Inactive)
REMARK    1  A    between atoms: C_1  and  C_2
REMARK    2  A    between atoms: C_2  and  C_3
REMARK    3  A    between atoms: C_3  and  O_4
REMARK    4  A    between atoms: C_20  and  O_21
REMARK                            x       y       z     vdW  Elec       q    Type
REMARK                         _______ _______ _______ _____ _____    ______ ____
ROOT
ATOM      1  C   UNL     1       5.089   3.993  18.550  0.00  0.00    +0.000 C 
ATOM      2  C   UNL     1       4.291   3.439  17.308  0.00  0.00    +0.000 C 
ATOM      3  O   UNL     1       4.705   3.328  16.154  0.00  0.00    +0.000 OA
ATOM      4  C   UNL     1       2.879   3.143  17.637  0.00  0.00    +0.000 C 
ATOM      5  C   UNL     1       2.757   4.367  18.454  0.00  0.00    +0.000 A 
ATOM      6  C   UNL     1       3.862   4.773  19.120  0.00  0.00    +0.000 A 
ATOM      7  C   UNL     1       3.600   5.847  20.139  0.00  0.00    +0.000 A 
ATOM      8  C   UNL     1       2.621   6.762  19.853  0.00  0.00    +0.000 A 
ATOM      9  N   UNL     1       2.129   6.661  18.564  0.00  0.00    +0.000 N 
ATOM     10  C   UNL     1       1.915   5.468  17.933  0.00  0.00    +0.000 A 
ATOM     11  O   UNL     1       1.205   5.321  16.950  0.00  0.00    +0.000 OA
ATOM     12  C   UNL     1       1.640   7.917  18.047  0.00  0.00    +0.000 C 
ATOM     13  C   UNL     1       1.392   8.652  19.312  0.00  0.00    +0.000 A 
ATOM     14  C   UNL     1       0.632   9.793  19.401  0.00  0.00    +0.000 A 
ATOM     15  C   UNL     1       0.173  10.148  20.656  0.00  0.00    +0.000 A 
ATOM     16  C   UNL     1      -0.640  11.295  20.718  0.00  0.00    +0.000 A 
ATOM     17  C   UNL     1      -1.266  11.627  21.898  0.00  0.00    +0.000 A 
ATOM     18  C   UNL     1      -1.117  10.788  22.996  0.00  0.00    +0.000 A 
ATOM     19  C   UNL     1      -0.262   9.656  22.917  0.00  0.00    +0.000 A 
ATOM     20  C   UNL     1       0.462   9.306  21.756  0.00  0.00    +0.000 A 
ATOM     21  N   UNL     1       1.354   8.227  21.654  0.00  0.00    +0.000 NA
ATOM     22  C   UNL     1       1.862   7.955  20.424  0.00  0.00    +0.000 A 
ENDROOT
BRANCH   1  24
ATOM     23  C   UNL     1       7.285   5.530  18.593  0.00  0.00    +0.000 C 
ATOM     24  C   UNL     1       6.372   4.567  17.856  0.00  0.00    +0.000 C 
ENDBRANCH   1  24
BRANCH   1  25
ATOM     25  O   UNL     1       5.421   2.907  19.398  0.00  0.00    +0.000 OA
ATOM     26  H   UNL     1       5.938   3.261  20.147  0.00  0.00    +0.000 HD
ENDBRANCH   1  25
BRANCH  17  27
ATOM     27  O   UNL     1      -2.040  12.742  22.001  0.00  0.00    +0.000 OA
ATOM     28  H   UNL     1      -1.527  13.448  22.432  0.00  0.00    +0.000 HD
ENDBRANCH  17  27
TORSDOF 3
ENDMDL
MODEL 9
REMARK VINA RESULT:      -6.8      3.573      6.060
REMARK  Name = 
REMARK  4 active torsions:
REMARK  status: ('A' for Active; 'I' for Inactive)
REMARK    1  A    between atoms: C_1  and  C_2
REMARK    2  A    between atoms: C_2  and  C_3
REMARK    3  A    between atoms: C_3  and  O_4
REMARK    4  A    between atoms: C_20  and  O_21
REMARK                            x       y       z     vdW  Elec       q    Type
REMARK                         _______ _______ _______ _____ _____    ______ ____
ROOT
ATOM      1  C   UNL     1      -3.522  13.814  23.934  0.00  0.00    +0.000 C 
ATOM      2  C   UNL     1      -2.753  15.188  23.843  0.00  0.00    +0.000 C 
ATOM      3  O   UNL     1      -3.205  16.264  23.449  0.00  0.00    +0.000 OA
ATOM      4  C   UNL     1      -1.321  15.052  24.189  0.00  0.00    +0.000 C 
ATOM      5  C   UNL     1      -1.209  13.778  23.451  0.00  0.00    +0.000 A 
ATOM      6  C   UNL     1      -2.301  12.980  23.433  0.00  0.00    +0.000 A 
ATOM      7  C   UNL     1      -2.036  11.595  22.912  0.00  0.00    +0.000 A 
ATOM      8  C   UNL     1      -1.099  11.462  21.922  0.00  0.00    +0.000 A 
ATOM      9  N   UNL     1      -0.652  12.671  21.417  0.00  0.00    +0.000 N 
ATOM     10  C   UNL     1      -0.422  13.771  22.196  0.00  0.00    +0.000 A 
ATOM     11  O   UNL     1       0.254  14.729  21.859  0.00  0.00    +0.000 OA
ATOM     12  C   UNL     1      -0.223  12.585  20.042  0.00  0.00    +0.000 C 
ATOM     13  C   UNL     1       0.047  11.128  19.934  0.00  0.00    +0.000 A 
ATOM     14  C   UNL     1       0.772  10.556  18.917  0.00  0.00    +0.000 A 
ATOM     15  C   UNL     1       1.266   9.283  19.136  0.00  0.00    +0.000 A 
ATOM     16  C   UNL     1       2.042   8.732  18.099  0.00  0.00    +0.000 A 
ATOM     17  C   UNL     1       2.701   7.540  18.297  0.00  0.00    +0.000 A 
ATOM     18  C   UNL     1       2.620   6.927  19.542  0.00  0.00    +0.000 A 
ATOM     19  C   UNL     1       1.800   7.485  20.559  0.00  0.00    +0.000 A 
ATOM     20  C   UNL     1       1.045   8.667  20.391  0.00  0.00    +0.000 A 
ATOM     21  N   UNL     1       0.185   9.222  21.352  0.00  0.00    +0.000 NA
ATOM     22  C   UNL     1      -0.358  10.435  21.072  0.00  0.00    +0.000 A 
ENDROOT
BRANCH   1  24
ATOM     23  C   UNL     1      -5.315  13.299  22.010  0.00  0.00    +0.000 C 
ATOM     24  C   UNL     1      -4.848  14.156  23.172  0.00  0.00    +0.000 C 
ENDBRANCH   1  24
BRANCH   1  25
ATOM     25  O   UNL     1      -3.787  13.532  25.298  0.00  0.00    +0.000 OA
ATOM     26  H   UNL     1      -3.256  14.149  25.837  0.00  0.00    +0.000 HD
ENDBRANCH   1  25
BRANCH  17  27
ATOM     27  O   UNL     1       3.441   6.966  17.309  0.00  0.00    +0.000 OA
ATOM     28  H   UNL     1       3.530   7.594  16.571  0.00  0.00    +0.000 HD
ENDBRANCH  17  27
TORSDOF 3
ENDMDL
