MODEL 1
REMARK VINA RESULT:      -6.6      0.000      0.000
REMARK  Name = 
REMARK  11 active torsions:
REMARK  status: ('A' for Active; 'I' for Inactive)
REMARK    1  A    between atoms: C_1  and  C_2
REMARK    2  A    between atoms: C_5  and  C_6
REMARK    3  A    between atoms: C_7  and  C_8
REMARK    4  A    between atoms: C_14  and  N_15
REMARK    5  A    between atoms: C_14  and  C_22
REMARK    6  A    between atoms: N_15  and  CA_16
REMARK    7  A    between atoms: CA_16  and  C_17
REMARK    8  A    between atoms: CA_16  and  CB_19
REMARK    9  A    between atoms: C_17  and  O_18
REMARK   10  A    between atoms: CB_19  and  CG1_20
REMARK   11  A    between atoms: CB_19  and  CG2_21
REMARK                            x       y       z     vdW  Elec       q    Type
REMARK                         _______ _______ _______ _____ _____    ______ ____
ROOT
ATOM      1  C   UNK A   0      -3.941  11.814  18.867  0.00  0.00    +0.000 A 
ATOM      2  C   UNK A   0      -4.159  10.796  17.907  0.00  0.00    +0.000 A 
ATOM      3  C   UNK A   0      -3.115  10.020  17.408  0.00  0.00    +0.000 A 
ATOM      4  C   UNK A   0      -1.853  10.313  17.859  0.00  0.00    +0.000 A 
ATOM      5  C   UNK A   0      -1.578  11.304  18.798  0.00  0.00    +0.000 A 
ATOM      6  C   UNK A   0      -2.627  12.054  19.323  0.00  0.00    +0.000 A 
ATOM      7  C   UNK A   0      -0.065  11.391  19.016  0.00  0.00    +0.000 C 
ATOM      8  C   UNK A   0       0.427  10.241  18.066  0.00  0.00    +0.000 C 
ATOM      9  O   UNK A   0       1.551   9.806  17.890  0.00  0.00    +0.000 OA
ATOM     10  N   UNK A   0      -0.690   9.702  17.447  0.00  0.00    +0.000 N 
ATOM     11  H   UNK A   0      -0.624   8.943  16.788  0.00  0.00    +0.000 HD
ENDROOT
BRANCH   1  18
ATOM     12  C   UNK A   0      -4.824  12.677  21.977  0.00  0.00    +0.000 C 
ATOM     13  C   UNK A   0      -5.485  12.945  20.675  0.00  0.00    +0.000 A 
ATOM     14  N   UNK A   0      -6.634  13.630  20.671  0.00  0.00    +0.000 NA
ATOM     15  O   UNK A   0      -7.005  13.744  19.356  0.00  0.00    +0.000 OA
ATOM     16  C   UNK A   0      -6.091  13.121  18.559  0.00  0.00    +0.000 A 
ATOM     17  C   UNK A   0      -6.411  13.140  17.119  0.00  0.00    +0.000 C 
ATOM     18  C   UNK A   0      -5.082  12.592  19.345  0.00  0.00    +0.000 A 
ENDBRANCH   1  18
BRANCH   7  19
ATOM     19  C   UNK A   0       0.469  12.815  18.562  0.00  0.00    +0.000 C 
ATOM     20  C   UNK A   0      -0.317  14.042  19.077  0.00  0.00    +0.000 C 
ATOM     21  C   UNK A   0      -0.042  14.434  20.524  0.00  0.00    +0.000 C 
ATOM     22  C   UNK A   0       1.430  14.420  20.932  0.00  0.00    +0.000 C 
ATOM     23  C   UNK A   0       2.321  13.374  20.266  0.00  0.00    +0.000 C 
ATOM     24  C   UNK A   0       1.968  13.104  18.809  0.00  0.00    +0.000 C 
ENDBRANCH   7  19
BRANCH   7  25
ATOM     25  N   VAL A   1       0.334  11.142  20.440  0.00  0.00    +0.000 NA
ATOM     26  H   VAL A   1      -0.120  11.864  20.996  0.00  0.00    +0.000 HD
BRANCH  25  27
ATOM     27  CA  VAL A   1       0.065   9.818  21.071  0.00  0.00    +0.000 C 
BRANCH  27  28
ATOM     28  CB  VAL A   1      -0.740  10.045  22.412  0.00  0.00    +0.000 C 
ATOM     29  CG1 VAL A   1      -0.044   9.475  23.653  0.00  0.00    +0.000 C 
ATOM     30  CG2 VAL A   1      -1.026  11.534  22.674  0.00  0.00    +0.000 C 
ENDBRANCH  27  28
BRANCH  27  31
ATOM     31  C   VAL A   1       1.349   9.011  21.405  0.00  0.00    +0.000 C 
BRANCH  31  32
ATOM     32  O   VAL A   1       1.323   7.739  20.766  0.00  0.00    +0.000 OA
ATOM     33  H   VAL A   1       1.432   7.920  19.812  0.00  0.00    +0.000 HD
ENDBRANCH  31  32
ENDBRANCH  27  31
ENDBRANCH  25  27
ENDBRANCH   7  25
TORSDOF 7
ENDMDL
MODEL 2
REMARK VINA RESULT:      -6.5      9.431     12.013
REMARK  Name = 
REMARK  11 active torsions:
REMARK  status: ('A' for Active; 'I' for Inactive)
REMARK    1  A    between atoms: C_1  and  C_2
REMARK    2  A    between atoms: C_5  and  C_6
REMARK    3  A    between atoms: C_7  and  C_8
REMARK    4  A    between atoms: C_14  and  N_15
REMARK    5  A    between atoms: C_14  and  C_22
REMARK    6  A    between atoms: N_15  and  CA_16
REMARK    7  A    between atoms: CA_16  and  C_17
REMARK    8  A    between atoms: CA_16  and  CB_19
REMARK    9  A    between atoms: C_17  and  O_18
REMARK   10  A    between atoms: CB_19  and  CG1_20
REMARK   11  A    between atoms: CB_19  and  CG2_21
REMARK                            x       y       z     vdW  Elec       q    Type
REMARK                         _______ _______ _______ _____ _____    ______ ____
ROOT
ATOM      1  C   UNK A   0       7.989  14.573  23.623  0.00  0.00    +0.000 A 
ATOM      2  C   UNK A   0       8.798  15.595  24.176  0.00  0.00    +0.000 A 
ATOM      3  C   UNK A   0       9.919  16.088  23.511  0.00  0.00    +0.000 A 
ATOM      4  C   UNK A   0      10.230  15.508  22.306  0.00  0.00    +0.000 A 
ATOM      5  C   UNK A   0       9.473  14.499  21.716  0.00  0.00    +0.000 A 
ATOM      6  C   UNK A   0       8.334  14.032  22.366  0.00  0.00    +0.000 A 
ATOM      7  C   UNK A   0      10.148  14.055  20.414  0.00  0.00    +0.000 C 
ATOM      8  C   UNK A   0      11.375  15.034  20.380  0.00  0.00    +0.000 C 
ATOM      9  O   UNK A   0      12.227  15.183  19.523  0.00  0.00    +0.000 OA
ATOM     10  N   UNK A   0      11.321  15.814  21.525  0.00  0.00    +0.000 N 
ATOM     11  H   UNK A   0      12.010  16.523  21.725  0.00  0.00    +0.000 HD
ENDROOT
BRANCH   1  18
ATOM     12  C   UNK A   0       7.286  11.537  24.842  0.00  0.00    +0.000 C 
ATOM     13  C   UNK A   0       6.505  12.799  24.882  0.00  0.00    +0.000 A 
ATOM     14  N   UNK A   0       5.308  12.790  25.478  0.00  0.00    +0.000 NA
ATOM     15  O   UNK A   0       4.827  14.071  25.383  0.00  0.00    +0.000 OA
ATOM     16  C   UNK A   0       5.722  14.857  24.722  0.00  0.00    +0.000 A 
ATOM     17  C   UNK A   0       5.289  16.253  24.521  0.00  0.00    +0.000 C 
ATOM     18  C   UNK A   0       6.829  14.101  24.378  0.00  0.00    +0.000 A 
ENDBRANCH   1  18
BRANCH   7  19
ATOM     19  C   UNK A   0      10.595  12.535  20.524  0.00  0.00    +0.000 C 
ATOM     20  C   UNK A   0       9.521  11.476  20.188  0.00  0.00    +0.000 C 
ATOM     21  C   UNK A   0       9.260  11.259  18.703  0.00  0.00    +0.000 C 
ATOM     22  C   UNK A   0      10.510  11.181  17.827  0.00  0.00    +0.000 C 
ATOM     23  C   UNK A   0      11.704  12.031  18.253  0.00  0.00    +0.000 C 
ATOM     24  C   UNK A   0      11.879  12.134  19.762  0.00  0.00    +0.000 C 
ENDBRANCH   7  19
BRANCH   7  25
ATOM     25  N   VAL A   1       9.268  14.227  19.214  0.00  0.00    +0.000 NA
ATOM     26  H   VAL A   1       8.526  13.535  19.297  0.00  0.00    +0.000 HD
BRANCH  25  27
ATOM     27  CA  VAL A   1       8.647  15.553  18.926  0.00  0.00    +0.000 C 
BRANCH  27  28
ATOM     28  CB  VAL A   1       7.077  15.382  18.875  0.00  0.00    +0.000 C 
ATOM     29  CG1 VAL A   1       6.316  16.707  18.758  0.00  0.00    +0.000 C 
ATOM     30  CG2 VAL A   1       6.627  14.475  17.716  0.00  0.00    +0.000 C 
ENDBRANCH  27  28
BRANCH  27  31
ATOM     31  C   VAL A   1       9.111  16.184  17.585  0.00  0.00    +0.000 C 
BRANCH  31  32
ATOM     32  O   VAL A   1      10.203  15.452  17.037  0.00  0.00    +0.000 OA
ATOM     33  H   VAL A   1      10.680  16.081  16.462  0.00  0.00    +0.000 HD
ENDBRANCH  31  32
ENDBRANCH  27  31
ENDBRANCH  25  27
ENDBRANCH   7  25
TORSDOF 7
ENDMDL
MODEL 3
REMARK VINA RESULT:      -6.4      9.112     12.002
REMARK  Name = 
REMARK  11 active torsions:
REMARK  status: ('A' for Active; 'I' for Inactive)
REMARK    1  A    between atoms: C_1  and  C_2
REMARK    2  A    between atoms: C_5  and  C_6
REMARK    3  A    between atoms: C_7  and  C_8
REMARK    4  A    between atoms: C_14  and  N_15
REMARK    5  A    between atoms: C_14  and  C_22
REMARK    6  A    between atoms: N_15  and  CA_16
REMARK    7  A    between atoms: CA_16  and  C_17
REMARK    8  A    between atoms: CA_16  and  CB_19
REMARK    9  A    between atoms: C_17  and  O_18
REMARK   10  A    between atoms: CB_19  and  CG1_20
REMARK   11  A    between atoms: CB_19  and  CG2_21
REMARK                            x       y       z     vdW  Elec       q    Type
REMARK                         _______ _______ _______ _____ _____    ______ ____
ROOT
ATOM      1  C   UNK A   0       8.125  14.502  23.085  0.00  0.00    +0.000 A 
ATOM      2  C   UNK A   0       8.770  15.646  23.616  0.00  0.00    +0.000 A 
ATOM      3  C   UNK A   0       9.825  16.270  22.954  0.00  0.00    +0.000 A 
ATOM      4  C   UNK A   0      10.242  15.702  21.776  0.00  0.00    +0.000 A 
ATOM      5  C   UNK A   0       9.649  14.576  21.209  0.00  0.00    +0.000 A 
ATOM      6  C   UNK A   0       8.572  13.975  21.854  0.00  0.00    +0.000 A 
ATOM      7  C   UNK A   0      10.410  14.190  19.936  0.00  0.00    +0.000 C 
ATOM      8  C   UNK A   0      11.487  15.331  19.890  0.00  0.00    +0.000 C 
ATOM      9  O   UNK A   0      12.329  15.572  19.044  0.00  0.00    +0.000 OA
ATOM     10  N   UNK A   0      11.297  16.133  21.005  0.00  0.00    +0.000 N 
ATOM     11  H   UNK A   0      11.874  16.938  21.192  0.00  0.00    +0.000 HD
ENDROOT
BRANCH   1  18
ATOM     12  C   UNK A   0       7.889  11.494  24.530  0.00  0.00    +0.000 C 
ATOM     13  C   UNK A   0       6.904  12.600  24.435  0.00  0.00    +0.000 A 
ATOM     14  N   UNK A   0       5.698  12.429  24.986  0.00  0.00    +0.000 NA
ATOM     15  O   UNK A   0       5.011  13.596  24.767  0.00  0.00    +0.000 OA
ATOM     16  C   UNK A   0       5.792  14.472  24.074  0.00  0.00    +0.000 A 
ATOM     17  C   UNK A   0       5.138  15.753  23.740  0.00  0.00    +0.000 C 
ATOM     18  C   UNK A   0       7.027  13.896  23.835  0.00  0.00    +0.000 A 
ENDBRANCH   1  18
BRANCH   7  19
ATOM     19  C   UNK A   0      11.063  12.753  20.108  0.00  0.00    +0.000 C 
ATOM     20  C   UNK A   0      10.170  11.661  20.738  0.00  0.00    +0.000 C 
ATOM     21  C   UNK A   0       9.135  11.045  19.805  0.00  0.00    +0.000 C 
ATOM     22  C   UNK A   0       9.644  10.705  18.405  0.00  0.00    +0.000 C 
ATOM     23  C   UNK A   0      10.718  11.618  17.820  0.00  0.00    +0.000 C 
ATOM     24  C   UNK A   0      11.714  12.134  18.851  0.00  0.00    +0.000 C 
ENDBRANCH   7  19
BRANCH   7  25
ATOM     25  N   VAL A   1       9.542  14.197  18.715  0.00  0.00    +0.000 NA
ATOM     26  H   VAL A   1       8.993  13.340  18.745  0.00  0.00    +0.000 HD
BRANCH  25  27
ATOM     27  CA  VAL A   1       8.619  15.341  18.459  0.00  0.00    +0.000 C 
BRANCH  27  28
ATOM     28  CB  VAL A   1       7.299  14.792  17.785  0.00  0.00    +0.000 C 
ATOM     29  CG1 VAL A   1       7.381  13.314  17.385  0.00  0.00    +0.000 C 
ATOM     30  CG2 VAL A   1       6.067  14.968  18.689  0.00  0.00    +0.000 C 
ENDBRANCH  27  28
BRANCH  27  31
ATOM     31  C   VAL A   1       9.219  16.435  17.535  0.00  0.00    +0.000 C 
BRANCH  31  32
ATOM     32  O   VAL A   1       9.007  17.730  18.087  0.00  0.00    +0.000 OA
ATOM     33  H   VAL A   1       8.093  17.976  17.841  0.00  0.00    +0.000 HD
ENDBRANCH  31  32
ENDBRANCH  27  31
ENDBRANCH  25  27
ENDBRANCH   7  25
TORSDOF 7
ENDMDL
MODEL 4
REMARK VINA RESULT:      -6.3      2.381      6.567
REMARK  Name = 
REMARK  11 active torsions:
REMARK  status: ('A' for Active; 'I' for Inactive)
REMARK    1  A    between atoms: C_1  and  C_2
REMARK    2  A    between atoms: C_5  and  C_6
REMARK    3  A    between atoms: C_7  and  C_8
REMARK    4  A    between atoms: C_14  and  N_15
REMARK    5  A    between atoms: C_14  and  C_22
REMARK    6  A    between atoms: N_15  and  CA_16
REMARK    7  A    between atoms: CA_16  and  C_17
REMARK    8  A    between atoms: CA_16  and  CB_19
REMARK    9  A    between atoms: C_17  and  O_18
REMARK   10  A    between atoms: CB_19  and  CG1_20
REMARK   11  A    between atoms: CB_19  and  CG2_21
REMARK                            x       y       z     vdW  Elec       q    Type
REMARK                         _______ _______ _______ _____ _____    ______ ____
ROOT
ATOM      1  C   UNK A   0       1.015   8.724  20.521  0.00  0.00    +0.000 A 
ATOM      2  C   UNK A   0       0.525   8.196  21.741  0.00  0.00    +0.000 A 
ATOM      3  C   UNK A   0      -0.217   8.969  22.632  0.00  0.00    +0.000 A 
ATOM      4  C   UNK A   0      -0.420  10.283  22.294  0.00  0.00    +0.000 A 
ATOM      5  C   UNK A   0       0.041  10.857  21.111  0.00  0.00    +0.000 A 
ATOM      6  C   UNK A   0       0.752  10.074  20.206  0.00  0.00    +0.000 A 
ATOM      7  C   UNK A   0      -0.314  12.347  21.099  0.00  0.00    +0.000 C 
ATOM      8  C   UNK A   0      -1.089  12.468  22.459  0.00  0.00    +0.000 C 
ATOM      9  O   UNK A   0      -1.669  13.423  22.942  0.00  0.00    +0.000 OA
ATOM     10  N   UNK A   0      -1.076  11.219  23.062  0.00  0.00    +0.000 N 
ATOM     11  H   UNK A   0      -1.516  11.047  23.952  0.00  0.00    +0.000 HD
ENDROOT
BRANCH   1  18
ATOM     12  C   UNK A   0       1.960   5.536  20.893  0.00  0.00    +0.000 C 
ATOM     13  C   UNK A   0       2.222   6.500  19.795  0.00  0.00    +0.000 A 
ATOM     14  N   UNK A   0       2.963   6.099  18.756  0.00  0.00    +0.000 NA
ATOM     15  O   UNK A   0       3.028   7.168  17.899  0.00  0.00    +0.000 OA
ATOM     16  C   UNK A   0       2.339   8.223  18.419  0.00  0.00    +0.000 A 
ATOM     17  C   UNK A   0       2.378   9.450  17.601  0.00  0.00    +0.000 C 
ATOM     18  C   UNK A   0       1.789   7.857  19.635  0.00  0.00    +0.000 A 
ENDBRANCH   1  18
BRANCH   7  19
ATOM     19  C   UNK A   0       1.011  13.222  21.083  0.00  0.00    +0.000 C 
ATOM     20  C   UNK A   0       1.794  13.262  19.751  0.00  0.00    +0.000 C 
ATOM     21  C   UNK A   0       1.214  14.176  18.680  0.00  0.00    +0.000 C 
ATOM     22  C   UNK A   0       0.754  15.547  19.175  0.00  0.00    +0.000 C 
ATOM     23  C   UNK A   0       0.189  15.615  20.591  0.00  0.00    +0.000 C 
ATOM     24  C   UNK A   0       0.883  14.682  21.575  0.00  0.00    +0.000 C 
ENDBRANCH   7  19
BRANCH   7  25
ATOM     25  N   VAL A   1      -1.175  12.731  19.934  0.00  0.00    +0.000 NA
ATOM     26  H   VAL A   1      -0.566  12.752  19.119  0.00  0.00    +0.000 HD
BRANCH  25  27
ATOM     27  CA  VAL A   1      -2.385  11.923  19.600  0.00  0.00    +0.000 C 
BRANCH  27  28
ATOM     28  CB  VAL A   1      -2.370  11.598  18.054  0.00  0.00    +0.000 C 
ATOM     29  CG1 VAL A   1      -1.630  10.302  17.703  0.00  0.00    +0.000 C 
ATOM     30  CG2 VAL A   1      -3.788  11.504  17.465  0.00  0.00    +0.000 C 
ENDBRANCH  27  28
BRANCH  27  31
ATOM     31  C   VAL A   1      -3.724  12.632  19.936  0.00  0.00    +0.000 C 
BRANCH  31  32
ATOM     32  O   VAL A   1      -3.490  13.969  20.367  0.00  0.00    +0.000 OA
ATOM     33  H   VAL A   1      -3.725  14.537  19.606  0.00  0.00    +0.000 HD
ENDBRANCH  31  32
ENDBRANCH  27  31
ENDBRANCH  25  27
ENDBRANCH   7  25
TORSDOF 7
ENDMDL
MODEL 5
REMARK VINA RESULT:      -6.3      6.084      9.423
REMARK  Name = 
REMARK  11 active torsions:
REMARK  status: ('A' for Active; 'I' for Inactive)
REMARK    1  A    between atoms: C_1  and  C_2
REMARK    2  A    between atoms: C_5  and  C_6
REMARK    3  A    between atoms: C_7  and  C_8
REMARK    4  A    between atoms: C_14  and  N_15
REMARK    5  A    between atoms: C_14  and  C_22
REMARK    6  A    between atoms: N_15  and  CA_16
REMARK    7  A    between atoms: CA_16  and  C_17
REMARK    8  A    between atoms: CA_16  and  CB_19
REMARK    9  A    between atoms: C_17  and  O_18
REMARK   10  A    between atoms: CB_19  and  CG1_20
REMARK   11  A    between atoms: CB_19  and  CG2_21
REMARK                            x       y       z     vdW  Elec       q    Type
REMARK                         _______ _______ _______ _____ _____    ______ ____
ROOT
ATOM      1  C   UNK A   0       2.393   6.607  19.966  0.00  0.00    +0.000 A 
ATOM      2  C   UNK A   0       1.807   6.037  21.122  0.00  0.00    +0.000 A 
ATOM      3  C   UNK A   0       2.180   4.780  21.593  0.00  0.00    +0.000 A 
ATOM      4  C   UNK A   0       3.117   4.096  20.861  0.00  0.00    +0.000 A 
ATOM      5  C   UNK A   0       3.724   4.604  19.715  0.00  0.00    +0.000 A 
ATOM      6  C   UNK A   0       3.376   5.875  19.266  0.00  0.00    +0.000 A 
ATOM      7  C   UNK A   0       4.666   3.548  19.129  0.00  0.00    +0.000 C 
ATOM      8  C   UNK A   0       4.499   2.398  20.185  0.00  0.00    +0.000 C 
ATOM      9  O   UNK A   0       5.073   1.328  20.267  0.00  0.00    +0.000 OA
ATOM     10  N   UNK A   0       3.575   2.826  21.127  0.00  0.00    +0.000 N 
ATOM     11  H   UNK A   0       3.303   2.253  21.911  0.00  0.00    +0.000 HD
ENDROOT
BRANCH   1  18
ATOM     12  C   UNK A   0       0.399   8.835  21.468  0.00  0.00    +0.000 C 
ATOM     13  C   UNK A   0       1.077   8.881  20.148  0.00  0.00    +0.000 A 
ATOM     14  N   UNK A   0       0.895   9.955  19.373  0.00  0.00    +0.000 NA
ATOM     15  O   UNK A   0       1.639   9.739  18.242  0.00  0.00    +0.000 OA
ATOM     16  C   UNK A   0       2.265   8.531  18.320  0.00  0.00    +0.000 A 
ATOM     17  C   UNK A   0       3.063   8.170  17.133  0.00  0.00    +0.000 C 
ATOM     18  C   UNK A   0       1.951   7.930  19.526  0.00  0.00    +0.000 A 
ENDBRANCH   1  18
BRANCH   7  19
ATOM     19  C   UNK A   0       4.168   3.115  17.685  0.00  0.00    +0.000 C 
ATOM     20  C   UNK A   0       3.412   1.770  17.592  0.00  0.00    +0.000 C 
ATOM     21  C   UNK A   0       1.959   1.805  18.049  0.00  0.00    +0.000 C 
ATOM     22  C   UNK A   0       1.154   3.010  17.564  0.00  0.00    +0.000 C 
ATOM     23  C   UNK A   0       1.910   4.325  17.401  0.00  0.00    +0.000 C 
ATOM     24  C   UNK A   0       3.338   4.155  16.898  0.00  0.00    +0.000 C 
ENDBRANCH   7  19
BRANCH   7  25
ATOM     25  N   VAL A   1       6.086   4.019  19.043  0.00  0.00    +0.000 NA
ATOM     26  H   VAL A   1       6.497   3.553  18.236  0.00  0.00    +0.000 HD
BRANCH  25  27
ATOM     27  CA  VAL A   1       6.386   5.477  18.951  0.00  0.00    +0.000 C 
BRANCH  27  28
ATOM     28  CB  VAL A   1       6.398   5.901  17.429  0.00  0.00    +0.000 C 
ATOM     29  CG1 VAL A   1       7.086   7.246  17.168  0.00  0.00    +0.000 C 
ATOM     30  CG2 VAL A   1       7.073   4.846  16.535  0.00  0.00    +0.000 C 
ENDBRANCH  27  28
BRANCH  27  31
ATOM     31  C   VAL A   1       7.749   5.877  19.578  0.00  0.00    +0.000 C 
BRANCH  31  32
ATOM     32  O   VAL A   1       7.962   5.181  20.802  0.00  0.00    +0.000 OA
ATOM     33  H   VAL A   1       8.916   4.968  20.822  0.00  0.00    +0.000 HD
ENDBRANCH  31  32
ENDBRANCH  27  31
ENDBRANCH  25  27
ENDBRANCH   7  25
TORSDOF 7
ENDMDL
MODEL 6
REMARK VINA RESULT:      -6.2      0.572      1.677
REMARK  Name = 
REMARK  11 active torsions:
REMARK  status: ('A' for Active; 'I' for Inactive)
REMARK    1  A    between atoms: C_1  and  C_2
REMARK    2  A    between atoms: C_5  and  C_6
REMARK    3  A    between atoms: C_7  and  C_8
REMARK    4  A    between atoms: C_14  and  N_15
REMARK    5  A    between atoms: C_14  and  C_22
REMARK    6  A    between atoms: N_15  and  CA_16
REMARK    7  A    between atoms: CA_16  and  C_17
REMARK    8  A    between atoms: CA_16  and  CB_19
REMARK    9  A    between atoms: C_17  and  O_18
REMARK   10  A    between atoms: CB_19  and  CG1_20
REMARK   11  A    between atoms: CB_19  and  CG2_21
REMARK                            x       y       z     vdW  Elec       q    Type
REMARK                         _______ _______ _______ _____ _____    ______ ____
ROOT
ATOM      1  C   UNK A   0      -3.852  11.717  18.803  0.00  0.00    +0.000 A 
ATOM      2  C   UNK A   0      -3.963  10.631  17.901  0.00  0.00    +0.000 A 
ATOM      3  C   UNK A   0      -2.845   9.931  17.452  0.00  0.00    +0.000 A 
ATOM      4  C   UNK A   0      -1.620  10.368  17.892  0.00  0.00    +0.000 A 
ATOM      5  C   UNK A   0      -1.451  11.432  18.775  0.00  0.00    +0.000 A 
ATOM      6  C   UNK A   0      -2.572  12.107  19.251  0.00  0.00    +0.000 A 
ATOM      7  C   UNK A   0       0.045  11.675  18.995  0.00  0.00    +0.000 C 
ATOM      8  C   UNK A   0       0.654  10.526  18.115  0.00  0.00    +0.000 C 
ATOM      9  O   UNK A   0       1.815  10.191  17.969  0.00  0.00    +0.000 OA
ATOM     10  N   UNK A   0      -0.401   9.849  17.521  0.00  0.00    +0.000 N 
ATOM     11  H   UNK A   0      -0.256   9.064  16.906  0.00  0.00    +0.000 HD
ENDROOT
BRANCH   1  18
ATOM     12  C   UNK A   0      -6.425  12.884  17.011  0.00  0.00    +0.000 C 
ATOM     13  C   UNK A   0      -6.163  12.936  18.471  0.00  0.00    +0.000 A 
ATOM     14  N   UNK A   0      -7.054  13.545  19.259  0.00  0.00    +0.000 NA
ATOM     15  O   UNK A   0      -6.574  13.429  20.538  0.00  0.00    +0.000 OA
ATOM     16  C   UNK A   0      -5.386  12.761  20.530  0.00  0.00    +0.000 A 
ATOM     17  C   UNK A   0      -4.749  12.615  21.853  0.00  0.00    +0.000 C 
ATOM     18  C   UNK A   0      -5.068  12.408  19.231  0.00  0.00    +0.000 A 
ENDBRANCH   1  18
BRANCH   7  19
ATOM     19  C   UNK A   0       0.446  13.116  18.464  0.00  0.00    +0.000 C 
ATOM     20  C   UNK A   0      -0.128  14.321  19.243  0.00  0.00    +0.000 C 
ATOM     21  C   UNK A   0       0.574  14.644  20.556  0.00  0.00    +0.000 C 
ATOM     22  C   UNK A   0       2.101  14.603  20.504  0.00  0.00    +0.000 C 
ATOM     23  C   UNK A   0       2.732  13.585  19.558  0.00  0.00    +0.000 C 
ATOM     24  C   UNK A   0       1.955  13.385  18.263  0.00  0.00    +0.000 C 
ENDBRANCH   7  19
BRANCH   7  25
ATOM     25  N   VAL A   1       0.450  11.546  20.432  0.00  0.00    +0.000 NA
ATOM     26  H   VAL A   1       0.043  12.341  20.920  0.00  0.00    +0.000 HD
BRANCH  25  27
ATOM     27  CA  VAL A   1       0.121  10.305  21.193  0.00  0.00    +0.000 C 
BRANCH  27  28
ATOM     28  CB  VAL A   1      -0.253  10.701  22.677  0.00  0.00    +0.000 C 
ATOM     29  CG1 VAL A   1      -1.585  11.451  22.797  0.00  0.00    +0.000 C 
ATOM     30  CG2 VAL A   1      -0.317   9.478  23.608  0.00  0.00    +0.000 C 
ENDBRANCH  27  28
BRANCH  27  31
ATOM     31  C   VAL A   1       1.282   9.275  21.243  0.00  0.00    +0.000 C 
BRANCH  31  32
ATOM     32  O   VAL A   1       1.172   8.343  20.172  0.00  0.00    +0.000 OA
ATOM     33  H   VAL A   1       2.015   8.404  19.682  0.00  0.00    +0.000 HD
ENDBRANCH  31  32
ENDBRANCH  27  31
ENDBRANCH  25  27
ENDBRANCH   7  25
TORSDOF 7
ENDMDL
MODEL 7
REMARK VINA RESULT:      -6.2      2.368      6.702
REMARK  Name = 
REMARK  11 active torsions:
REMARK  status: ('A' for Active; 'I' for Inactive)
REMARK    1  A    between atoms: C_1  and  C_2
REMARK    2  A    between atoms: C_5  and  C_6
REMARK    3  A    between atoms: C_7  and  C_8
REMARK    4  A    between atoms: C_14  and  N_15
REMARK    5  A    between atoms: C_14  and  C_22
REMARK    6  A    between atoms: N_15  and  CA_16
REMARK    7  A    between atoms: CA_16  and  C_17
REMARK    8  A    between atoms: CA_16  and  CB_19
REMARK    9  A    between atoms: C_17  and  O_18
REMARK   10  A    between atoms: CB_19  and  CG1_20
REMARK   11  A    between atoms: CB_19  and  CG2_21
REMARK                            x       y       z     vdW  Elec       q    Type
REMARK                         _______ _______ _______ _____ _____    ______ ____
ROOT
ATOM      1  C   UNK A   0       1.099   8.638  20.535  0.00  0.00    +0.000 A 
ATOM      2  C   UNK A   0       0.596   8.137  21.760  0.00  0.00    +0.000 A 
ATOM      3  C   UNK A   0      -0.145   8.932  22.632  0.00  0.00    +0.000 A 
ATOM      4  C   UNK A   0      -0.334  10.242  22.269  0.00  0.00    +0.000 A 
ATOM      5  C   UNK A   0       0.140  10.790  21.080  0.00  0.00    +0.000 A 
ATOM      6  C   UNK A   0       0.850   9.985  20.193  0.00  0.00    +0.000 A 
ATOM      7  C   UNK A   0      -0.202  12.283  21.038  0.00  0.00    +0.000 C 
ATOM      8  C   UNK A   0      -0.985  12.434  22.390  0.00  0.00    +0.000 C 
ATOM      9  O   UNK A   0      -1.560  13.403  22.851  0.00  0.00    +0.000 OA
ATOM     10  N   UNK A   0      -0.987  11.196  23.015  0.00  0.00    +0.000 N 
ATOM     11  H   UNK A   0      -1.434  11.045  23.905  0.00  0.00    +0.000 HD
ENDROOT
BRANCH   1  18
ATOM     12  C   UNK A   0       2.492   9.197  17.545  0.00  0.00    +0.000 C 
ATOM     13  C   UNK A   0       2.451   7.968  18.377  0.00  0.00    +0.000 A 
ATOM     14  N   UNK A   0       3.036   6.860  17.910  0.00  0.00    +0.000 NA
ATOM     15  O   UNK A   0       2.862   5.902  18.875  0.00  0.00    +0.000 OA
ATOM     16  C   UNK A   0       2.162   6.420  19.924  0.00  0.00    +0.000 A 
ATOM     17  C   UNK A   0       1.874   5.461  21.008  0.00  0.00    +0.000 C 
ATOM     18  C   UNK A   0       1.872   7.749  19.670  0.00  0.00    +0.000 A 
ENDBRANCH   1  18
BRANCH   7  19
ATOM     19  C   UNK A   0       1.131  13.146  21.015  0.00  0.00    +0.000 C 
ATOM     20  C   UNK A   0       1.834  13.290  19.647  0.00  0.00    +0.000 C 
ATOM     21  C   UNK A   0       1.204  14.296  18.692  0.00  0.00    +0.000 C 
ATOM     22  C   UNK A   0       0.791  15.624  19.326  0.00  0.00    +0.000 C 
ATOM     23  C   UNK A   0       0.311  15.577  20.774  0.00  0.00    +0.000 C 
ATOM     24  C   UNK A   0       1.051  14.560  21.634  0.00  0.00    +0.000 C 
ENDBRANCH   7  19
BRANCH   7  25
ATOM     25  N   VAL A   1      -1.052  12.652  19.860  0.00  0.00    +0.000 NA
ATOM     26  H   VAL A   1      -0.436  12.656  19.049  0.00  0.00    +0.000 HD
BRANCH  25  27
ATOM     27  CA  VAL A   1      -2.264  11.847  19.531  0.00  0.00    +0.000 C 
BRANCH  27  28
ATOM     28  CB  VAL A   1      -2.248  11.508  17.988  0.00  0.00    +0.000 C 
ATOM     29  CG1 VAL A   1      -1.573  10.172  17.658  0.00  0.00    +0.000 C 
ATOM     30  CG2 VAL A   1      -3.662  11.484  17.382  0.00  0.00    +0.000 C 
ENDBRANCH  27  28
BRANCH  27  31
ATOM     31  C   VAL A   1      -3.601  12.567  19.857  0.00  0.00    +0.000 C 
BRANCH  31  32
ATOM     32  O   VAL A   1      -3.359  13.896  20.307  0.00  0.00    +0.000 OA
ATOM     33  H   VAL A   1      -3.677  13.924  21.231  0.00  0.00    +0.000 HD
ENDBRANCH  31  32
ENDBRANCH  27  31
ENDBRANCH  25  27
ENDBRANCH   7  25
TORSDOF 7
ENDMDL
MODEL 8
REMARK VINA RESULT:      -6.1      1.042      1.975
REMARK  Name = 
REMARK  11 active torsions:
REMARK  status: ('A' for Active; 'I' for Inactive)
REMARK    1  A    between atoms: C_1  and  C_2
REMARK    2  A    between atoms: C_5  and  C_6
REMARK    3  A    between atoms: C_7  and  C_8
REMARK    4  A    between atoms: C_14  and  N_15
REMARK    5  A    between atoms: C_14  and  C_22
REMARK    6  A    between atoms: N_15  and  CA_16
REMARK    7  A    between atoms: CA_16  and  C_17
REMARK    8  A    between atoms: CA_16  and  CB_19
REMARK    9  A    between atoms: C_17  and  O_18
REMARK   10  A    between atoms: CB_19  and  CG1_20
REMARK   11  A    between atoms: CB_19  and  CG2_21
REMARK                            x       y       z     vdW  Elec       q    Type
REMARK                         _______ _______ _______ _____ _____    ______ ____
ROOT
ATOM      1  C   UNK A   0      -4.305  11.898  18.762  0.00  0.00    +0.000 A 
ATOM      2  C   UNK A   0      -4.280  10.711  17.991  0.00  0.00    +0.000 A 
ATOM      3  C   UNK A   0      -3.094  10.030  17.726  0.00  0.00    +0.000 A 
ATOM      4  C   UNK A   0      -1.937  10.586  18.213  0.00  0.00    +0.000 A 
ATOM      5  C   UNK A   0      -1.901  11.752  18.974  0.00  0.00    +0.000 A 
ATOM      6  C   UNK A   0      -3.092  12.411  19.268  0.00  0.00    +0.000 A 
ATOM      7  C   UNK A   0      -0.445  12.106  19.291  0.00  0.00    +0.000 C 
ATOM      8  C   UNK A   0       0.297  10.901  18.610  0.00  0.00    +0.000 C 
ATOM      9  O   UNK A   0       1.481  10.619  18.605  0.00  0.00    +0.000 OA
ATOM     10  N   UNK A   0      -0.665  10.099  18.014  0.00  0.00    +0.000 N 
ATOM     11  H   UNK A   0      -0.427   9.258  17.512  0.00  0.00    +0.000 HD
ENDROOT
BRANCH   1  18
ATOM     12  C   UNK A   0      -6.446  13.305  16.609  0.00  0.00    +0.000 C 
ATOM     13  C   UNK A   0      -6.498  13.191  18.088  0.00  0.00    +0.000 A 
ATOM     14  N   UNK A   0      -7.539  13.728  18.734  0.00  0.00    +0.000 NA
ATOM     15  O   UNK A   0      -7.339  13.463  20.065  0.00  0.00    +0.000 OA
ATOM     16  C   UNK A   0      -6.174  12.777  20.232  0.00  0.00    +0.000 A 
ATOM     17  C   UNK A   0      -5.831  12.474  21.636  0.00  0.00    +0.000 C 
ATOM     18  C   UNK A   0      -5.587  12.562  18.998  0.00  0.00    +0.000 A 
ENDBRANCH   1  18
BRANCH   7  19
ATOM     19  C   UNK A   0      -0.066  13.497  18.627  0.00  0.00    +0.000 C 
ATOM     20  C   UNK A   0      -0.449  14.766  19.421  0.00  0.00    +0.000 C 
ATOM     21  C   UNK A   0       0.470  15.108  20.588  0.00  0.00    +0.000 C 
ATOM     22  C   UNK A   0       1.965  14.980  20.296  0.00  0.00    +0.000 C 
ATOM     23  C   UNK A   0       2.386  13.887  19.318  0.00  0.00    +0.000 C 
ATOM     24  C   UNK A   0       1.402  13.673  18.175  0.00  0.00    +0.000 C 
ENDBRANCH   7  19
BRANCH   7  25
ATOM     25  N   VAL A   1      -0.168  12.167  20.762  0.00  0.00    +0.000 NA
ATOM     26  H   VAL A   1      -0.358  13.124  21.053  0.00  0.00    +0.000 HD
BRANCH  25  27
ATOM     27  CA  VAL A   1      -0.872  11.240  21.695  0.00  0.00    +0.000 C 
BRANCH  27  28
ATOM     28  CB  VAL A   1      -1.242  12.028  23.015  0.00  0.00    +0.000 C 
ATOM     29  CG1 VAL A   1      -0.928  13.527  22.946  0.00  0.00    +0.000 C 
ATOM     30  CG2 VAL A   1      -2.727  11.874  23.388  0.00  0.00    +0.000 C 
ENDBRANCH  27  28
BRANCH  27  31
ATOM     31  C   VAL A   1      -0.036   9.994  22.091  0.00  0.00    +0.000 C 
BRANCH  31  32
ATOM     32  O   VAL A   1      -0.290   8.914  21.198  0.00  0.00    +0.000 OA
ATOM     33  H   VAL A   1      -0.108   8.101  21.709  0.00  0.00    +0.000 HD
ENDBRANCH  31  32
ENDBRANCH  27  31
ENDBRANCH  25  27
ENDBRANCH   7  25
TORSDOF 7
ENDMDL
MODEL 9
REMARK VINA RESULT:      -6.1      2.531      7.086
REMARK  Name = 
REMARK  11 active torsions:
REMARK  status: ('A' for Active; 'I' for Inactive)
REMARK    1  A    between atoms: C_1  and  C_2
REMARK    2  A    between atoms: C_5  and  C_6
REMARK    3  A    between atoms: C_7  and  C_8
REMARK    4  A    between atoms: C_14  and  N_15
REMARK    5  A    between atoms: C_14  and  C_22
REMARK    6  A    between atoms: N_15  and  CA_16
REMARK    7  A    between atoms: CA_16  and  C_17
REMARK    8  A    between atoms: CA_16  and  CB_19
REMARK    9  A    between atoms: C_17  and  O_18
REMARK   10  A    between atoms: CB_19  and  CG1_20
REMARK   11  A    between atoms: CB_19  and  CG2_21
REMARK                            x       y       z     vdW  Elec       q    Type
REMARK                         _______ _______ _______ _____ _____    ______ ____
ROOT
ATOM      1  C   UNK A   0      -0.722  12.159  21.100  0.00  0.00    +0.000 A 
ATOM      2  C   UNK A   0      -0.646  11.321  22.238  0.00  0.00    +0.000 A 
ATOM      3  C   UNK A   0      -1.670  11.267  23.182  0.00  0.00    +0.000 A 
ATOM      4  C   UNK A   0      -2.744  12.098  22.982  0.00  0.00    +0.000 A 
ATOM      5  C   UNK A   0      -2.871  12.945  21.883  0.00  0.00    +0.000 A 
ATOM      6  C   UNK A   0      -1.863  12.970  20.922  0.00  0.00    +0.000 A 
ATOM      7  C   UNK A   0      -4.159  13.762  22.019  0.00  0.00    +0.000 C 
ATOM      8  C   UNK A   0      -4.730  13.173  23.358  0.00  0.00    +0.000 C 
ATOM      9  O   UNK A   0      -5.785  13.404  23.922  0.00  0.00    +0.000 OA
ATOM     10  N   UNK A   0      -3.824  12.232  23.823  0.00  0.00    +0.000 N 
ATOM     11  H   UNK A   0      -3.976  11.716  24.675  0.00  0.00    +0.000 HD
ENDROOT
BRANCH   1  18
ATOM     12  C   UNK A   0      -0.117  10.203  18.454  0.00  0.00    +0.000 C 
ATOM     13  C   UNK A   0       0.674  11.319  19.031  0.00  0.00    +0.000 A 
ATOM     14  N   UNK A   0       1.837  11.642  18.456  0.00  0.00    +0.000 NA
ATOM     15  O   UNK A   0       2.335  12.699  19.174  0.00  0.00    +0.000 OA
ATOM     16  C   UNK A   0       1.485  13.013  20.191  0.00  0.00    +0.000 A 
ATOM     17  C   UNK A   0       1.942  14.113  21.062  0.00  0.00    +0.000 C 
ATOM     18  C   UNK A   0       0.390  12.167  20.151  0.00  0.00    +0.000 A 
ENDBRANCH   1  18
BRANCH   7  19
ATOM     19  C   UNK A   0      -3.814  15.306  22.141  0.00  0.00    +0.000 C 
ATOM     20  C   UNK A   0      -4.992  16.291  21.971  0.00  0.00    +0.000 C 
ATOM     21  C   UNK A   0      -5.905  16.432  23.183  0.00  0.00    +0.000 C 
ATOM     22  C   UNK A   0      -5.187  16.542  24.527  0.00  0.00    +0.000 C 
ATOM     23  C   UNK A   0      -3.876  15.776  24.674  0.00  0.00    +0.000 C 
ATOM     24  C   UNK A   0      -3.037  15.745  23.403  0.00  0.00    +0.000 C 
ENDBRANCH   7  19
BRANCH   7  25
ATOM     25  N   VAL A   1      -5.104  13.553  20.875  0.00  0.00    +0.000 NA
ATOM     26  H   VAL A   1      -4.665  13.974  20.058  0.00  0.00    +0.000 HD
BRANCH  25  27
ATOM     27  CA  VAL A   1      -5.552  12.176  20.516  0.00  0.00    +0.000 C 
BRANCH  27  28
ATOM     28  CB  VAL A   1      -5.457  12.001  18.948  0.00  0.00    +0.000 C 
ATOM     29  CG1 VAL A   1      -4.061  11.600  18.457  0.00  0.00    +0.000 C 
ATOM     30  CG2 VAL A   1      -6.460  10.964  18.416  0.00  0.00    +0.000 C 
ENDBRANCH  27  28
BRANCH  27  31
ATOM     31  C   VAL A   1      -7.007  11.857  20.954  0.00  0.00    +0.000 C 
BRANCH  31  32
ATOM     32  O   VAL A   1      -7.641  13.020  21.475  0.00  0.00    +0.000 OA
ATOM     33  H   VAL A   1      -7.279  13.770  20.963  0.00  0.00    +0.000 HD
ENDBRANCH  31  32
ENDBRANCH  27  31
ENDBRANCH  25  27
ENDBRANCH   7  25
TORSDOF 7
ENDMDL
