MODEL 1
REMARK VINA RESULT:     -10.1      0.000      0.000
REMARK  Name = 
REMARK  5 active torsions:
REMARK  status: ('A' for Active; 'I' for Inactive)
REMARK    1  A    between atoms: C_1  and  C_2
REMARK    2  A    between atoms: N_7  and  C_8
REMARK    3  A    between atoms: C_11  and  C_12
REMARK    4  A    between atoms: C_21  and  C_22
REMARK    5  A    between atoms: C_26  and  C_27
REMARK                            x       y       z     vdW  Elec       q    Type
REMARK                         _______ _______ _______ _____ _____    ______ ____
ROOT
ATOM      1  C   UNL     1       3.825   1.865  20.749  0.00  0.00    +0.000 C 
ATOM      2  C   UNL     1       3.439   2.244  19.344  0.00  0.00    +0.000 C 
ATOM      3  O   UNL     1       3.787   1.534  18.399  0.00  0.00    +0.000 OA
ATOM      4  N   UNL     1       2.688   3.396  19.177  0.00  0.00    +0.000 N 
ATOM      5  C   UNL     1       2.327   4.346  20.232  0.00  0.00    +0.000 C 
ATOM      6  C   UNL     1       3.175   5.629  20.238  0.00  0.00    +0.000 C 
ATOM      7  N   UNL     1       2.997   6.447  19.018  0.00  0.00    +0.000 N 
ATOM      8  C   UNL     1       3.735   6.016  17.897  0.00  0.00    +0.000 A 
ATOM      9  C   UNL     1       4.688   6.869  17.320  0.00  0.00    +0.000 A 
ATOM     10  C   UNL     1       5.415   6.481  16.190  0.00  0.00    +0.000 A 
ATOM     11  C   UNL     1       5.221   5.224  15.601  0.00  0.00    +0.000 A 
ATOM     12  C   UNL     1       4.272   4.374  16.195  0.00  0.00    +0.000 A 
ATOM     13  C   UNL     1       3.519   4.758  17.317  0.00  0.00    +0.000 A 
ATOM     14  C   UNL     1       2.430   3.844  17.819  0.00  0.00    +0.000 C 
ENDROOT
BRANCH   7  15
ATOM     15  C   UNL     1       2.211   7.609  19.060  0.00  0.00    +0.000 A 
ATOM     16  C   UNL     1       1.920   8.351  17.916  0.00  0.00    +0.000 A 
ATOM     17  C   UNL     1       1.168   9.524  17.982  0.00  0.00    +0.000 A 
ATOM     18  C   UNL     1       0.672   9.989  19.203  0.00  0.00    +0.000 A 
ATOM     19  C   UNL     1       0.916   9.240  20.358  0.00  0.00    +0.000 A 
ATOM     20  C   UNL     1       1.667   8.060  20.283  0.00  0.00    +0.000 A 
BRANCH  18  21
ATOM     21  C   UNL     1      -0.127  11.269  19.253  0.00  0.00    +0.000 C 
ATOM     22  F   UNL     1      -1.423  11.111  18.858  0.00  0.00    +0.000 F 
ATOM     23  F   UNL     1      -0.184  11.808  20.502  0.00  0.00    +0.000 F 
ATOM     24  F   UNL     1       0.389  12.236  18.447  0.00  0.00    +0.000 F 
ENDBRANCH  18  21
ENDBRANCH   7  15
BRANCH  11  25
ATOM     25  C   UNL     1       5.959   4.820  14.387  0.00  0.00    +0.000 A 
ATOM     26  C   UNL     1       7.220   5.338  14.078  0.00  0.00    +0.000 A 
ATOM     27  C   UNL     1       7.885   4.900  12.938  0.00  0.00    +0.000 A 
ATOM     28  C   UNL     1       7.280   3.955  12.124  0.00  0.00    +0.000 A 
ATOM     29  C   UNL     1       6.026   3.487  12.488  0.00  0.00    +0.000 A 
ATOM     30  N   UNL     1       5.350   3.898  13.598  0.00  0.00    +0.000 NA
BRANCH  29  31
ATOM     31  C   UNL     1       5.345   2.472  11.622  0.00  0.00    +0.000 C 
ATOM     32  N   UNL     1       6.024   1.299  11.440  0.00  0.00    +0.000 N 
ATOM     33  O   UNL     1       4.251   2.668  11.109  0.00  0.00    +0.000 OA
ATOM     34  H   UNL     1       6.931   1.170  11.875  0.00  0.00    +0.000 HD
ATOM     35  H   UNL     1       5.612   0.569  10.877  0.00  0.00    +0.000 HD
ENDBRANCH  29  31
ENDBRANCH  11  25
TORSDOF 4
ENDMDL
MODEL 2
REMARK VINA RESULT:     -10.1      0.186      1.105
REMARK  Name = 
REMARK  5 active torsions:
REMARK  status: ('A' for Active; 'I' for Inactive)
REMARK    1  A    between atoms: C_1  and  C_2
REMARK    2  A    between atoms: N_7  and  C_8
REMARK    3  A    between atoms: C_11  and  C_12
REMARK    4  A    between atoms: C_21  and  C_22
REMARK    5  A    between atoms: C_26  and  C_27
REMARK                            x       y       z     vdW  Elec       q    Type
REMARK                         _______ _______ _______ _____ _____    ______ ____
ROOT
ATOM      1  C   UNL     1       3.762   1.894  20.794  0.00  0.00    +0.000 C 
ATOM      2  C   UNL     1       3.386   2.276  19.386  0.00  0.00    +0.000 C 
ATOM      3  O   UNL     1       3.738   1.566  18.444  0.00  0.00    +0.000 OA
ATOM      4  N   UNL     1       2.641   3.431  19.216  0.00  0.00    +0.000 N 
ATOM      5  C   UNL     1       2.276   4.381  20.269  0.00  0.00    +0.000 C 
ATOM      6  C   UNL     1       3.129   5.661  20.281  0.00  0.00    +0.000 C 
ATOM      7  N   UNL     1       2.962   6.481  19.061  0.00  0.00    +0.000 N 
ATOM      8  C   UNL     1       3.705   6.048  17.945  0.00  0.00    +0.000 A 
ATOM      9  C   UNL     1       4.664   6.898  17.374  0.00  0.00    +0.000 A 
ATOM     10  C   UNL     1       5.398   6.508  16.248  0.00  0.00    +0.000 A 
ATOM     11  C   UNL     1       5.203   5.252  15.657  0.00  0.00    +0.000 A 
ATOM     12  C   UNL     1       4.247   4.406  16.244  0.00  0.00    +0.000 A 
ATOM     13  C   UNL     1       3.489   4.792  17.362  0.00  0.00    +0.000 A 
ATOM     14  C   UNL     1       2.393   3.881  17.856  0.00  0.00    +0.000 C 
ENDROOT
BRANCH   7  15
ATOM     15  C   UNL     1       2.179   7.646  19.099  0.00  0.00    +0.000 A 
ATOM     16  C   UNL     1       1.696   8.177  20.293  0.00  0.00    +0.000 A 
ATOM     17  C   UNL     1       0.887   9.314  20.308  0.00  0.00    +0.000 A 
ATOM     18  C   UNL     1       0.542   9.964  19.119  0.00  0.00    +0.000 A 
ATOM     19  C   UNL     1       1.049   9.472  17.912  0.00  0.00    +0.000 A 
ATOM     20  C   UNL     1       1.865   8.334  17.906  0.00  0.00    +0.000 A 
BRANCH  18  21
ATOM     21  C   UNL     1      -0.346  11.183  19.158  0.00  0.00    +0.000 C 
ATOM     22  F   UNL     1       0.283  12.322  18.748  0.00  0.00    +0.000 F 
ATOM     23  F   UNL     1      -1.446  11.062  18.363  0.00  0.00    +0.000 F 
ATOM     24  F   UNL     1      -0.811  11.450  20.409  0.00  0.00    +0.000 F 
ENDBRANCH  18  21
ENDBRANCH   7  15
BRANCH  11  25
ATOM     25  C   UNL     1       5.947   4.847  14.448  0.00  0.00    +0.000 A 
ATOM     26  C   UNL     1       7.219   5.348  14.156  0.00  0.00    +0.000 A 
ATOM     27  C   UNL     1       7.889   4.908  13.020  0.00  0.00    +0.000 A 
ATOM     28  C   UNL     1       7.278   3.979  12.192  0.00  0.00    +0.000 A 
ATOM     29  C   UNL     1       6.013   3.529  12.539  0.00  0.00    +0.000 A 
ATOM     30  N   UNL     1       5.332   3.941  13.644  0.00  0.00    +0.000 NA
BRANCH  29  31
ATOM     31  C   UNL     1       5.326   2.532  11.657  0.00  0.00    +0.000 C 
ATOM     32  N   UNL     1       5.983   1.346  11.480  0.00  0.00    +0.000 N 
ATOM     33  O   UNL     1       4.244   2.753  11.127  0.00  0.00    +0.000 OA
ATOM     34  H   UNL     1       6.880   1.196  11.929  0.00  0.00    +0.000 HD
ATOM     35  H   UNL     1       5.565   0.627  10.907  0.00  0.00    +0.000 HD
ENDBRANCH  29  31
ENDBRANCH  11  25
TORSDOF 4
ENDMDL
MODEL 3
REMARK VINA RESULT:      -8.8      1.566      2.070
REMARK  Name = 
REMARK  5 active torsions:
REMARK  status: ('A' for Active; 'I' for Inactive)
REMARK    1  A    between atoms: C_1  and  C_2
REMARK    2  A    between atoms: N_7  and  C_8
REMARK    3  A    between atoms: C_11  and  C_12
REMARK    4  A    between atoms: C_21  and  C_22
REMARK    5  A    between atoms: C_26  and  C_27
REMARK                            x       y       z     vdW  Elec       q    Type
REMARK                         _______ _______ _______ _____ _____    ______ ____
ROOT
ATOM      1  C   UNL     1       3.625   1.979  21.034  0.00  0.00    +0.000 C 
ATOM      2  C   UNL     1       3.228   2.324  19.622  0.00  0.00    +0.000 C 
ATOM      3  O   UNL     1       3.556   1.582  18.695  0.00  0.00    +0.000 OA
ATOM      4  N   UNL     1       2.492   3.481  19.431  0.00  0.00    +0.000 N 
ATOM      5  C   UNL     1       2.155   4.465  20.462  0.00  0.00    +0.000 C 
ATOM      6  C   UNL     1       3.022   5.736  20.422  0.00  0.00    +0.000 C 
ATOM      7  N   UNL     1       2.841   6.522  19.181  0.00  0.00    +0.000 N 
ATOM      8  C   UNL     1       3.561   6.048  18.066  0.00  0.00    +0.000 A 
ATOM      9  C   UNL     1       4.518   6.871  17.453  0.00  0.00    +0.000 A 
ATOM     10  C   UNL     1       5.228   6.441  16.328  0.00  0.00    +0.000 A 
ATOM     11  C   UNL     1       5.010   5.170  15.777  0.00  0.00    +0.000 A 
ATOM     12  C   UNL     1       4.056   4.351  16.405  0.00  0.00    +0.000 A 
ATOM     13  C   UNL     1       3.321   4.778  17.524  0.00  0.00    +0.000 A 
ATOM     14  C   UNL     1       2.225   3.894  18.063  0.00  0.00    +0.000 C 
ENDROOT
BRANCH   7  15
ATOM     15  C   UNL     1       2.071   7.695  19.198  0.00  0.00    +0.000 A 
ATOM     16  C   UNL     1       1.811   8.429  18.043  0.00  0.00    +0.000 A 
ATOM     17  C   UNL     1       1.075   9.614  18.084  0.00  0.00    +0.000 A 
ATOM     18  C   UNL     1       0.565  10.099  19.292  0.00  0.00    +0.000 A 
ATOM     19  C   UNL     1       0.779   9.358  20.458  0.00  0.00    +0.000 A 
ATOM     20  C   UNL     1       1.514   8.166  20.408  0.00  0.00    +0.000 A 
BRANCH  18  21
ATOM     21  C   UNL     1      -0.215  11.390  19.316  0.00  0.00    +0.000 C 
ATOM     22  F   UNL     1       0.292  12.341  18.480  0.00  0.00    +0.000 F 
ATOM     23  F   UNL     1      -1.516  11.229  18.947  0.00  0.00    +0.000 F 
ATOM     24  F   UNL     1      -0.239  11.962  20.551  0.00  0.00    +0.000 F 
ENDBRANCH  18  21
ENDBRANCH   7  15
BRANCH  11  25
ATOM     25  C   UNL     1       5.728   4.722  14.567  0.00  0.00    +0.000 A 
ATOM     26  C   UNL     1       5.358   3.569  13.868  0.00  0.00    +0.000 A 
ATOM     27  C   UNL     1       6.050   3.209  12.717  0.00  0.00    +0.000 A 
ATOM     28  C   UNL     1       7.100   4.003  12.283  0.00  0.00    +0.000 A 
ATOM     29  C   UNL     1       7.416   5.130  13.027  0.00  0.00    +0.000 A 
ATOM     30  N   UNL     1       6.758   5.508  14.160  0.00  0.00    +0.000 NA
BRANCH  29  31
ATOM     31  C   UNL     1       8.552   6.001  12.587  0.00  0.00    +0.000 C 
ATOM     32  N   UNL     1       8.352   6.692  11.423  0.00  0.00    +0.000 N 
ATOM     33  O   UNL     1       9.595   6.100  13.221  0.00  0.00    +0.000 OA
ATOM     34  H   UNL     1       7.479   6.585  10.919  0.00  0.00    +0.000 HD
ATOM     35  H   UNL     1       9.076   7.306  11.080  0.00  0.00    +0.000 HD
ENDBRANCH  29  31
ENDBRANCH  11  25
TORSDOF 4
ENDMDL
MODEL 4
REMARK VINA RESULT:      -8.7      1.570      2.141
REMARK  Name = 
REMARK  5 active torsions:
REMARK  status: ('A' for Active; 'I' for Inactive)
REMARK    1  A    between atoms: C_1  and  C_2
REMARK    2  A    between atoms: N_7  and  C_8
REMARK    3  A    between atoms: C_11  and  C_12
REMARK    4  A    between atoms: C_21  and  C_22
REMARK    5  A    between atoms: C_26  and  C_27
REMARK                            x       y       z     vdW  Elec       q    Type
REMARK                         _______ _______ _______ _____ _____    ______ ____
ROOT
ATOM      1  C   UNL     1       3.564   1.924  20.984  0.00  0.00    +0.000 C 
ATOM      2  C   UNL     1       3.175   2.290  19.576  0.00  0.00    +0.000 C 
ATOM      3  O   UNL     1       3.497   1.556  18.641  0.00  0.00    +0.000 OA
ATOM      4  N   UNL     1       2.452   3.458  19.396  0.00  0.00    +0.000 N 
ATOM      5  C   UNL     1       2.124   4.433  20.439  0.00  0.00    +0.000 C 
ATOM      6  C   UNL     1       3.004   5.695  20.416  0.00  0.00    +0.000 C 
ATOM      7  N   UNL     1       2.836   6.497  19.184  0.00  0.00    +0.000 N 
ATOM      8  C   UNL     1       3.552   6.029  18.064  0.00  0.00    +0.000 A 
ATOM      9  C   UNL     1       4.521   6.848  17.464  0.00  0.00    +0.000 A 
ATOM     10  C   UNL     1       5.228   6.423  16.335  0.00  0.00    +0.000 A 
ATOM     11  C   UNL     1       4.997   5.162  15.769  0.00  0.00    +0.000 A 
ATOM     12  C   UNL     1       4.033   4.346  16.385  0.00  0.00    +0.000 A 
ATOM     13  C   UNL     1       3.300   4.768  17.507  0.00  0.00    +0.000 A 
ATOM     14  C   UNL     1       2.193   3.890  18.033  0.00  0.00    +0.000 C 
ENDROOT
BRANCH   7  15
ATOM     15  C   UNL     1       2.079   7.679  19.213  0.00  0.00    +0.000 A 
ATOM     16  C   UNL     1       1.524   8.176  20.390  0.00  0.00    +0.000 A 
ATOM     17  C   UNL     1       0.742   9.332  20.394  0.00  0.00    +0.000 A 
ATOM     18  C   UNL     1       0.498  10.036  19.212  0.00  0.00    +0.000 A 
ATOM     19  C   UNL     1       1.078   9.578  18.025  0.00  0.00    +0.000 A 
ATOM     20  C   UNL     1       1.866   8.420  18.029  0.00  0.00    +0.000 A 
BRANCH  18  21
ATOM     21  C   UNL     1      -0.364  11.275  19.237  0.00  0.00    +0.000 C 
ATOM     22  F   UNL     1      -1.462  11.184  18.433  0.00  0.00    +0.000 F 
ATOM     23  F   UNL     1      -0.838  11.564  20.480  0.00  0.00    +0.000 F 
ATOM     24  F   UNL     1       0.306  12.383  18.820  0.00  0.00    +0.000 F 
ENDBRANCH  18  21
ENDBRANCH   7  15
BRANCH  11  25
ATOM     25  C   UNL     1       5.713   4.720  14.556  0.00  0.00    +0.000 A 
ATOM     26  C   UNL     1       5.334   3.578  13.843  0.00  0.00    +0.000 A 
ATOM     27  C   UNL     1       6.024   3.224  12.689  0.00  0.00    +0.000 A 
ATOM     28  C   UNL     1       7.082   4.013  12.266  0.00  0.00    +0.000 A 
ATOM     29  C   UNL     1       7.408   5.129  13.023  0.00  0.00    +0.000 A 
ATOM     30  N   UNL     1       6.752   5.500  14.158  0.00  0.00    +0.000 NA
BRANCH  29  31
ATOM     31  C   UNL     1       8.553   5.993  12.594  0.00  0.00    +0.000 C 
ATOM     32  N   UNL     1       8.364   6.693  11.434  0.00  0.00    +0.000 N 
ATOM     33  O   UNL     1       9.593   6.079  13.234  0.00  0.00    +0.000 OA
ATOM     34  H   UNL     1       7.494   6.597  10.925  0.00  0.00    +0.000 HD
ATOM     35  H   UNL     1       9.095   7.305  11.099  0.00  0.00    +0.000 HD
ENDBRANCH  29  31
ENDBRANCH  11  25
TORSDOF 4
ENDMDL
MODEL 5
REMARK VINA RESULT:      -7.9      7.082     12.446
REMARK  Name = 
REMARK  5 active torsions:
REMARK  status: ('A' for Active; 'I' for Inactive)
REMARK    1  A    between atoms: C_1  and  C_2
REMARK    2  A    between atoms: N_7  and  C_8
REMARK    3  A    between atoms: C_11  and  C_12
REMARK    4  A    between atoms: C_21  and  C_22
REMARK    5  A    between atoms: C_26  and  C_27
REMARK                            x       y       z     vdW  Elec       q    Type
REMARK                         _______ _______ _______ _____ _____    ______ ____
ROOT
ATOM      1  C   UNL     1       1.808  16.295  19.428  0.00  0.00    +0.000 C 
ATOM      2  C   UNL     1       0.595  15.527  18.973  0.00  0.00    +0.000 C 
ATOM      3  O   UNL     1      -0.463  16.122  18.763  0.00  0.00    +0.000 OA
ATOM      4  N   UNL     1       0.731  14.160  18.803  0.00  0.00    +0.000 N 
ATOM      5  C   UNL     1       1.919  13.368  19.131  0.00  0.00    +0.000 C 
ATOM      6  C   UNL     1       1.801  12.578  20.447  0.00  0.00    +0.000 C 
ATOM      7  N   UNL     1       0.745  11.542  20.408  0.00  0.00    +0.000 N 
ATOM      8  C   UNL     1      -0.564  12.016  20.625  0.00  0.00    +0.000 A 
ATOM      9  C   UNL     1      -1.305  11.540  21.718  0.00  0.00    +0.000 A 
ATOM     10  C   UNL     1      -2.617  11.969  21.944  0.00  0.00    +0.000 A 
ATOM     11  C   UNL     1      -3.233  12.895  21.090  0.00  0.00    +0.000 A 
ATOM     12  C   UNL     1      -2.477  13.372  20.006  0.00  0.00    +0.000 A 
ATOM     13  C   UNL     1      -1.166  12.934  19.754  0.00  0.00    +0.000 A 
ATOM     14  C   UNL     1      -0.466  13.393  18.500  0.00  0.00    +0.000 C 
ENDROOT
BRANCH   7  15
ATOM     15  C   UNL     1       1.092  10.190  20.253  0.00  0.00    +0.000 A 
ATOM     16  C   UNL     1       1.114   9.302  21.327  0.00  0.00    +0.000 A 
ATOM     17  C   UNL     1       1.499   7.971  21.161  0.00  0.00    +0.000 A 
ATOM     18  C   UNL     1       1.866   7.482  19.904  0.00  0.00    +0.000 A 
ATOM     19  C   UNL     1       1.812   8.345  18.805  0.00  0.00    +0.000 A 
ATOM     20  C   UNL     1       1.420   9.679  18.978  0.00  0.00    +0.000 A 
BRANCH  18  21
ATOM     21  C   UNL     1       2.293   6.043  19.751  0.00  0.00    +0.000 C 
ATOM     22  F   UNL     1       1.667   5.200  20.621  0.00  0.00    +0.000 F 
ATOM     23  F   UNL     1       2.040   5.546  18.509  0.00  0.00    +0.000 F 
ATOM     24  F   UNL     1       3.626   5.869  19.964  0.00  0.00    +0.000 F 
ENDBRANCH  18  21
ENDBRANCH   7  15
BRANCH  11  25
ATOM     25  C   UNL     1      -4.629  13.326  21.301  0.00  0.00    +0.000 A 
ATOM     26  C   UNL     1      -5.283  14.187  20.414  0.00  0.00    +0.000 A 
ATOM     27  C   UNL     1      -6.608  14.537  20.643  0.00  0.00    +0.000 A 
ATOM     28  C   UNL     1      -7.260  14.025  21.754  0.00  0.00    +0.000 A 
ATOM     29  C   UNL     1      -6.550  13.180  22.595  0.00  0.00    +0.000 A 
ATOM     30  N   UNL     1      -5.251  12.820  22.397  0.00  0.00    +0.000 NA
BRANCH  29  31
ATOM     31  C   UNL     1      -7.226  12.620  23.808  0.00  0.00    +0.000 C 
ATOM     32  N   UNL     1      -7.561  13.531  24.773  0.00  0.00    +0.000 N 
ATOM     33  O   UNL     1      -7.472  11.428  23.937  0.00  0.00    +0.000 OA
ATOM     34  H   UNL     1      -7.339  14.510  24.638  0.00  0.00    +0.000 HD
ATOM     35  H   UNL     1      -8.031  13.217  25.609  0.00  0.00    +0.000 HD
ENDBRANCH  29  31
ENDBRANCH  11  25
TORSDOF 4
ENDMDL
MODEL 6
REMARK VINA RESULT:      -7.8      4.349      7.852
REMARK  Name = 
REMARK  5 active torsions:
REMARK  status: ('A' for Active; 'I' for Inactive)
REMARK    1  A    between atoms: C_1  and  C_2
REMARK    2  A    between atoms: N_7  and  C_8
REMARK    3  A    between atoms: C_11  and  C_12
REMARK    4  A    between atoms: C_21  and  C_22
REMARK    5  A    between atoms: C_26  and  C_27
REMARK                            x       y       z     vdW  Elec       q    Type
REMARK                         _______ _______ _______ _____ _____    ______ ____
ROOT
ATOM      1  C   UNL     1       2.595  14.960  20.335  0.00  0.00    +0.000 C 
ATOM      2  C   UNL     1       2.227  13.581  20.816  0.00  0.00    +0.000 C 
ATOM      3  O   UNL     1       3.104  12.822  21.230  0.00  0.00    +0.000 OA
ATOM      4  N   UNL     1       0.889  13.226  20.775  0.00  0.00    +0.000 N 
ATOM      5  C   UNL     1      -0.195  14.028  20.202  0.00  0.00    +0.000 C 
ATOM      6  C   UNL     1      -0.655  13.556  18.811  0.00  0.00    +0.000 C 
ATOM      7  N   UNL     1      -1.253  12.203  18.827  0.00  0.00    +0.000 N 
ATOM      8  C   UNL     1      -0.326  11.141  18.833  0.00  0.00    +0.000 A 
ATOM      9  C   UNL     1      -0.320  10.215  17.779  0.00  0.00    +0.000 A 
ATOM     10  C   UNL     1       0.568   9.135  17.770  0.00  0.00    +0.000 A 
ATOM     11  C   UNL     1       1.486   8.945  18.812  0.00  0.00    +0.000 A 
ATOM     12  C   UNL     1       1.478   9.884  19.857  0.00  0.00    +0.000 A 
ATOM     13  C   UNL     1       0.578  10.963  19.889  0.00  0.00    +0.000 A 
ATOM     14  C   UNL     1       0.543  11.854  21.105  0.00  0.00    +0.000 C 
ENDROOT
BRANCH   7  15
ATOM     15  C   UNL     1      -2.646  12.049  18.748  0.00  0.00    +0.000 A 
ATOM     16  C   UNL     1      -3.496  12.438  19.782  0.00  0.00    +0.000 A 
ATOM     17  C   UNL     1      -4.875  12.243  19.702  0.00  0.00    +0.000 A 
ATOM     18  C   UNL     1      -5.451  11.657  18.572  0.00  0.00    +0.000 A 
ATOM     19  C   UNL     1      -4.623  11.296  17.505  0.00  0.00    +0.000 A 
ATOM     20  C   UNL     1      -3.239  11.500  17.590  0.00  0.00    +0.000 A 
BRANCH  18  21
ATOM     21  C   UNL     1      -6.944  11.441  18.513  0.00  0.00    +0.000 C 
ATOM     22  F   UNL     1      -7.539  12.075  17.462  0.00  0.00    +0.000 F 
ATOM     23  F   UNL     1      -7.284  10.128  18.393  0.00  0.00    +0.000 F 
ATOM     24  F   UNL     1      -7.580  11.898  19.627  0.00  0.00    +0.000 F 
ENDBRANCH  18  21
ENDBRANCH   7  15
BRANCH  11  25
ATOM     25  C   UNL     1       2.402   7.787  18.829  0.00  0.00    +0.000 A 
ATOM     26  C   UNL     1       2.304   6.776  19.790  0.00  0.00    +0.000 A 
ATOM     27  C   UNL     1       3.173   5.691  19.741  0.00  0.00    +0.000 A 
ATOM     28  C   UNL     1       4.126   5.635  18.737  0.00  0.00    +0.000 A 
ATOM     29  C   UNL     1       4.171   6.674  17.819  0.00  0.00    +0.000 A 
ATOM     30  N   UNL     1       3.335   7.750  17.842  0.00  0.00    +0.000 NA
BRANCH  29  31
ATOM     31  C   UNL     1       5.198   6.643  16.729  0.00  0.00    +0.000 C 
ATOM     32  N   UNL     1       6.365   7.304  16.997  0.00  0.00    +0.000 N 
ATOM     33  O   UNL     1       5.017   6.064  15.666  0.00  0.00    +0.000 OA
ATOM     34  H   UNL     1       6.482   7.778  17.885  0.00  0.00    +0.000 HD
ATOM     35  H   UNL     1       7.102   7.309  16.307  0.00  0.00    +0.000 HD
ENDBRANCH  29  31
ENDBRANCH  11  25
TORSDOF 4
ENDMDL
MODEL 7
REMARK VINA RESULT:      -7.8      6.646     12.069
REMARK  Name = 
REMARK  5 active torsions:
REMARK  status: ('A' for Active; 'I' for Inactive)
REMARK    1  A    between atoms: C_1  and  C_2
REMARK    2  A    between atoms: N_7  and  C_8
REMARK    3  A    between atoms: C_11  and  C_12
REMARK    4  A    between atoms: C_21  and  C_22
REMARK    5  A    between atoms: C_26  and  C_27
REMARK                            x       y       z     vdW  Elec       q    Type
REMARK                         _______ _______ _______ _____ _____    ______ ____
ROOT
ATOM      1  C   UNL     1       1.707  16.053  18.754  0.00  0.00    +0.000 C 
ATOM      2  C   UNL     1       0.429  15.260  18.697  0.00  0.00    +0.000 C 
ATOM      3  O   UNL     1      -0.652  15.826  18.873  0.00  0.00    +0.000 OA
ATOM      4  N   UNL     1       0.529  13.904  18.436  0.00  0.00    +0.000 N 
ATOM      5  C   UNL     1       1.775  13.142  18.321  0.00  0.00    +0.000 C 
ATOM      6  C   UNL     1       2.117  12.308  19.568  0.00  0.00    +0.000 C 
ATOM      7  N   UNL     1       1.131  11.239  19.839  0.00  0.00    +0.000 N 
ATOM      8  C   UNL     1      -0.041  11.663  20.497  0.00  0.00    +0.000 A 
ATOM      9  C   UNL     1      -0.367  11.129  21.753  0.00  0.00    +0.000 A 
ATOM     10  C   UNL     1      -1.538  11.507  22.418  0.00  0.00    +0.000 A 
ATOM     11  C   UNL     1      -2.422  12.437  21.854  0.00  0.00    +0.000 A 
ATOM     12  C   UNL     1      -2.080  12.973  20.601  0.00  0.00    +0.000 A 
ATOM     13  C   UNL     1      -0.918  12.587  19.912  0.00  0.00    +0.000 A 
ATOM     14  C   UNL     1      -0.684  13.108  18.517  0.00  0.00    +0.000 C 
ENDROOT
BRANCH   7  15
ATOM     15  C   UNL     1       1.436   9.906  19.524  0.00  0.00    +0.000 A 
ATOM     16  C   UNL     1       1.414   8.893  20.481  0.00  0.00    +0.000 A 
ATOM     17  C   UNL     1       1.756   7.580  20.158  0.00  0.00    +0.000 A 
ATOM     18  C   UNL     1       2.125   7.235  18.855  0.00  0.00    +0.000 A 
ATOM     19  C   UNL     1       2.115   8.227  17.869  0.00  0.00    +0.000 A 
ATOM     20  C   UNL     1       1.764   9.542  18.200  0.00  0.00    +0.000 A 
BRANCH  18  21
ATOM     21  C   UNL     1       2.506   5.812  18.531  0.00  0.00    +0.000 C 
ATOM     22  F   UNL     1       1.695   5.235  17.598  0.00  0.00    +0.000 F 
ATOM     23  F   UNL     1       3.771   5.702  18.039  0.00  0.00    +0.000 F 
ATOM     24  F   UNL     1       2.451   4.997  19.620  0.00  0.00    +0.000 F 
ENDBRANCH  18  21
ENDBRANCH   7  15
BRANCH  11  25
ATOM     25  C   UNL     1      -3.677  12.815  22.533  0.00  0.00    +0.000 A 
ATOM     26  C   UNL     1      -3.688  13.573  23.708  0.00  0.00    +0.000 A 
ATOM     27  C   UNL     1      -4.900  13.928  24.289  0.00  0.00    +0.000 A 
ATOM     28  C   UNL     1      -6.081  13.519  23.690  0.00  0.00    +0.000 A 
ATOM     29  C   UNL     1      -5.998  12.766  22.529  0.00  0.00    +0.000 A 
ATOM     30  N   UNL     1      -4.826  12.401  21.937  0.00  0.00    +0.000 NA
BRANCH  29  31
ATOM     31  C   UNL     1      -7.259  12.302  21.867  0.00  0.00    +0.000 C 
ATOM     32  N   UNL     1      -7.917  13.243  21.122  0.00  0.00    +0.000 N 
ATOM     33  O   UNL     1      -7.680  11.158  21.974  0.00  0.00    +0.000 OA
ATOM     34  H   UNL     1      -7.544  14.183  21.058  0.00  0.00    +0.000 HD
ATOM     35  H   UNL     1      -8.766  12.988  20.640  0.00  0.00    +0.000 HD
ENDBRANCH  29  31
ENDBRANCH  11  25
TORSDOF 4
ENDMDL
MODEL 8
REMARK VINA RESULT:      -7.8      7.148     12.438
REMARK  Name = 
REMARK  5 active torsions:
REMARK  status: ('A' for Active; 'I' for Inactive)
REMARK    1  A    between atoms: C_1  and  C_2
REMARK    2  A    between atoms: N_7  and  C_8
REMARK    3  A    between atoms: C_11  and  C_12
REMARK    4  A    between atoms: C_21  and  C_22
REMARK    5  A    between atoms: C_26  and  C_27
REMARK                            x       y       z     vdW  Elec       q    Type
REMARK                         _______ _______ _______ _____ _____    ______ ____
ROOT
ATOM      1  C   UNL     1       1.743  16.414  19.396  0.00  0.00    +0.000 C 
ATOM      2  C   UNL     1       0.545  15.620  18.946  0.00  0.00    +0.000 C 
ATOM      3  O   UNL     1      -0.524  16.193  18.731  0.00  0.00    +0.000 OA
ATOM      4  N   UNL     1       0.708  14.254  18.787  0.00  0.00    +0.000 N 
ATOM      5  C   UNL     1       1.910  13.488  19.123  0.00  0.00    +0.000 C 
ATOM      6  C   UNL     1       1.806  12.706  20.444  0.00  0.00    +0.000 C 
ATOM      7  N   UNL     1       0.770  11.649  20.413  0.00  0.00    +0.000 N 
ATOM      8  C   UNL     1      -0.548  12.100  20.625  0.00  0.00    +0.000 A 
ATOM      9  C   UNL     1      -1.281  11.619  21.721  0.00  0.00    +0.000 A 
ATOM     10  C   UNL     1      -2.601  12.024  21.942  0.00  0.00    +0.000 A 
ATOM     11  C   UNL     1      -3.234  12.931  21.080  0.00  0.00    +0.000 A 
ATOM     12  C   UNL     1      -2.486  13.414  19.993  0.00  0.00    +0.000 A 
ATOM     13  C   UNL     1      -1.166  13.000  19.746  0.00  0.00    +0.000 A 
ATOM     14  C   UNL     1      -0.474  13.462  18.489  0.00  0.00    +0.000 C 
ENDROOT
BRANCH   7  15
ATOM     15  C   UNL     1       1.144  10.304  20.269  0.00  0.00    +0.000 A 
ATOM     16  C   UNL     1       1.493   9.758  19.036  0.00  0.00    +0.000 A 
ATOM     17  C   UNL     1       1.825   8.409  18.905  0.00  0.00    +0.000 A 
ATOM     18  C   UNL     1       1.826   7.561  20.016  0.00  0.00    +0.000 A 
ATOM     19  C   UNL     1       1.518   8.096  21.271  0.00  0.00    +0.000 A 
ATOM     20  C   UNL     1       1.191   9.452  21.395  0.00  0.00    +0.000 A 
BRANCH  18  21
ATOM     21  C   UNL     1       2.173   6.102  19.850  0.00  0.00    +0.000 C 
ATOM     22  F   UNL     1       3.495   5.836  20.053  0.00  0.00    +0.000 F 
ATOM     23  F   UNL     1       1.497   5.295  20.714  0.00  0.00    +0.000 F 
ATOM     24  F   UNL     1       1.892   5.639  18.601  0.00  0.00    +0.000 F 
ENDBRANCH  18  21
ENDBRANCH   7  15
BRANCH  11  25
ATOM     25  C   UNL     1      -4.638  13.337  21.286  0.00  0.00    +0.000 A 
ATOM     26  C   UNL     1      -5.311  14.167  20.385  0.00  0.00    +0.000 A 
ATOM     27  C   UNL     1      -6.644  14.493  20.611  0.00  0.00    +0.000 A 
ATOM     28  C   UNL     1      -7.282  13.988  21.733  0.00  0.00    +0.000 A 
ATOM     29  C   UNL     1      -6.553  13.175  22.588  0.00  0.00    +0.000 A 
ATOM     30  N   UNL     1      -5.247  12.839  22.393  0.00  0.00    +0.000 NA
BRANCH  29  31
ATOM     31  C   UNL     1      -7.215  12.623  23.813  0.00  0.00    +0.000 C 
ATOM     32  N   UNL     1      -7.598  13.548  24.746  0.00  0.00    +0.000 N 
ATOM     33  O   UNL     1      -7.410  11.426  23.977  0.00  0.00    +0.000 OA
ATOM     34  H   UNL     1      -7.418  14.531  24.582  0.00  0.00    +0.000 HD
ATOM     35  H   UNL     1      -8.061  13.240  25.588  0.00  0.00    +0.000 HD
ENDBRANCH  29  31
ENDBRANCH  11  25
TORSDOF 4
ENDMDL
MODEL 9
REMARK VINA RESULT:      -7.8      4.378      7.740
REMARK  Name = 
REMARK  5 active torsions:
REMARK  status: ('A' for Active; 'I' for Inactive)
REMARK    1  A    between atoms: C_1  and  C_2
REMARK    2  A    between atoms: N_7  and  C_8
REMARK    3  A    between atoms: C_11  and  C_12
REMARK    4  A    between atoms: C_21  and  C_22
REMARK    5  A    between atoms: C_26  and  C_27
REMARK                            x       y       z     vdW  Elec       q    Type
REMARK                         _______ _______ _______ _____ _____    ______ ____
ROOT
ATOM      1  C   UNL     1       2.550  14.928  20.321  0.00  0.00    +0.000 C 
ATOM      2  C   UNL     1       2.196  13.541  20.789  0.00  0.00    +0.000 C 
ATOM      3  O   UNL     1       3.081  12.789  21.199  0.00  0.00    +0.000 OA
ATOM      4  N   UNL     1       0.862  13.172  20.742  0.00  0.00    +0.000 N 
ATOM      5  C   UNL     1      -0.229  13.966  20.172  0.00  0.00    +0.000 C 
ATOM      6  C   UNL     1      -0.680  13.500  18.776  0.00  0.00    +0.000 C 
ATOM      7  N   UNL     1      -1.263  12.140  18.779  0.00  0.00    +0.000 N 
ATOM      8  C   UNL     1      -0.324  11.089  18.779  0.00  0.00    +0.000 A 
ATOM      9  C   UNL     1      -0.305  10.172  17.717  0.00  0.00    +0.000 A 
ATOM     10  C   UNL     1       0.595   9.102  17.702  0.00  0.00    +0.000 A 
ATOM     11  C   UNL     1       1.512   8.913  18.746  0.00  0.00    +0.000 A 
ATOM     12  C   UNL     1       1.491   9.844  19.798  0.00  0.00    +0.000 A 
ATOM     13  C   UNL     1       0.579  10.912  19.836  0.00  0.00    +0.000 A 
ATOM     14  C   UNL     1       0.530  11.793  21.059  0.00  0.00    +0.000 C 
ENDROOT
BRANCH   7  15
ATOM     15  C   UNL     1      -2.654  11.972  18.695  0.00  0.00    +0.000 A 
ATOM     16  C   UNL     1      -3.265  11.381  17.591  0.00  0.00    +0.000 A 
ATOM     17  C   UNL     1      -4.652  11.257  17.508  0.00  0.00    +0.000 A 
ATOM     18  C   UNL     1      -5.476  11.714  18.540  0.00  0.00    +0.000 A 
ATOM     19  C   UNL     1      -4.883  12.274  19.676  0.00  0.00    +0.000 A 
ATOM     20  C   UNL     1      -3.489  12.391  19.755  0.00  0.00    +0.000 A 
BRANCH  18  21
ATOM     21  C   UNL     1      -6.975  11.583  18.422  0.00  0.00    +0.000 C 
ATOM     22  F   UNL     1      -7.394  10.291  18.295  0.00  0.00    +0.000 F 
ATOM     23  F   UNL     1      -7.636  12.081  19.503  0.00  0.00    +0.000 F 
ATOM     24  F   UNL     1      -7.472  12.240  17.339  0.00  0.00    +0.000 F 
ENDBRANCH  18  21
ENDBRANCH   7  15
BRANCH  11  25
ATOM     25  C   UNL     1       2.441   7.766  18.755  0.00  0.00    +0.000 A 
ATOM     26  C   UNL     1       2.389   6.776  19.742  0.00  0.00    +0.000 A 
ATOM     27  C   UNL     1       3.267   5.700  19.686  0.00  0.00    +0.000 A 
ATOM     28  C   UNL     1       4.185   5.630  18.649  0.00  0.00    +0.000 A 
ATOM     29  C   UNL     1       4.185   6.648  17.708  0.00  0.00    +0.000 A 
ATOM     30  N   UNL     1       3.338   7.715  17.737  0.00  0.00    +0.000 NA
BRANCH  29  31
ATOM     31  C   UNL     1       5.173   6.603  16.583  0.00  0.00    +0.000 C 
ATOM     32  N   UNL     1       6.370   6.007  16.870  0.00  0.00    +0.000 N 
ATOM     33  O   UNL     1       4.933   7.063  15.474  0.00  0.00    +0.000 OA
ATOM     34  H   UNL     1       6.539   5.641  17.799  0.00  0.00    +0.000 HD
ATOM     35  H   UNL     1       7.073   5.934  16.148  0.00  0.00    +0.000 HD
ENDBRANCH  29  31
ENDBRANCH  11  25
TORSDOF 4
ENDMDL
