MODEL 1
REMARK VINA RESULT:      -8.3      0.000      0.000
REMARK  Name = 
REMARK  9 active torsions:
REMARK  status: ('A' for Active; 'I' for Inactive)
REMARK    1  A    between atoms: C_1  and  C_2
REMARK    2  A    between atoms: C_2  and  O_3
REMARK    3  A    between atoms: O_3  and  C_4
REMARK    4  A    between atoms: C_4  and  C_6
REMARK    5  A    between atoms: C_9  and  C_10
REMARK    6  A    between atoms: C_12  and  N_13
REMARK    7  A    between atoms: C_16  and  O_17
REMARK    8  A    between atoms: O_17  and  C_18
REMARK    9  A    between atoms: N_25  and  C_26
REMARK                            x       y       z     vdW  Elec       q    Type
REMARK                         _______ _______ _______ _____ _____    ______ ____
ROOT
ATOM      1  C   UNL     1       7.399   6.937  17.496  0.00  0.00    +0.000 A 
ATOM      2  C   UNL     1       6.190   6.320  17.764  0.00  0.00    +0.000 A 
ATOM      3  C   UNL     1       5.869   5.474  16.683  0.00  0.00    +0.000 A 
ATOM      4  C   UNL     1       4.749   4.605  16.381  0.00  0.00    +0.000 A 
ATOM      5  N   UNL     1       4.668   4.078  15.181  0.00  0.00    +0.000 NA
ATOM      6  N   UNL     1       5.674   4.304  14.221  0.00  0.00    +0.000 N 
ATOM      7  C   UNL     1       5.471   3.715  12.915  0.00  0.00    +0.000 C 
ATOM      8  C   UNL     1       6.849   5.050  14.448  0.00  0.00    +0.000 A 
ATOM      9  O   UNL     1       7.747   5.197  13.623  0.00  0.00    +0.000 OA
ATOM     10  C   UNL     1       6.867   5.646  15.747  0.00  0.00    +0.000 A 
ATOM     11  N   UNL     1       7.816   6.485  16.265  0.00  0.00    +0.000 N 
ATOM     12  H   UNL     1       8.679   6.752  15.802  0.00  0.00    +0.000 HD
ENDROOT
BRANCH   4  13
ATOM     13  C   UNL     1       3.645   4.371  17.371  0.00  0.00    +0.000 A 
ATOM     14  C   UNL     1       3.399   3.020  17.695  0.00  0.00    +0.000 A 
ATOM     15  C   UNL     1       2.421   2.648  18.623  0.00  0.00    +0.000 A 
ATOM     16  C   UNL     1       1.585   3.632  19.137  0.00  0.00    +0.000 A 
ATOM     17  C   UNL     1       1.784   4.970  18.807  0.00  0.00    +0.000 A 
ATOM     18  C   UNL     1       2.857   5.364  17.987  0.00  0.00    +0.000 A 
BRANCH  15  19
ATOM     19  N   UNL     1       2.114   1.301  18.840  0.00  0.00    +0.000 N 
ATOM     20  H   UNL     1       1.724   1.104  19.756  0.00  0.00    +0.000 HD
ATOM     21  H   UNL     1       1.577   0.875  18.092  0.00  0.00    +0.000 HD
ENDBRANCH  15  19
BRANCH  18  22
ATOM     22  O   UNL     1       3.116   6.708  17.777  0.00  0.00    +0.000 OA
BRANCH  22  23
ATOM     23  C   UNL     1       2.357   7.644  18.454  0.00  0.00    +0.000 A 
ATOM     24  C   UNL     1       2.181   7.588  19.840  0.00  0.00    +0.000 A 
ATOM     25  C   UNL     1       1.375   8.524  20.485  0.00  0.00    +0.000 A 
ATOM     26  C   UNL     1       0.802   9.565  19.759  0.00  0.00    +0.000 A 
ATOM     27  C   UNL     1       1.011   9.654  18.381  0.00  0.00    +0.000 A 
ATOM     28  C   UNL     1       1.781   8.687  17.725  0.00  0.00    +0.000 A 
ENDBRANCH  22  23
ENDBRANCH  18  22
ENDBRANCH   4  13
BRANCH   1  29
ATOM     29  C   UNL     1       8.150   7.844  18.321  0.00  0.00    +0.000 C 
ATOM     30  O   UNL     1       8.750   7.531  19.345  0.00  0.00    +0.000 OA
BRANCH  29  31
ATOM     31  O   UNL     1       7.990   9.102  17.842  0.00  0.00    +0.000 OA
BRANCH  31  33
ATOM     32  C   UNL     1       8.632  11.397  17.700  0.00  0.00    +0.000 C 
ATOM     33  C   UNL     1       8.729  10.124  18.520  0.00  0.00    +0.000 C 
ENDBRANCH  31  33
ENDBRANCH  29  31
ENDBRANCH   1  29
TORSDOF 7
ENDMDL
MODEL 2
REMARK VINA RESULT:      -8.1      2.698      5.718
REMARK  Name = 
REMARK  9 active torsions:
REMARK  status: ('A' for Active; 'I' for Inactive)
REMARK    1  A    between atoms: C_1  and  C_2
REMARK    2  A    between atoms: C_2  and  O_3
REMARK    3  A    between atoms: O_3  and  C_4
REMARK    4  A    between atoms: C_4  and  C_6
REMARK    5  A    between atoms: C_9  and  C_10
REMARK    6  A    between atoms: C_12  and  N_13
REMARK    7  A    between atoms: C_16  and  O_17
REMARK    8  A    between atoms: O_17  and  C_18
REMARK    9  A    between atoms: N_25  and  C_26
REMARK                            x       y       z     vdW  Elec       q    Type
REMARK                         _______ _______ _______ _____ _____    ______ ____
ROOT
ATOM      1  C   UNL     1       6.102   4.431  14.531  0.00  0.00    +0.000 A 
ATOM      2  C   UNL     1       5.120   5.069  15.267  0.00  0.00    +0.000 A 
ATOM      3  C   UNL     1       5.623   5.320  16.561  0.00  0.00    +0.000 A 
ATOM      4  C   UNL     1       5.070   5.924  17.756  0.00  0.00    +0.000 A 
ATOM      5  N   UNL     1       5.753   5.843  18.875  0.00  0.00    +0.000 NA
ATOM      6  N   UNL     1       7.023   5.231  18.906  0.00  0.00    +0.000 N 
ATOM      7  C   UNL     1       7.675   5.153  20.196  0.00  0.00    +0.000 C 
ATOM      8  C   UNL     1       7.688   4.703  17.781  0.00  0.00    +0.000 A 
ATOM      9  O   UNL     1       8.817   4.219  17.807  0.00  0.00    +0.000 OA
ATOM     10  C   UNL     1       6.885   4.766  16.600  0.00  0.00    +0.000 A 
ATOM     11  N   UNL     1       7.192   4.282  15.358  0.00  0.00    +0.000 N 
ATOM     12  H   UNL     1       8.075   3.857  15.095  0.00  0.00    +0.000 HD
ENDROOT
BRANCH   4  13
ATOM     13  C   UNL     1       3.708   6.554  17.763  0.00  0.00    +0.000 A 
ATOM     14  C   UNL     1       3.691   7.962  17.665  0.00  0.00    +0.000 A 
ATOM     15  C   UNL     1       2.496   8.687  17.630  0.00  0.00    +0.000 A 
ATOM     16  C   UNL     1       1.300   8.006  17.829  0.00  0.00    +0.000 A 
ATOM     17  C   UNL     1       1.292   6.621  17.963  0.00  0.00    +0.000 A 
ATOM     18  C   UNL     1       2.478   5.873  17.855  0.00  0.00    +0.000 A 
BRANCH  15  19
ATOM     19  N   UNL     1       2.505  10.085  17.652  0.00  0.00    +0.000 N 
ATOM     20  H   UNL     1       1.908  10.496  18.363  0.00  0.00    +0.000 HD
ATOM     21  H   UNL     1       3.435  10.491  17.648  0.00  0.00    +0.000 HD
ENDBRANCH  15  19
BRANCH  18  22
ATOM     22  O   UNL     1       2.431   4.488  17.859  0.00  0.00    +0.000 OA
BRANCH  22  23
ATOM     23  C   UNL     1       2.403   3.829  19.074  0.00  0.00    +0.000 A 
ATOM     24  C   UNL     1       3.538   3.208  19.602  0.00  0.00    +0.000 A 
ATOM     25  C   UNL     1       3.464   2.517  20.810  0.00  0.00    +0.000 A 
ATOM     26  C   UNL     1       2.273   2.506  21.532  0.00  0.00    +0.000 A 
ATOM     27  C   UNL     1       1.147   3.162  21.032  0.00  0.00    +0.000 A 
ATOM     28  C   UNL     1       1.207   3.816  19.796  0.00  0.00    +0.000 A 
ENDBRANCH  22  23
ENDBRANCH  18  22
ENDBRANCH   4  13
BRANCH   1  29
ATOM     29  C   UNL     1       6.071   4.021  13.153  0.00  0.00    +0.000 C 
ATOM     30  O   UNL     1       7.014   4.105  12.372  0.00  0.00    +0.000 OA
BRANCH  29  31
ATOM     31  O   UNL     1       4.809   3.637  12.841  0.00  0.00    +0.000 OA
BRANCH  31  33
ATOM     32  C   UNL     1       3.576   3.582  10.798  0.00  0.00    +0.000 C 
ATOM     33  C   UNL     1       4.664   2.911  11.616  0.00  0.00    +0.000 C 
ENDBRANCH  31  33
ENDBRANCH  29  31
ENDBRANCH   1  29
TORSDOF 7
ENDMDL
MODEL 3
REMARK VINA RESULT:      -8.0      2.108      6.278
REMARK  Name = 
REMARK  9 active torsions:
REMARK  status: ('A' for Active; 'I' for Inactive)
REMARK    1  A    between atoms: C_1  and  C_2
REMARK    2  A    between atoms: C_2  and  O_3
REMARK    3  A    between atoms: O_3  and  C_4
REMARK    4  A    between atoms: C_4  and  C_6
REMARK    5  A    between atoms: C_9  and  C_10
REMARK    6  A    between atoms: C_12  and  N_13
REMARK    7  A    between atoms: C_16  and  O_17
REMARK    8  A    between atoms: O_17  and  C_18
REMARK    9  A    between atoms: N_25  and  C_26
REMARK                            x       y       z     vdW  Elec       q    Type
REMARK                         _______ _______ _______ _____ _____    ______ ____
ROOT
ATOM      1  C   UNL     1       2.468   7.619  18.557  0.00  0.00    +0.000 A 
ATOM      2  C   UNL     1       3.451   6.988  17.815  0.00  0.00    +0.000 A 
ATOM      3  C   UNL     1       3.615   5.678  18.312  0.00  0.00    +0.000 A 
ATOM      4  C   UNL     1       4.487   4.573  17.969  0.00  0.00    +0.000 A 
ATOM      5  N   UNL     1       4.513   3.524  18.759  0.00  0.00    +0.000 NA
ATOM      6  N   UNL     1       3.672   3.446  19.887  0.00  0.00    +0.000 N 
ATOM      7  C   UNL     1       3.807   2.269  20.718  0.00  0.00    +0.000 C 
ATOM      8  C   UNL     1       2.720   4.422  20.249  0.00  0.00    +0.000 A 
ATOM      9  O   UNL     1       1.954   4.321  21.204  0.00  0.00    +0.000 OA
ATOM     10  C   UNL     1       2.767   5.565  19.393  0.00  0.00    +0.000 A 
ATOM     11  N   UNL     1       2.036   6.717  19.502  0.00  0.00    +0.000 N 
ATOM     12  H   UNL     1       1.309   6.888  20.189  0.00  0.00    +0.000 HD
ENDROOT
BRANCH   4  13
ATOM     13  C   UNL     1       5.417   4.639  16.793  0.00  0.00    +0.000 A 
ATOM     14  C   UNL     1       4.862   4.240  15.558  0.00  0.00    +0.000 A 
ATOM     15  C   UNL     1       5.599   4.275  14.370  0.00  0.00    +0.000 A 
ATOM     16  C   UNL     1       6.951   4.588  14.436  0.00  0.00    +0.000 A 
ATOM     17  C   UNL     1       7.532   4.952  15.648  0.00  0.00    +0.000 A 
ATOM     18  C   UNL     1       6.762   5.058  16.820  0.00  0.00    +0.000 A 
BRANCH  15  19
ATOM     19  N   UNL     1       5.067   3.764  13.182  0.00  0.00    +0.000 N 
ATOM     20  H   UNL     1       4.956   2.755  13.173  0.00  0.00    +0.000 HD
ATOM     21  H   UNL     1       4.233   4.246  12.863  0.00  0.00    +0.000 HD
ENDBRANCH  15  19
BRANCH  18  22
ATOM     22  O   UNL     1       7.330   5.548  17.985  0.00  0.00    +0.000 OA
BRANCH  22  23
ATOM     23  C   UNL     1       7.639   6.893  18.058  0.00  0.00    +0.000 A 
ATOM     24  C   UNL     1       7.031   7.836  17.224  0.00  0.00    +0.000 A 
ATOM     25  C   UNL     1       7.396   9.178  17.296  0.00  0.00    +0.000 A 
ATOM     26  C   UNL     1       8.317   9.597  18.253  0.00  0.00    +0.000 A 
ATOM     27  C   UNL     1       8.895   8.668  19.120  0.00  0.00    +0.000 A 
ATOM     28  C   UNL     1       8.565   7.312  19.017  0.00  0.00    +0.000 A 
ENDBRANCH  22  23
ENDBRANCH  18  22
ENDBRANCH   4  13
BRANCH   1  29
ATOM     29  C   UNL     1       1.924   8.940  18.392  0.00  0.00    +0.000 C 
ATOM     30  O   UNL     1       2.008   9.614  17.370  0.00  0.00    +0.000 OA
BRANCH  29  31
ATOM     31  O   UNL     1       1.407   9.349  19.577  0.00  0.00    +0.000 OA
BRANCH  31  33
ATOM     32  C   UNL     1      -0.361  10.217  20.925  0.00  0.00    +0.000 C 
ATOM     33  C   UNL     1       0.141  10.012  19.507  0.00  0.00    +0.000 C 
ENDBRANCH  31  33
ENDBRANCH  29  31
ENDBRANCH   1  29
TORSDOF 7
ENDMDL
MODEL 4
REMARK VINA RESULT:      -7.9      6.698     10.985
REMARK  Name = 
REMARK  9 active torsions:
REMARK  status: ('A' for Active; 'I' for Inactive)
REMARK    1  A    between atoms: C_1  and  C_2
REMARK    2  A    between atoms: C_2  and  O_3
REMARK    3  A    between atoms: O_3  and  C_4
REMARK    4  A    between atoms: C_4  and  C_6
REMARK    5  A    between atoms: C_9  and  C_10
REMARK    6  A    between atoms: C_12  and  N_13
REMARK    7  A    between atoms: C_16  and  O_17
REMARK    8  A    between atoms: O_17  and  C_18
REMARK    9  A    between atoms: N_25  and  C_26
REMARK                            x       y       z     vdW  Elec       q    Type
REMARK                         _______ _______ _______ _____ _____    ______ ____
ROOT
ATOM      1  C   UNL     1      -3.357  10.575  15.512  0.00  0.00    +0.000 A 
ATOM      2  C   UNL     1      -2.384  11.140  16.317  0.00  0.00    +0.000 A 
ATOM      3  C   UNL     1      -2.965  11.468  17.559  0.00  0.00    +0.000 A 
ATOM      4  C   UNL     1      -2.469  12.090  18.770  0.00  0.00    +0.000 A 
ATOM      5  N   UNL     1      -3.330  12.422  19.704  0.00  0.00    +0.000 NA
ATOM      6  N   UNL     1      -4.702  12.132  19.562  0.00  0.00    +0.000 N 
ATOM      7  C   UNL     1      -5.575  12.578  20.626  0.00  0.00    +0.000 C 
ATOM      8  C   UNL     1      -5.268  11.444  18.469  0.00  0.00    +0.000 A 
ATOM      9  O   UNL     1      -6.457  11.148  18.378  0.00  0.00    +0.000 OA
ATOM     10  C   UNL     1      -4.303  11.151  17.457  0.00  0.00    +0.000 A 
ATOM     11  N   UNL     1      -4.524  10.560  16.243  0.00  0.00    +0.000 N 
ATOM     12  H   UNL     1      -5.414  10.193  15.922  0.00  0.00    +0.000 HD
ENDROOT
BRANCH   4  13
ATOM     13  C   UNL     1      -1.020  12.441  18.939  0.00  0.00    +0.000 A 
ATOM     14  C   UNL     1      -0.701  13.803  18.757  0.00  0.00    +0.000 A 
ATOM     15  C   UNL     1       0.603  14.285  18.909  0.00  0.00    +0.000 A 
ATOM     16  C   UNL     1       1.629  13.370  19.118  0.00  0.00    +0.000 A 
ATOM     17  C   UNL     1       1.346  12.016  19.267  0.00  0.00    +0.000 A 
ATOM     18  C   UNL     1       0.021  11.545  19.258  0.00  0.00    +0.000 A 
BRANCH  15  19
ATOM     19  N   UNL     1       0.915  15.614  18.608  0.00  0.00    +0.000 N 
ATOM     20  H   UNL     1       0.162  16.271  18.785  0.00  0.00    +0.000 HD
ATOM     21  H   UNL     1       1.799  15.928  18.996  0.00  0.00    +0.000 HD
ENDBRANCH  15  19
BRANCH  18  22
ATOM     22  O   UNL     1      -0.248  10.215  19.539  0.00  0.00    +0.000 OA
BRANCH  22  23
ATOM     23  C   UNL     1       0.724   9.270  19.270  0.00  0.00    +0.000 A 
ATOM     24  C   UNL     1       1.191   8.393  20.254  0.00  0.00    +0.000 A 
ATOM     25  C   UNL     1       2.202   7.480  19.959  0.00  0.00    +0.000 A 
ATOM     26  C   UNL     1       2.699   7.389  18.661  0.00  0.00    +0.000 A 
ATOM     27  C   UNL     1       2.205   8.231  17.663  0.00  0.00    +0.000 A 
ATOM     28  C   UNL     1       1.224   9.181  17.969  0.00  0.00    +0.000 A 
ENDBRANCH  22  23
ENDBRANCH  18  22
ENDBRANCH   4  13
BRANCH   1  29
ATOM     29  C   UNL     1      -3.229  10.041  14.183  0.00  0.00    +0.000 C 
ATOM     30  O   UNL     1      -2.167   9.747  13.642  0.00  0.00    +0.000 OA
BRANCH  29  31
ATOM     31  O   UNL     1      -4.453  10.024  13.601  0.00  0.00    +0.000 OA
BRANCH  31  33
ATOM     32  C   UNL     1      -5.881   9.407  11.790  0.00  0.00    +0.000 C 
ATOM     33  C   UNL     1      -4.467   9.789  12.189  0.00  0.00    +0.000 C 
ENDBRANCH  31  33
ENDBRANCH  29  31
ENDBRANCH   1  29
TORSDOF 7
ENDMDL
MODEL 5
REMARK VINA RESULT:      -7.8      1.992      6.121
REMARK  Name = 
REMARK  9 active torsions:
REMARK  status: ('A' for Active; 'I' for Inactive)
REMARK    1  A    between atoms: C_1  and  C_2
REMARK    2  A    between atoms: C_2  and  O_3
REMARK    3  A    between atoms: O_3  and  C_4
REMARK    4  A    between atoms: C_4  and  C_6
REMARK    5  A    between atoms: C_9  and  C_10
REMARK    6  A    between atoms: C_12  and  N_13
REMARK    7  A    between atoms: C_16  and  O_17
REMARK    8  A    between atoms: O_17  and  C_18
REMARK    9  A    between atoms: N_25  and  C_26
REMARK                            x       y       z     vdW  Elec       q    Type
REMARK                         _______ _______ _______ _____ _____    ______ ____
ROOT
ATOM      1  C   UNL     1       2.386   7.388  18.273  0.00  0.00    +0.000 A 
ATOM      2  C   UNL     1       3.399   6.771  17.561  0.00  0.00    +0.000 A 
ATOM      3  C   UNL     1       3.290   5.376  17.744  0.00  0.00    +0.000 A 
ATOM      4  C   UNL     1       4.055   4.236  17.282  0.00  0.00    +0.000 A 
ATOM      5  N   UNL     1       3.791   3.054  17.789  0.00  0.00    +0.000 NA
ATOM      6  N   UNL     1       2.748   2.882  18.722  0.00  0.00    +0.000 N 
ATOM      7  C   UNL     1       2.565   1.549  19.253  0.00  0.00    +0.000 C 
ATOM      8  C   UNL     1       1.884   3.907  19.158  0.00  0.00    +0.000 A 
ATOM      9  O   UNL     1       0.944   3.738  19.931  0.00  0.00    +0.000 OA
ATOM     10  C   UNL     1       2.244   5.182  18.622  0.00  0.00    +0.000 A 
ATOM     11  N   UNL     1       1.666   6.392  18.893  0.00  0.00    +0.000 N 
ATOM     12  H   UNL     1       0.851   6.535  19.481  0.00  0.00    +0.000 HD
ENDROOT
BRANCH   4  13
ATOM     13  C   UNL     1       5.192   4.391  16.315  0.00  0.00    +0.000 A 
ATOM     14  C   UNL     1       4.910   4.017  14.984  0.00  0.00    +0.000 A 
ATOM     15  C   UNL     1       5.862   4.132  13.965  0.00  0.00    +0.000 A 
ATOM     16  C   UNL     1       7.157   4.504  14.306  0.00  0.00    +0.000 A 
ATOM     17  C   UNL     1       7.471   4.845  15.618  0.00  0.00    +0.000 A 
ATOM     18  C   UNL     1       6.483   4.869  16.619  0.00  0.00    +0.000 A 
BRANCH  15  19
ATOM     19  N   UNL     1       5.599   3.646  12.681  0.00  0.00    +0.000 N 
ATOM     20  H   UNL     1       6.352   3.795  12.016  0.00  0.00    +0.000 HD
ATOM     21  H   UNL     1       5.253   2.692  12.664  0.00  0.00    +0.000 HD
ENDBRANCH  15  19
BRANCH  18  22
ATOM     22  O   UNL     1       6.786   5.338  17.887  0.00  0.00    +0.000 OA
BRANCH  22  23
ATOM     23  C   UNL     1       7.310   6.610  18.016  0.00  0.00    +0.000 A 
ATOM     24  C   UNL     1       8.338   6.896  18.920  0.00  0.00    +0.000 A 
ATOM     25  C   UNL     1       8.814   8.198  19.054  0.00  0.00    +0.000 A 
ATOM     26  C   UNL     1       8.317   9.208  18.234  0.00  0.00    +0.000 A 
ATOM     27  C   UNL     1       7.321   8.921  17.298  0.00  0.00    +0.000 A 
ATOM     28  C   UNL     1       6.809   7.623  17.195  0.00  0.00    +0.000 A 
ENDBRANCH  22  23
ENDBRANCH  18  22
ENDBRANCH   4  13
BRANCH   1  29
ATOM     29  C   UNL     1       2.064   8.787  18.351  0.00  0.00    +0.000 C 
ATOM     30  O   UNL     1       2.129   9.578  17.415  0.00  0.00    +0.000 OA
BRANCH  29  31
ATOM     31  O   UNL     1       1.789   9.099  19.642  0.00  0.00    +0.000 OA
BRANCH  31  33
ATOM     32  C   UNL     1      -0.116   9.107  21.080  0.00  0.00    +0.000 C 
ATOM     33  C   UNL     1       0.535   9.751  19.870  0.00  0.00    +0.000 C 
ENDBRANCH  31  33
ENDBRANCH  29  31
ENDBRANCH   1  29
TORSDOF 7
ENDMDL
MODEL 6
REMARK VINA RESULT:      -7.8      6.832     11.155
REMARK  Name = 
REMARK  9 active torsions:
REMARK  status: ('A' for Active; 'I' for Inactive)
REMARK    1  A    between atoms: C_1  and  C_2
REMARK    2  A    between atoms: C_2  and  O_3
REMARK    3  A    between atoms: O_3  and  C_4
REMARK    4  A    between atoms: C_4  and  C_6
REMARK    5  A    between atoms: C_9  and  C_10
REMARK    6  A    between atoms: C_12  and  N_13
REMARK    7  A    between atoms: C_16  and  O_17
REMARK    8  A    between atoms: O_17  and  C_18
REMARK    9  A    between atoms: N_25  and  C_26
REMARK                            x       y       z     vdW  Elec       q    Type
REMARK                         _______ _______ _______ _____ _____    ______ ____
ROOT
ATOM      1  C   UNL     1      -4.707  12.848  20.734  0.00  0.00    +0.000 A 
ATOM      2  C   UNL     1      -3.328  12.919  20.646  0.00  0.00    +0.000 A 
ATOM      3  C   UNL     1      -2.935  12.446  19.377  0.00  0.00    +0.000 A 
ATOM      4  C   UNL     1      -1.656  12.261  18.722  0.00  0.00    +0.000 A 
ATOM      5  N   UNL     1      -1.623  11.618  17.578  0.00  0.00    +0.000 NA
ATOM      6  N   UNL     1      -2.809  11.163  16.967  0.00  0.00    +0.000 N 
ATOM      7  C   UNL     1      -2.662  10.428  15.729  0.00  0.00    +0.000 C 
ATOM      8  C   UNL     1      -4.107  11.380  17.473  0.00  0.00    +0.000 A 
ATOM      9  O   UNL     1      -5.139  11.027  16.907  0.00  0.00    +0.000 OA
ATOM     10  C   UNL     1      -4.089  12.036  18.743  0.00  0.00    +0.000 A 
ATOM     11  N   UNL     1      -5.160  12.332  19.542  0.00  0.00    +0.000 N 
ATOM     12  H   UNL     1      -6.133  12.173  19.302  0.00  0.00    +0.000 HD
ENDROOT
BRANCH   4  13
ATOM     13  C   UNL     1      -0.373  12.705  19.361  0.00  0.00    +0.000 A 
ATOM     14  C   UNL     1      -0.040  14.063  19.173  0.00  0.00    +0.000 A 
ATOM     15  C   UNL     1       1.111  14.627  19.732  0.00  0.00    +0.000 A 
ATOM     16  C   UNL     1       2.012  13.792  20.382  0.00  0.00    +0.000 A 
ATOM     17  C   UNL     1       1.724  12.440  20.552  0.00  0.00    +0.000 A 
ATOM     18  C   UNL     1       0.502  11.897  20.116  0.00  0.00    +0.000 A 
BRANCH  15  19
ATOM     19  N   UNL     1       1.482  15.942  19.434  0.00  0.00    +0.000 N 
ATOM     20  H   UNL     1       1.061  16.642  20.038  0.00  0.00    +0.000 HD
ATOM     21  H   UNL     1       2.482  16.075  19.330  0.00  0.00    +0.000 HD
ENDBRANCH  15  19
BRANCH  18  22
ATOM     22  O   UNL     1       0.179  10.583  20.412  0.00  0.00    +0.000 OA
BRANCH  22  23
ATOM     23  C   UNL     1       0.903   9.571  19.811  0.00  0.00    +0.000 A 
ATOM     24  C   UNL     1       1.273   9.627  18.464  0.00  0.00    +0.000 A 
ATOM     25  C   UNL     1       1.968   8.570  17.881  0.00  0.00    +0.000 A 
ATOM     26  C   UNL     1       2.361   7.484  18.659  0.00  0.00    +0.000 A 
ATOM     27  C   UNL     1       2.035   7.441  20.015  0.00  0.00    +0.000 A 
ATOM     28  C   UNL     1       1.296   8.480  20.592  0.00  0.00    +0.000 A 
ENDBRANCH  22  23
ENDBRANCH  18  22
ENDBRANCH   4  13
BRANCH   1  29
ATOM     29  C   UNL     1      -5.562  13.262  21.813  0.00  0.00    +0.000 C 
ATOM     30  O   UNL     1      -6.054  14.380  21.933  0.00  0.00    +0.000 OA
BRANCH  29  31
ATOM     31  O   UNL     1      -5.640  12.255  22.718  0.00  0.00    +0.000 OA
BRANCH  31  33
ATOM     32  C   UNL     1      -4.014  12.605  24.429  0.00  0.00    +0.000 C 
ATOM     33  C   UNL     1      -5.493  12.638  24.089  0.00  0.00    +0.000 C 
ENDBRANCH  31  33
ENDBRANCH  29  31
ENDBRANCH   1  29
TORSDOF 7
ENDMDL
MODEL 7
REMARK VINA RESULT:      -7.7      6.966     11.028
REMARK  Name = 
REMARK  9 active torsions:
REMARK  status: ('A' for Active; 'I' for Inactive)
REMARK    1  A    between atoms: C_1  and  C_2
REMARK    2  A    between atoms: C_2  and  O_3
REMARK    3  A    between atoms: O_3  and  C_4
REMARK    4  A    between atoms: C_4  and  C_6
REMARK    5  A    between atoms: C_9  and  C_10
REMARK    6  A    between atoms: C_12  and  N_13
REMARK    7  A    between atoms: C_16  and  O_17
REMARK    8  A    between atoms: O_17  and  C_18
REMARK    9  A    between atoms: N_25  and  C_26
REMARK                            x       y       z     vdW  Elec       q    Type
REMARK                         _______ _______ _______ _____ _____    ______ ____
ROOT
ATOM      1  C   UNL     1      -3.371  10.529  15.331  0.00  0.00    +0.000 A 
ATOM      2  C   UNL     1      -2.395  11.161  16.081  0.00  0.00    +0.000 A 
ATOM      3  C   UNL     1      -2.931  11.461  17.351  0.00  0.00    +0.000 A 
ATOM      4  C   UNL     1      -2.413  12.122  18.532  0.00  0.00    +0.000 A 
ATOM      5  N   UNL     1      -3.244  12.405  19.509  0.00  0.00    +0.000 NA
ATOM      6  N   UNL     1      -4.600  12.027  19.439  0.00  0.00    +0.000 N 
ATOM      7  C   UNL     1      -5.443  12.424  20.547  0.00  0.00    +0.000 C 
ATOM      8  C   UNL     1      -5.177  11.296  18.381  0.00  0.00    +0.000 A 
ATOM      9  O   UNL     1      -6.347  10.924  18.353  0.00  0.00    +0.000 OA
ATOM     10  C   UNL     1      -4.249  11.058  17.320  0.00  0.00    +0.000 A 
ATOM     11  N   UNL     1      -4.494  10.445  16.122  0.00  0.00    +0.000 N 
ATOM     12  H   UNL     1      -5.374  10.020  15.849  0.00  0.00    +0.000 HD
ENDROOT
BRANCH   4  13
ATOM     13  C   UNL     1      -0.982  12.566  18.623  0.00  0.00    +0.000 A 
ATOM     14  C   UNL     1      -0.789  13.947  18.840  0.00  0.00    +0.000 A 
ATOM     15  C   UNL     1       0.487  14.504  18.974  0.00  0.00    +0.000 A 
ATOM     16  C   UNL     1       1.593  13.689  18.758  0.00  0.00    +0.000 A 
ATOM     17  C   UNL     1       1.429  12.330  18.508  0.00  0.00    +0.000 A 
ATOM     18  C   UNL     1       0.153  11.738  18.514  0.00  0.00    +0.000 A 
BRANCH  15  19
ATOM     19  N   UNL     1       0.658  15.888  19.070  0.00  0.00    +0.000 N 
ATOM     20  H   UNL     1       1.578  16.174  19.392  0.00  0.00    +0.000 HD
ATOM     21  H   UNL     1       0.362  16.398  18.244  0.00  0.00    +0.000 HD
ENDBRANCH  15  19
BRANCH  18  22
ATOM     22  O   UNL     1       0.022  10.364  18.394  0.00  0.00    +0.000 OA
BRANCH  22  23
ATOM     23  C   UNL     1       0.410   9.565  19.454  0.00  0.00    +0.000 A 
ATOM     24  C   UNL     1      -0.227   9.629  20.697  0.00  0.00    +0.000 A 
ATOM     25  C   UNL     1       0.217   8.839  21.755  0.00  0.00    +0.000 A 
ATOM     26  C   UNL     1       1.251   7.928  21.556  0.00  0.00    +0.000 A 
ATOM     27  C   UNL     1       1.861   7.826  20.305  0.00  0.00    +0.000 A 
ATOM     28  C   UNL     1       1.449   8.653  19.254  0.00  0.00    +0.000 A 
ENDBRANCH  22  23
ENDBRANCH  18  22
ENDBRANCH   4  13
BRANCH   1  29
ATOM     29  C   UNL     1      -3.278   9.995  13.999  0.00  0.00    +0.000 C 
ATOM     30  O   UNL     1      -2.231   9.705  13.428  0.00  0.00    +0.000 OA
BRANCH  29  31
ATOM     31  O   UNL     1      -4.518   9.973  13.452  0.00  0.00    +0.000 OA
BRANCH  31  33
ATOM     32  C   UNL     1      -5.982   9.398  11.657  0.00  0.00    +0.000 C 
ATOM     33  C   UNL     1      -4.568   9.800  12.032  0.00  0.00    +0.000 C 
ENDBRANCH  31  33
ENDBRANCH  29  31
ENDBRANCH   1  29
TORSDOF 7
ENDMDL
MODEL 8
REMARK VINA RESULT:      -7.6      7.435     11.175
REMARK  Name = 
REMARK  9 active torsions:
REMARK  status: ('A' for Active; 'I' for Inactive)
REMARK    1  A    between atoms: C_1  and  C_2
REMARK    2  A    between atoms: C_2  and  O_3
REMARK    3  A    between atoms: O_3  and  C_4
REMARK    4  A    between atoms: C_4  and  C_6
REMARK    5  A    between atoms: C_9  and  C_10
REMARK    6  A    between atoms: C_12  and  N_13
REMARK    7  A    between atoms: C_16  and  O_17
REMARK    8  A    between atoms: O_17  and  C_18
REMARK    9  A    between atoms: N_25  and  C_26
REMARK                            x       y       z     vdW  Elec       q    Type
REMARK                         _______ _______ _______ _____ _____    ______ ____
ROOT
ATOM      1  C   UNL     1      -3.480  10.470  15.200  0.00  0.00    +0.000 A 
ATOM      2  C   UNL     1      -2.506  10.706  16.154  0.00  0.00    +0.000 A 
ATOM      3  C   UNL     1      -3.130  11.204  17.317  0.00  0.00    +0.000 A 
ATOM      4  C   UNL     1      -2.645  11.645  18.609  0.00  0.00    +0.000 A 
ATOM      5  N   UNL     1      -3.486  12.233  19.428  0.00  0.00    +0.000 NA
ATOM      6  N   UNL     1      -4.845  12.386  19.086  0.00  0.00    +0.000 N 
ATOM      7  C   UNL     1      -5.680  13.086  20.037  0.00  0.00    +0.000 C 
ATOM      8  C   UNL     1      -5.433  11.904  17.899  0.00  0.00    +0.000 A 
ATOM      9  O   UNL     1      -6.628  11.994  17.632  0.00  0.00    +0.000 OA
ATOM     10  C   UNL     1      -4.470  11.320  17.018  0.00  0.00    +0.000 A 
ATOM     11  N   UNL     1      -4.686  10.823  15.761  0.00  0.00    +0.000 N 
ATOM     12  H   UNL     1      -5.590  10.751  15.306  0.00  0.00    +0.000 HD
ENDROOT
BRANCH   4  13
ATOM     13  C   UNL     1      -1.198  11.526  18.991  0.00  0.00    +0.000 A 
ATOM     14  C   UNL     1      -0.807  10.268  19.496  0.00  0.00    +0.000 A 
ATOM     15  C   UNL     1       0.515   9.998  19.867  0.00  0.00    +0.000 A 
ATOM     16  C   UNL     1       1.433  11.042  19.857  0.00  0.00    +0.000 A 
ATOM     17  C   UNL     1       1.064  12.302  19.395  0.00  0.00    +0.000 A 
ATOM     18  C   UNL     1      -0.225  12.540  18.886  0.00  0.00    +0.000 A 
BRANCH  15  19
ATOM     19  N   UNL     1       0.855   8.786  20.475  0.00  0.00    +0.000 N 
ATOM     20  H   UNL     1       0.548   8.702  21.440  0.00  0.00    +0.000 HD
ATOM     21  H   UNL     1       0.621   7.968  19.923  0.00  0.00    +0.000 HD
ENDBRANCH  15  19
BRANCH  18  22
ATOM     22  O   UNL     1      -0.532  13.762  18.310  0.00  0.00    +0.000 OA
BRANCH  22  23
ATOM     23  C   UNL     1      -0.420  14.905  19.079  0.00  0.00    +0.000 A 
ATOM     24  C   UNL     1       0.421  15.960  18.714  0.00  0.00    +0.000 A 
ATOM     25  C   UNL     1       0.542  17.080  19.534  0.00  0.00    +0.000 A 
ATOM     26  C   UNL     1      -0.234  17.184  20.686  0.00  0.00    +0.000 A 
ATOM     27  C   UNL     1      -1.109  16.154  21.034  0.00  0.00    +0.000 A 
ATOM     28  C   UNL     1      -1.196  15.007  20.237  0.00  0.00    +0.000 A 
ENDBRANCH  22  23
ENDBRANCH  18  22
ENDBRANCH   4  13
BRANCH   1  29
ATOM     29  C   UNL     1      -3.333   9.917  13.881  0.00  0.00    +0.000 C 
ATOM     30  O   UNL     1      -2.261   9.686  13.330  0.00  0.00    +0.000 OA
BRANCH  29  31
ATOM     31  O   UNL     1      -4.561   9.801  13.319  0.00  0.00    +0.000 OA
BRANCH  31  33
ATOM     32  C   UNL     1      -6.037   9.646  11.449  0.00  0.00    +0.000 C 
ATOM     33  C   UNL     1      -4.591   9.786  11.888  0.00  0.00    +0.000 C 
ENDBRANCH  31  33
ENDBRANCH  29  31
ENDBRANCH   1  29
TORSDOF 7
ENDMDL
MODEL 9
REMARK VINA RESULT:      -7.6      1.706      4.602
REMARK  Name = 
REMARK  9 active torsions:
REMARK  status: ('A' for Active; 'I' for Inactive)
REMARK    1  A    between atoms: C_1  and  C_2
REMARK    2  A    between atoms: C_2  and  O_3
REMARK    3  A    between atoms: O_3  and  C_4
REMARK    4  A    between atoms: C_4  and  C_6
REMARK    5  A    between atoms: C_9  and  C_10
REMARK    6  A    between atoms: C_12  and  N_13
REMARK    7  A    between atoms: C_16  and  O_17
REMARK    8  A    between atoms: O_17  and  C_18
REMARK    9  A    between atoms: N_25  and  C_26
REMARK                            x       y       z     vdW  Elec       q    Type
REMARK                         _______ _______ _______ _____ _____    ______ ____
ROOT
ATOM      1  C   UNL     1       5.759   4.139  13.892  0.00  0.00    +0.000 A 
ATOM      2  C   UNL     1       4.890   4.043  14.964  0.00  0.00    +0.000 A 
ATOM      3  C   UNL     1       5.380   4.851  16.012  0.00  0.00    +0.000 A 
ATOM      4  C   UNL     1       4.931   5.134  17.359  0.00  0.00    +0.000 A 
ATOM      5  N   UNL     1       5.727   5.806  18.159  0.00  0.00    +0.000 NA
ATOM      6  N   UNL     1       6.970   6.291  17.705  0.00  0.00    +0.000 N 
ATOM      7  C   UNL     1       7.792   6.981  18.675  0.00  0.00    +0.000 C 
ATOM      8  C   UNL     1       7.452   6.154  16.387  0.00  0.00    +0.000 A 
ATOM      9  O   UNL     1       8.513   6.626  15.985  0.00  0.00    +0.000 OA
ATOM     10  C   UNL     1       6.578   5.372  15.570  0.00  0.00    +0.000 A 
ATOM     11  N   UNL     1       6.774   4.987  14.272  0.00  0.00    +0.000 N 
ATOM     12  H   UNL     1       7.559   5.263  13.690  0.00  0.00    +0.000 HD
ENDROOT
BRANCH   4  13
ATOM     13  C   UNL     1       3.628   4.605  17.883  0.00  0.00    +0.000 A 
ATOM     14  C   UNL     1       3.626   3.237  18.230  0.00  0.00    +0.000 A 
ATOM     15  C   UNL     1       2.493   2.609  18.758  0.00  0.00    +0.000 A 
ATOM     16  C   UNL     1       1.304   3.326  18.818  0.00  0.00    +0.000 A 
ATOM     17  C   UNL     1       1.270   4.668  18.449  0.00  0.00    +0.000 A 
ATOM     18  C   UNL     1       2.439   5.342  18.054  0.00  0.00    +0.000 A 
BRANCH  15  19
ATOM     19  N   UNL     1       2.478   1.229  18.983  0.00  0.00    +0.000 N 
ATOM     20  H   UNL     1       3.019   0.931  19.788  0.00  0.00    +0.000 HD
ATOM     21  H   UNL     1       1.550   0.819  18.968  0.00  0.00    +0.000 HD
ENDBRANCH  15  19
BRANCH  18  22
ATOM     22  O   UNL     1       2.410   6.707  17.818  0.00  0.00    +0.000 OA
BRANCH  22  23
ATOM     23  C   UNL     1       1.944   7.543  18.816  0.00  0.00    +0.000 A 
ATOM     24  C   UNL     1       1.992   7.180  20.165  0.00  0.00    +0.000 A 
ATOM     25  C   UNL     1       1.476   8.030  21.141  0.00  0.00    +0.000 A 
ATOM     26  C   UNL     1       0.977   9.279  20.780  0.00  0.00    +0.000 A 
ATOM     27  C   UNL     1       0.967   9.667  19.439  0.00  0.00    +0.000 A 
ATOM     28  C   UNL     1       1.441   8.796  18.453  0.00  0.00    +0.000 A 
ENDBRANCH  22  23
ENDBRANCH  18  22
ENDBRANCH   4  13
BRANCH   1  29
ATOM     29  C   UNL     1       5.653   3.537  12.590  0.00  0.00    +0.000 C 
ATOM     30  O   UNL     1       6.592   3.072  11.951  0.00  0.00    +0.000 OA
BRANCH  29  31
ATOM     31  O   UNL     1       4.377   3.670  12.152  0.00  0.00    +0.000 OA
BRANCH  31  33
ATOM     32  C   UNL     1       3.240   3.827  10.059  0.00  0.00    +0.000 C 
ATOM     33  C   UNL     1       4.042   2.923  10.978  0.00  0.00    +0.000 C 
ENDBRANCH  31  33
ENDBRANCH  29  31
ENDBRANCH   1  29
TORSDOF 7
ENDMDL
