MODEL 1
REMARK VINA RESULT:      -7.8      0.000      0.000
REMARK  Name = 
REMARK  4 active torsions:
REMARK  status: ('A' for Active; 'I' for Inactive)
REMARK    1  A    between atoms: C_2  and  C_3
REMARK    2  A    between atoms: C_2  and  C_18
REMARK    3  A    between atoms: N_8  and  C_9
REMARK    4  A    between atoms: C_9  and  C_10
REMARK                            x       y       z     vdW  Elec       q    Type
REMARK                         _______ _______ _______ _____ _____    ______ ____
ROOT
ATOM      1  C   UNL     1       1.247   9.348  20.042  0.00  0.00    +0.000 C 
ATOM      2  O   UNL     1       1.064   9.653  21.218  0.00  0.00    +0.000 OA
ATOM      3  N   UNL     1       1.715   8.107  19.622  0.00  0.00    +0.000 N 
ATOM      4  C   UNL     1       1.969   7.110  20.659  0.00  0.00    +0.000 C 
ATOM      5  C   UNL     1       1.892   5.676  20.105  0.00  0.00    +0.000 C 
ATOM      6  N   UNL     1       2.719   5.417  18.905  0.00  0.00    +0.000 NA
ATOM      7  C   UNL     1       2.410   6.442  17.885  0.00  0.00    +0.000 C 
ATOM      8  C   UNL     1       2.453   7.905  18.364  0.00  0.00    +0.000 C 
ENDROOT
BRANCH   1  10
ATOM      9  O   UNL     1       1.862  10.817  18.311  0.00  0.00    +0.000 OA
ATOM     10  C   UNL     1       0.923  10.393  18.973  0.00  0.00    +0.000 C 
BRANCH  10  11
ATOM     11  C   UNL     1      -0.426  10.955  18.847  0.00  0.00    +0.000 A 
ATOM     12  C   UNL     1      -0.801  12.063  19.603  0.00  0.00    +0.000 A 
ATOM     13  N   UNL     1      -2.152  11.963  19.720  0.00  0.00    +0.000 N 
ATOM     14  C   UNL     1      -2.632  11.427  18.558  0.00  0.00    +0.000 A 
ATOM     15  C   UNL     1      -3.907  11.526  17.974  0.00  0.00    +0.000 A 
ATOM     16  C   UNL     1      -4.100  10.841  16.782  0.00  0.00    +0.000 A 
ATOM     17  C   UNL     1      -3.119   9.997  16.273  0.00  0.00    +0.000 A 
ATOM     18  C   UNL     1      -1.872   9.856  16.908  0.00  0.00    +0.000 A 
ATOM     19  C   UNL     1      -1.579  10.663  18.039  0.00  0.00    +0.000 A 
ATOM     20  H   UNL     1      -2.706  12.284  20.501  0.00  0.00    +0.000 HD
ENDBRANCH  10  11
ENDBRANCH   1  10
BRANCH   6  21
ATOM     21  C   UNL     1       4.143   5.352  19.268  0.00  0.00    +0.000 C 
BRANCH  21  22
ATOM     22  C   UNL     1       5.098   5.191  18.102  0.00  0.00    +0.000 A 
ATOM     23  C   UNL     1       6.182   6.073  17.966  0.00  0.00    +0.000 A 
ATOM     24  C   UNL     1       7.104   5.912  16.930  0.00  0.00    +0.000 A 
ATOM     25  C   UNL     1       6.953   4.868  16.020  0.00  0.00    +0.000 A 
ATOM     26  C   UNL     1       5.882   3.986  16.144  0.00  0.00    +0.000 A 
ATOM     27  C   UNL     1       4.958   4.144  17.181  0.00  0.00    +0.000 A 
ENDBRANCH  21  22
ENDBRANCH   6  21
TORSDOF 4
ENDMDL
MODEL 2
REMARK VINA RESULT:      -7.7      0.330      1.001
REMARK  Name = 
REMARK  4 active torsions:
REMARK  status: ('A' for Active; 'I' for Inactive)
REMARK    1  A    between atoms: C_2  and  C_3
REMARK    2  A    between atoms: C_2  and  C_18
REMARK    3  A    between atoms: N_8  and  C_9
REMARK    4  A    between atoms: C_9  and  C_10
REMARK                            x       y       z     vdW  Elec       q    Type
REMARK                         _______ _______ _______ _____ _____    ______ ____
ROOT
ATOM      1  C   UNL     1       1.170   9.694  19.967  0.00  0.00    +0.000 C 
ATOM      2  O   UNL     1       0.948   9.977  21.142  0.00  0.00    +0.000 OA
ATOM      3  N   UNL     1       1.642   8.456  19.540  0.00  0.00    +0.000 N 
ATOM      4  C   UNL     1       1.851   7.437  20.565  0.00  0.00    +0.000 C 
ATOM      5  C   UNL     1       1.781   6.014  19.982  0.00  0.00    +0.000 C 
ATOM      6  N   UNL     1       2.648   5.771  18.807  0.00  0.00    +0.000 NA
ATOM      7  C   UNL     1       2.385   6.818  17.796  0.00  0.00    +0.000 C 
ATOM      8  C   UNL     1       2.423   8.271  18.306  0.00  0.00    +0.000 C 
ENDROOT
BRANCH   1  10
ATOM      9  O   UNL     1       1.867  11.254  18.352  0.00  0.00    +0.000 OA
ATOM     10  C   UNL     1       0.894  10.761  18.908  0.00  0.00    +0.000 C 
BRANCH  10  11
ATOM     11  C   UNL     1      -0.465  11.263  18.675  0.00  0.00    +0.000 A 
ATOM     12  C   UNL     1      -0.879  12.465  19.244  0.00  0.00    +0.000 A 
ATOM     13  N   UNL     1      -2.230  12.351  19.353  0.00  0.00    +0.000 N 
ATOM     14  C   UNL     1      -2.674  11.630  18.281  0.00  0.00    +0.000 A 
ATOM     15  C   UNL     1      -3.939  11.606  17.668  0.00  0.00    +0.000 A 
ATOM     16  C   UNL     1      -4.094  10.740  16.594  0.00  0.00    +0.000 A 
ATOM     17  C   UNL     1      -3.085   9.852  16.237  0.00  0.00    +0.000 A 
ATOM     18  C   UNL     1      -1.847   9.842  16.906  0.00  0.00    +0.000 A 
ATOM     19  C   UNL     1      -1.595  10.821  17.904  0.00  0.00    +0.000 A 
ATOM     20  H   UNL     1      -2.806  12.775  20.066  0.00  0.00    +0.000 HD
ENDBRANCH  10  11
ENDBRANCH   1  10
BRANCH   6  21
ATOM     21  C   UNL     1       4.058   5.686  19.220  0.00  0.00    +0.000 C 
BRANCH  21  22
ATOM     22  C   UNL     1       5.037   5.379  18.105  0.00  0.00    +0.000 A 
ATOM     23  C   UNL     1       4.822   4.266  17.276  0.00  0.00    +0.000 A 
ATOM     24  C   UNL     1       5.682   3.994  16.212  0.00  0.00    +0.000 A 
ATOM     25  C   UNL     1       6.767   4.833  15.961  0.00  0.00    +0.000 A 
ATOM     26  C   UNL     1       6.992   5.941  16.775  0.00  0.00    +0.000 A 
ATOM     27  C   UNL     1       6.132   6.215  17.841  0.00  0.00    +0.000 A 
ENDBRANCH  21  22
ENDBRANCH   6  21
TORSDOF 4
ENDMDL
MODEL 3
REMARK VINA RESULT:      -7.6      2.927      8.428
REMARK  Name = 
REMARK  4 active torsions:
REMARK  status: ('A' for Active; 'I' for Inactive)
REMARK    1  A    between atoms: C_2  and  C_3
REMARK    2  A    between atoms: C_2  and  C_18
REMARK    3  A    between atoms: N_8  and  C_9
REMARK    4  A    between atoms: C_9  and  C_10
REMARK                            x       y       z     vdW  Elec       q    Type
REMARK                         _______ _______ _______ _____ _____    ______ ____
ROOT
ATOM      1  C   UNL     1       2.503   8.086  18.091  0.00  0.00    +0.000 C 
ATOM      2  O   UNL     1       2.653   8.652  17.011  0.00  0.00    +0.000 OA
ATOM      3  N   UNL     1       1.646   8.533  19.092  0.00  0.00    +0.000 N 
ATOM      4  C   UNL     1       0.865   9.733  18.808  0.00  0.00    +0.000 C 
ATOM      5  C   UNL     1      -0.418   9.796  19.656  0.00  0.00    +0.000 C 
ATOM      6  N   UNL     1      -0.220   9.623  21.113  0.00  0.00    +0.000 NA
ATOM      7  C   UNL     1       0.559   8.388  21.344  0.00  0.00    +0.000 C 
ATOM      8  C   UNL     1       1.853   8.243  20.521  0.00  0.00    +0.000 C 
ENDROOT
BRANCH   1  10
ATOM      9  O   UNL     1       4.514   6.881  18.278  0.00  0.00    +0.000 OA
ATOM     10  C   UNL     1       3.294   6.802  18.343  0.00  0.00    +0.000 C 
BRANCH  10  11
ATOM     11  C   UNL     1       2.612   5.514  18.515  0.00  0.00    +0.000 A 
ATOM     12  C   UNL     1       2.222   4.769  17.405  0.00  0.00    +0.000 A 
ATOM     13  N   UNL     1       1.172   4.022  17.839  0.00  0.00    +0.000 N 
ATOM     14  C   UNL     1       1.407   3.690  19.143  0.00  0.00    +0.000 A 
ATOM     15  C   UNL     1       0.922   2.613  19.905  0.00  0.00    +0.000 A 
ATOM     16  C   UNL     1       1.329   2.555  21.231  0.00  0.00    +0.000 A 
ATOM     17  C   UNL     1       2.070   3.586  21.800  0.00  0.00    +0.000 A 
ATOM     18  C   UNL     1       2.489   4.692  21.039  0.00  0.00    +0.000 A 
ATOM     19  C   UNL     1       2.230   4.708  19.642  0.00  0.00    +0.000 A 
ATOM     20  H   UNL     1       0.388   3.717  17.279  0.00  0.00    +0.000 HD
ENDBRANCH  10  11
ENDBRANCH   1  10
BRANCH   6  21
ATOM     21  C   UNL     1       0.392  10.828  21.694  0.00  0.00    +0.000 C 
BRANCH  21  22
ATOM     22  C   UNL     1      -0.587  11.852  22.234  0.00  0.00    +0.000 A 
ATOM     23  C   UNL     1      -1.734  11.422  22.921  0.00  0.00    +0.000 A 
ATOM     24  C   UNL     1      -2.621  12.347  23.472  0.00  0.00    +0.000 A 
ATOM     25  C   UNL     1      -2.373  13.712  23.344  0.00  0.00    +0.000 A 
ATOM     26  C   UNL     1      -1.238  14.152  22.665  0.00  0.00    +0.000 A 
ATOM     27  C   UNL     1      -0.348  13.228  22.114  0.00  0.00    +0.000 A 
ENDBRANCH  21  22
ENDBRANCH   6  21
TORSDOF 4
ENDMDL
MODEL 4
REMARK VINA RESULT:      -7.6      0.962      1.042
REMARK  Name = 
REMARK  4 active torsions:
REMARK  status: ('A' for Active; 'I' for Inactive)
REMARK    1  A    between atoms: C_2  and  C_3
REMARK    2  A    between atoms: C_2  and  C_18
REMARK    3  A    between atoms: N_8  and  C_9
REMARK    4  A    between atoms: C_9  and  C_10
REMARK                            x       y       z     vdW  Elec       q    Type
REMARK                         _______ _______ _______ _____ _____    ______ ____
ROOT
ATOM      1  C   UNL     1       1.595   8.245  20.055  0.00  0.00    +0.000 C 
ATOM      2  O   UNL     1       1.448   8.547  21.237  0.00  0.00    +0.000 OA
ATOM      3  N   UNL     1       1.944   6.972  19.613  0.00  0.00    +0.000 N 
ATOM      4  C   UNL     1       2.111   5.940  20.632  0.00  0.00    +0.000 C 
ATOM      5  C   UNL     1       1.898   4.528  20.058  0.00  0.00    +0.000 C 
ATOM      6  N   UNL     1       2.691   4.213  18.849  0.00  0.00    +0.000 NA
ATOM      7  C   UNL     1       2.472   5.277  17.846  0.00  0.00    +0.000 C 
ATOM      8  C   UNL     1       2.653   6.723  18.347  0.00  0.00    +0.000 C 
ENDROOT
BRANCH   1  10
ATOM      9  O   UNL     1       2.247   9.495  18.173  0.00  0.00    +0.000 OA
ATOM     10  C   UNL     1       1.363   9.331  19.004  0.00  0.00    +0.000 C 
BRANCH  10  11
ATOM     11  C   UNL     1       0.200  10.222  19.079  0.00  0.00    +0.000 A 
ATOM     12  C   UNL     1       0.180  11.281  19.982  0.00  0.00    +0.000 A 
ATOM     13  N   UNL     1      -1.138  11.505  20.227  0.00  0.00    +0.000 N 
ATOM     14  C   UNL     1      -1.824  11.259  19.072  0.00  0.00    +0.000 A 
ATOM     15  C   UNL     1      -3.069  11.746  18.636  0.00  0.00    +0.000 A 
ATOM     16  C   UNL     1      -3.520  11.289  17.405  0.00  0.00    +0.000 A 
ATOM     17  C   UNL     1      -2.830  10.301  16.710  0.00  0.00    +0.000 A 
ATOM     18  C   UNL     1      -1.619   9.775  17.194  0.00  0.00    +0.000 A 
ATOM     19  C   UNL     1      -1.045  10.332  18.368  0.00  0.00    +0.000 A 
ATOM     20  H   UNL     1      -1.532  11.851  21.091  0.00  0.00    +0.000 HD
ENDBRANCH  10  11
ENDBRANCH   1  10
BRANCH   6  21
ATOM     21  C   UNL     1       4.105   4.010  19.201  0.00  0.00    +0.000 C 
BRANCH  21  22
ATOM     22  C   UNL     1       5.087   4.221  18.066  0.00  0.00    +0.000 A 
ATOM     23  C   UNL     1       6.284   4.916  18.303  0.00  0.00    +0.000 A 
ATOM     24  C   UNL     1       7.226   5.075  17.286  0.00  0.00    +0.000 A 
ATOM     25  C   UNL     1       6.985   4.542  16.021  0.00  0.00    +0.000 A 
ATOM     26  C   UNL     1       5.801   3.850  15.773  0.00  0.00    +0.000 A 
ATOM     27  C   UNL     1       4.856   3.688  16.790  0.00  0.00    +0.000 A 
ENDBRANCH  21  22
ENDBRANCH   6  21
TORSDOF 4
ENDMDL
MODEL 5
REMARK VINA RESULT:      -7.6      3.148      8.618
REMARK  Name = 
REMARK  4 active torsions:
REMARK  status: ('A' for Active; 'I' for Inactive)
REMARK    1  A    between atoms: C_2  and  C_3
REMARK    2  A    between atoms: C_2  and  C_18
REMARK    3  A    between atoms: N_8  and  C_9
REMARK    4  A    between atoms: C_9  and  C_10
REMARK                            x       y       z     vdW  Elec       q    Type
REMARK                         _______ _______ _______ _____ _____    ______ ____
ROOT
ATOM      1  C   UNL     1       2.012   4.218  19.309  0.00  0.00    +0.000 C 
ATOM      2  O   UNL     1       1.549   3.410  20.111  0.00  0.00    +0.000 OA
ATOM      3  N   UNL     1       1.969   5.598  19.482  0.00  0.00    +0.000 N 
ATOM      4  C   UNL     1       1.359   6.093  20.712  0.00  0.00    +0.000 C 
ATOM      5  C   UNL     1       1.875   7.495  21.084  0.00  0.00    +0.000 C 
ATOM      6  N   UNL     1       1.790   8.505  20.005  0.00  0.00    +0.000 NA
ATOM      7  C   UNL     1       2.436   7.960  18.792  0.00  0.00    +0.000 C 
ATOM      8  C   UNL     1       1.983   6.553  18.361  0.00  0.00    +0.000 C 
ENDROOT
BRANCH   1  10
ATOM      9  O   UNL     1       1.999   3.010  17.291  0.00  0.00    +0.000 OA
ATOM     10  C   UNL     1       2.692   3.672  18.053  0.00  0.00    +0.000 C 
BRANCH  10  11
ATOM     11  C   UNL     1       4.138   3.821  17.850  0.00  0.00    +0.000 A 
ATOM     12  C   UNL     1       5.032   3.444  18.848  0.00  0.00    +0.000 A 
ATOM     13  N   UNL     1       6.136   4.209  18.634  0.00  0.00    +0.000 N 
ATOM     14  C   UNL     1       6.269   4.378  17.285  0.00  0.00    +0.000 A 
ATOM     15  C   UNL     1       7.411   4.665  16.516  0.00  0.00    +0.000 A 
ATOM     16  C   UNL     1       7.222   4.803  15.148  0.00  0.00    +0.000 A 
ATOM     17  C   UNL     1       5.945   4.788  14.595  0.00  0.00    +0.000 A 
ATOM     18  C   UNL     1       4.805   4.568  15.389  0.00  0.00    +0.000 A 
ATOM     19  C   UNL     1       4.973   4.263  16.767  0.00  0.00    +0.000 A 
ATOM     20  H   UNL     1       6.776   4.540  19.342  0.00  0.00    +0.000 HD
ENDBRANCH  10  11
ENDBRANCH   1  10
BRANCH   6  21
ATOM     21  C   UNL     1       0.394   8.919  19.799  0.00  0.00    +0.000 C 
BRANCH  21  22
ATOM     22  C   UNL     1      -0.157   9.872  20.841  0.00  0.00    +0.000 A 
ATOM     23  C   UNL     1      -0.421   9.405  22.139  0.00  0.00    +0.000 A 
ATOM     24  C   UNL     1      -0.878  10.276  23.129  0.00  0.00    +0.000 A 
ATOM     25  C   UNL     1      -1.076  11.624  22.834  0.00  0.00    +0.000 A 
ATOM     26  C   UNL     1      -0.817  12.100  21.550  0.00  0.00    +0.000 A 
ATOM     27  C   UNL     1      -0.358  11.230  20.558  0.00  0.00    +0.000 A 
ENDBRANCH  21  22
ENDBRANCH   6  21
TORSDOF 4
ENDMDL
MODEL 6
REMARK VINA RESULT:      -7.5      2.592      8.391
REMARK  Name = 
REMARK  4 active torsions:
REMARK  status: ('A' for Active; 'I' for Inactive)
REMARK    1  A    between atoms: C_2  and  C_3
REMARK    2  A    between atoms: C_2  and  C_18
REMARK    3  A    between atoms: N_8  and  C_9
REMARK    4  A    between atoms: C_9  and  C_10
REMARK                            x       y       z     vdW  Elec       q    Type
REMARK                         _______ _______ _______ _____ _____    ______ ____
ROOT
ATOM      1  C   UNL     1       2.009   4.435  19.629  0.00  0.00    +0.000 C 
ATOM      2  O   UNL     1       1.449   3.857  20.558  0.00  0.00    +0.000 OA
ATOM      3  N   UNL     1       2.011   5.817  19.460  0.00  0.00    +0.000 N 
ATOM      4  C   UNL     1       1.326   6.609  20.477  0.00  0.00    +0.000 C 
ATOM      5  C   UNL     1       1.870   8.048  20.545  0.00  0.00    +0.000 C 
ATOM      6  N   UNL     1       1.914   8.767  19.252  0.00  0.00    +0.000 NA
ATOM      7  C   UNL     1       2.631   7.930  18.266  0.00  0.00    +0.000 C 
ATOM      8  C   UNL     1       2.154   6.470  18.148  0.00  0.00    +0.000 C 
ENDROOT
BRANCH   1  10
ATOM      9  O   UNL     1       2.155   2.644  18.113  0.00  0.00    +0.000 OA
ATOM     10  C   UNL     1       2.763   3.585  18.606  0.00  0.00    +0.000 C 
BRANCH  10  11
ATOM     11  C   UNL     1       4.187   3.811  18.337  0.00  0.00    +0.000 A 
ATOM     12  C   UNL     1       5.133   3.611  19.340  0.00  0.00    +0.000 A 
ATOM     13  N   UNL     1       6.172   4.422  19.005  0.00  0.00    +0.000 N 
ATOM     14  C   UNL     1       6.256   4.448  17.641  0.00  0.00    +0.000 A 
ATOM     15  C   UNL     1       7.353   4.725  16.807  0.00  0.00    +0.000 A 
ATOM     16  C   UNL     1       7.119   4.696  15.439  0.00  0.00    +0.000 A 
ATOM     17  C   UNL     1       5.833   4.531  14.936  0.00  0.00    +0.000 A 
ATOM     18  C   UNL     1       4.733   4.322  15.788  0.00  0.00    +0.000 A 
ATOM     19  C   UNL     1       4.959   4.186  17.184  0.00  0.00    +0.000 A 
ATOM     20  H   UNL     1       6.805   4.874  19.649  0.00  0.00    +0.000 HD
ENDBRANCH  10  11
ENDBRANCH   1  10
BRANCH   6  21
ATOM     21  C   UNL     1       0.557   9.149  18.831  0.00  0.00    +0.000 C 
BRANCH  21  22
ATOM     22  C   UNL     1       0.332  10.638  18.658  0.00  0.00    +0.000 A 
ATOM     23  C   UNL     1      -0.964  11.121  18.419  0.00  0.00    +0.000 A 
ATOM     24  C   UNL     1      -1.203  12.492  18.308  0.00  0.00    +0.000 A 
ATOM     25  C   UNL     1      -0.149  13.395  18.435  0.00  0.00    +0.000 A 
ATOM     26  C   UNL     1       1.142  12.928  18.671  0.00  0.00    +0.000 A 
ATOM     27  C   UNL     1       1.383  11.556  18.784  0.00  0.00    +0.000 A 
ENDBRANCH  21  22
ENDBRANCH   6  21
TORSDOF 4
ENDMDL
MODEL 7
REMARK VINA RESULT:      -7.5      1.362      1.726
REMARK  Name = 
REMARK  4 active torsions:
REMARK  status: ('A' for Active; 'I' for Inactive)
REMARK    1  A    between atoms: C_2  and  C_3
REMARK    2  A    between atoms: C_2  and  C_18
REMARK    3  A    between atoms: N_8  and  C_9
REMARK    4  A    between atoms: C_9  and  C_10
REMARK                            x       y       z     vdW  Elec       q    Type
REMARK                         _______ _______ _______ _____ _____    ______ ____
ROOT
ATOM      1  C   UNL     1       0.881  10.434  20.805  0.00  0.00    +0.000 C 
ATOM      2  O   UNL     1       0.862  10.291  22.025  0.00  0.00    +0.000 OA
ATOM      3  N   UNL     1       1.293   9.449  19.912  0.00  0.00    +0.000 N 
ATOM      4  C   UNL     1       1.694   8.166  20.481  0.00  0.00    +0.000 C 
ATOM      5  C   UNL     1       1.548   7.018  19.465  0.00  0.00    +0.000 C 
ATOM      6  N   UNL     1       2.202   7.247  18.157  0.00  0.00    +0.000 NA
ATOM      7  C   UNL     1       1.749   8.549  17.620  0.00  0.00    +0.000 C 
ATOM      8  C   UNL     1       1.850   9.747  18.582  0.00  0.00    +0.000 C 
ENDROOT
BRANCH   1  10
ATOM      9  O   UNL     1       1.177  12.717  20.324  0.00  0.00    +0.000 OA
ATOM     10  C   UNL     1       0.407  11.770  20.232  0.00  0.00    +0.000 C 
BRANCH  10  11
ATOM     11  C   UNL     1      -0.960  11.933  19.724  0.00  0.00    +0.000 A 
ATOM     12  C   UNL     1      -1.750  12.995  20.156  0.00  0.00    +0.000 A 
ATOM     13  N   UNL     1      -3.030  12.560  20.009  0.00  0.00    +0.000 N 
ATOM     14  C   UNL     1      -3.072  11.763  18.899  0.00  0.00    +0.000 A 
ATOM     15  C   UNL     1      -4.150  11.442  18.056  0.00  0.00    +0.000 A 
ATOM     16  C   UNL     1      -3.883  10.574  17.006  0.00  0.00    +0.000 A 
ATOM     17  C   UNL     1      -2.642   9.958  16.884  0.00  0.00    +0.000 A 
ATOM     18  C   UNL     1      -1.593  10.238  17.778  0.00  0.00    +0.000 A 
ATOM     19  C   UNL     1      -1.780  11.241  18.767  0.00  0.00    +0.000 A 
ATOM     20  H   UNL     1      -3.818  12.827  20.581  0.00  0.00    +0.000 HD
ENDBRANCH  10  11
ENDBRANCH   1  10
BRANCH   6  21
ATOM     21  C   UNL     1       3.663   7.135  18.287  0.00  0.00    +0.000 C 
BRANCH  21  22
ATOM     22  C   UNL     1       4.318   6.136  17.355  0.00  0.00    +0.000 A 
ATOM     23  C   UNL     1       4.144   4.760  17.577  0.00  0.00    +0.000 A 
ATOM     24  C   UNL     1       4.695   3.824  16.701  0.00  0.00    +0.000 A 
ATOM     25  C   UNL     1       5.425   4.250  15.594  0.00  0.00    +0.000 A 
ATOM     26  C   UNL     1       5.606   5.612  15.363  0.00  0.00    +0.000 A 
ATOM     27  C   UNL     1       5.055   6.552  16.237  0.00  0.00    +0.000 A 
ENDBRANCH  21  22
ENDBRANCH   6  21
TORSDOF 4
ENDMDL
MODEL 8
REMARK VINA RESULT:      -7.5      2.165      2.806
REMARK  Name = 
REMARK  4 active torsions:
REMARK  status: ('A' for Active; 'I' for Inactive)
REMARK    1  A    between atoms: C_2  and  C_3
REMARK    2  A    between atoms: C_2  and  C_18
REMARK    3  A    between atoms: N_8  and  C_9
REMARK    4  A    between atoms: C_9  and  C_10
REMARK                            x       y       z     vdW  Elec       q    Type
REMARK                         _______ _______ _______ _____ _____    ______ ____
ROOT
ATOM      1  C   UNL     1       1.481  10.012  18.505  0.00  0.00    +0.000 C 
ATOM      2  O   UNL     1       1.894  10.152  17.357  0.00  0.00    +0.000 OA
ATOM      3  N   UNL     1       1.610   8.838  19.241  0.00  0.00    +0.000 N 
ATOM      4  C   UNL     1       2.309   7.727  18.600  0.00  0.00    +0.000 C 
ATOM      5  C   UNL     1       2.910   6.757  19.633  0.00  0.00    +0.000 C 
ATOM      6  N   UNL     1       1.966   6.266  20.662  0.00  0.00    +0.000 NA
ATOM      7  C   UNL     1       1.300   7.429  21.289  0.00  0.00    +0.000 C 
ATOM      8  C   UNL     1       0.684   8.455  20.321  0.00  0.00    +0.000 C 
ENDROOT
BRANCH   1  10
ATOM      9  O   UNL     1       1.412  11.761  20.075  0.00  0.00    +0.000 OA
ATOM     10  C   UNL     1       0.799  11.206  19.172  0.00  0.00    +0.000 C 
BRANCH  10  11
ATOM     11  C   UNL     1      -0.581  11.575  18.835  0.00  0.00    +0.000 A 
ATOM     12  C   UNL     1      -1.120  12.776  19.289  0.00  0.00    +0.000 A 
ATOM     13  N   UNL     1      -2.461  12.558  19.340  0.00  0.00    +0.000 N 
ATOM     14  C   UNL     1      -2.787  11.728  18.306  0.00  0.00    +0.000 A 
ATOM     15  C   UNL     1      -4.010  11.554  17.634  0.00  0.00    +0.000 A 
ATOM     16  C   UNL     1      -4.036  10.603  16.623  0.00  0.00    +0.000 A 
ATOM     17  C   UNL     1      -2.941   9.779  16.386  0.00  0.00    +0.000 A 
ATOM     18  C   UNL     1      -1.746   9.920  17.114  0.00  0.00    +0.000 A 
ATOM     19  C   UNL     1      -1.628  10.987  18.045  0.00  0.00    +0.000 A 
ATOM     20  H   UNL     1      -3.108  12.984  19.989  0.00  0.00    +0.000 HD
ENDBRANCH  10  11
ENDBRANCH   1  10
BRANCH   6  21
ATOM     21  C   UNL     1       1.032   5.291  20.079  0.00  0.00    +0.000 C 
BRANCH  21  22
ATOM     22  C   UNL     1       1.683   4.135  19.346  0.00  0.00    +0.000 A 
ATOM     23  C   UNL     1       1.701   4.123  17.942  0.00  0.00    +0.000 A 
ATOM     24  C   UNL     1       2.340   3.096  17.248  0.00  0.00    +0.000 A 
ATOM     25  C   UNL     1       2.969   2.068  17.947  0.00  0.00    +0.000 A 
ATOM     26  C   UNL     1       2.958   2.067  19.341  0.00  0.00    +0.000 A 
ATOM     27  C   UNL     1       2.320   3.096  20.038  0.00  0.00    +0.000 A 
ENDBRANCH  21  22
ENDBRANCH   6  21
TORSDOF 4
ENDMDL
MODEL 9
REMARK VINA RESULT:      -7.5      0.978      1.861
REMARK  Name = 
REMARK  4 active torsions:
REMARK  status: ('A' for Active; 'I' for Inactive)
REMARK    1  A    between atoms: C_2  and  C_3
REMARK    2  A    between atoms: C_2  and  C_18
REMARK    3  A    between atoms: N_8  and  C_9
REMARK    4  A    between atoms: C_9  and  C_10
REMARK                            x       y       z     vdW  Elec       q    Type
REMARK                         _______ _______ _______ _____ _____    ______ ____
ROOT
ATOM      1  C   UNL     1       1.045   9.582  20.222  0.00  0.00    +0.000 C 
ATOM      2  O   UNL     1       0.871   9.823  21.414  0.00  0.00    +0.000 OA
ATOM      3  N   UNL     1       1.566   8.386  19.738  0.00  0.00    +0.000 N 
ATOM      4  C   UNL     1       1.891   7.358  20.722  0.00  0.00    +0.000 C 
ATOM      5  C   UNL     1       1.875   5.948  20.105  0.00  0.00    +0.000 C 
ATOM      6  N   UNL     1       2.690   5.786  18.880  0.00  0.00    +0.000 NA
ATOM      7  C   UNL     1       2.309   6.838  17.913  0.00  0.00    +0.000 C 
ATOM      8  C   UNL     1       2.288   8.279  18.459  0.00  0.00    +0.000 C 
ENDROOT
BRANCH   1  10
ATOM      9  O   UNL     1       1.461  11.546  18.998  0.00  0.00    +0.000 OA
ATOM     10  C   UNL     1       0.648  10.655  19.208  0.00  0.00    +0.000 C 
BRANCH  10  11
ATOM     11  C   UNL     1      -0.698  10.685  18.625  0.00  0.00    +0.000 A 
ATOM     12  C   UNL     1      -1.021   9.853  17.556  0.00  0.00    +0.000 A 
ATOM     13  N   UNL     1      -2.027  10.496  16.906  0.00  0.00    +0.000 N 
ATOM     14  C   UNL     1      -2.785  11.137  17.844  0.00  0.00    +0.000 A 
ATOM     15  C   UNL     1      -4.131  11.542  17.799  0.00  0.00    +0.000 A 
ATOM     16  C   UNL     1      -4.620  12.202  18.918  0.00  0.00    +0.000 A 
ATOM     17  C   UNL     1      -3.779  12.557  19.967  0.00  0.00    +0.000 A 
ATOM     18  C   UNL     1      -2.417  12.203  19.966  0.00  0.00    +0.000 A 
ATOM     19  C   UNL     1      -1.917  11.389  18.914  0.00  0.00    +0.000 A 
ATOM     20  H   UNL     1      -2.215  10.456  15.914  0.00  0.00    +0.000 HD
ENDBRANCH  10  11
ENDBRANCH   1  10
BRANCH   6  21
ATOM     21  C   UNL     1       4.122   5.777  19.214  0.00  0.00    +0.000 C 
BRANCH  21  22
ATOM     22  C   UNL     1       5.046   5.380  18.079  0.00  0.00    +0.000 A 
ATOM     23  C   UNL     1       4.719   4.280  17.269  0.00  0.00    +0.000 A 
ATOM     24  C   UNL     1       5.527   3.929  16.188  0.00  0.00    +0.000 A 
ATOM     25  C   UNL     1       6.671   4.672  15.902  0.00  0.00    +0.000 A 
ATOM     26  C   UNL     1       7.007   5.765  16.698  0.00  0.00    +0.000 A 
ATOM     27  C   UNL     1       6.198   6.120  17.781  0.00  0.00    +0.000 A 
ENDBRANCH  21  22
ENDBRANCH   6  21
TORSDOF 4
ENDMDL
