MODEL 1
REMARK VINA RESULT:      -6.8      0.000      0.000
REMARK  Name = 
REMARK  5 active torsions:
REMARK  status: ('A' for Active; 'I' for Inactive)
REMARK    1  A    between atoms: C_1  and  N_2
REMARK    2  A    between atoms: N_2  and  C_3
REMARK    3  A    between atoms: C_10  and  C_12
REMARK    4  A    between atoms: C_13  and  C_14
REMARK    5  A    between atoms: C_14  and  O_16
REMARK                            x       y       z     vdW  Elec       q    Type
REMARK                         _______ _______ _______ _____ _____    ______ ____
ROOT
ATOM      1  C   UNL     1       4.790   5.384  16.134  0.00  0.00    +0.000 C 
ATOM      2  N   UNL     1       4.913   4.419  17.224  0.00  0.00    +0.000 N 
ATOM      3  C   UNL     1       3.796   3.480  17.338  0.00  0.00    +0.000 C 
ATOM      4  C   UNL     1       5.886   4.499  18.205  0.00  0.00    +0.000 C 
ATOM      5  N   UNL     1       5.955   3.686  19.216  0.00  0.00    +0.000 NA
ATOM      6  N   UNL     1       6.779   5.535  18.128  0.00  0.00    +0.000 N 
ATOM      7  C   UNL     1       7.623   6.065  19.063  0.00  0.00    +0.000 C 
ATOM      8  N   UNL     1       7.923   5.515  20.189  0.00  0.00    +0.000 NA
ATOM      9  N   UNL     1       8.206   7.295  18.884  0.00  0.00    +0.000 N 
ATOM     10  C   UNL     1       7.999   8.134  17.816  0.00  0.00    +0.000 C 
ATOM     11  O   UNL     1       7.391   7.806  16.801  0.00  0.00    +0.000 OA
ATOM     12  H   UNL     1       5.216   2.988  19.160  0.00  0.00    +0.000 HD
ATOM     13  H   UNL     1       6.795   6.049  17.257  0.00  0.00    +0.000 HD
ATOM     14  H   UNL     1       7.395   4.613  20.183  0.00  0.00    +0.000 HD
ATOM     15  H   UNL     1       8.724   7.590  19.697  0.00  0.00    +0.000 HD
ENDROOT
BRANCH  10  16
ATOM     16  C   UNL     1       8.609   9.481  17.957  0.00  0.00    +0.000 C 
ATOM     17  C   UNL     1       9.099   9.816  19.160  0.00  0.00    +0.000 C 
BRANCH  17  18
ATOM     18  C   UNL     1       9.711  11.132  19.387  0.00  0.00    +0.000 C 
ATOM     19  O   UNL     1      10.563  11.358  20.229  0.00  0.00    +0.000 OA
BRANCH  18  20
ATOM     20  O   UNL     1       9.221  12.072  18.551  0.00  0.00    +0.000 OA
ATOM     21  H   UNL     1       9.493  11.995  17.617  0.00  0.00    +0.000 HD
ENDBRANCH  18  20
ENDBRANCH  17  18
ENDBRANCH  10  16
TORSDOF 3
ENDMDL
MODEL 2
REMARK VINA RESULT:      -6.7      0.943      1.005
REMARK  Name = 
REMARK  5 active torsions:
REMARK  status: ('A' for Active; 'I' for Inactive)
REMARK    1  A    between atoms: C_1  and  N_2
REMARK    2  A    between atoms: N_2  and  C_3
REMARK    3  A    between atoms: C_10  and  C_12
REMARK    4  A    between atoms: C_13  and  C_14
REMARK    5  A    between atoms: C_14  and  O_16
REMARK                            x       y       z     vdW  Elec       q    Type
REMARK                         _______ _______ _______ _____ _____    ______ ____
ROOT
ATOM      1  C   UNL     1       4.590   6.468  16.574  0.00  0.00    +0.000 C 
ATOM      2  N   UNL     1       4.794   5.248  17.351  0.00  0.00    +0.000 N 
ATOM      3  C   UNL     1       3.627   4.370  17.429  0.00  0.00    +0.000 C 
ATOM      4  C   UNL     1       5.916   5.020  18.130  0.00  0.00    +0.000 C 
ATOM      5  N   UNL     1       6.069   3.970  18.879  0.00  0.00    +0.000 NA
ATOM      6  N   UNL     1       6.880   5.994  18.152  0.00  0.00    +0.000 N 
ATOM      7  C   UNL     1       7.910   6.219  19.020  0.00  0.00    +0.000 C 
ATOM      8  N   UNL     1       8.334   5.381  19.902  0.00  0.00    +0.000 NA
ATOM      9  N   UNL     1       8.571   7.422  19.049  0.00  0.00    +0.000 N 
ATOM     10  C   UNL     1       8.276   8.520  18.277  0.00  0.00    +0.000 C 
ATOM     11  O   UNL     1       7.483   8.498  17.339  0.00  0.00    +0.000 OA
ATOM     12  H   UNL     1       5.268   3.349  18.785  0.00  0.00    +0.000 HD
ATOM     13  H   UNL     1       6.804   6.715  17.446  0.00  0.00    +0.000 HD
ATOM     14  H   UNL     1       7.728   4.540  19.769  0.00  0.00    +0.000 HD
ATOM     15  H   UNL     1       9.239   7.469  19.803  0.00  0.00    +0.000 HD
ENDROOT
BRANCH  10  16
ATOM     16  C   UNL     1       9.026   9.750  18.635  0.00  0.00    +0.000 C 
ATOM     17  C   UNL     1       8.837  10.836  17.870  0.00  0.00    +0.000 C 
BRANCH  17  18
ATOM     18  C   UNL     1       9.548  12.091  18.149  0.00  0.00    +0.000 C 
ATOM     19  O   UNL     1      10.408  12.218  19.004  0.00  0.00    +0.000 OA
BRANCH  18  20
ATOM     20  O   UNL     1       9.141  13.096  17.345  0.00  0.00    +0.000 OA
ATOM     21  H   UNL     1       9.838  13.524  16.812  0.00  0.00    +0.000 HD
ENDBRANCH  18  20
ENDBRANCH  17  18
ENDBRANCH  10  16
TORSDOF 3
ENDMDL
MODEL 3
REMARK VINA RESULT:      -6.4      0.711      1.058
REMARK  Name = 
REMARK  5 active torsions:
REMARK  status: ('A' for Active; 'I' for Inactive)
REMARK    1  A    between atoms: C_1  and  N_2
REMARK    2  A    between atoms: N_2  and  C_3
REMARK    3  A    between atoms: C_10  and  C_12
REMARK    4  A    between atoms: C_13  and  C_14
REMARK    5  A    between atoms: C_14  and  O_16
REMARK                            x       y       z     vdW  Elec       q    Type
REMARK                         _______ _______ _______ _____ _____    ______ ____
ROOT
ATOM      1  C   UNL     1       4.192   4.826  16.599  0.00  0.00    +0.000 C 
ATOM      2  N   UNL     1       4.452   3.978  17.759  0.00  0.00    +0.000 N 
ATOM      3  C   UNL     1       3.365   3.061  18.103  0.00  0.00    +0.000 C 
ATOM      4  C   UNL     1       5.536   4.153  18.603  0.00  0.00    +0.000 C 
ATOM      5  N   UNL     1       5.732   3.448  19.676  0.00  0.00    +0.000 NA
ATOM      6  N   UNL     1       6.406   5.171  18.313  0.00  0.00    +0.000 N 
ATOM      7  C   UNL     1       7.351   5.790  19.080  0.00  0.00    +0.000 C 
ATOM      8  N   UNL     1       7.789   5.358  20.212  0.00  0.00    +0.000 NA
ATOM      9  N   UNL     1       7.899   6.993  18.708  0.00  0.00    +0.000 N 
ATOM     10  C   UNL     1       7.559   7.719  17.592  0.00  0.00    +0.000 C 
ATOM     11  O   UNL     1       6.836   7.292  16.697  0.00  0.00    +0.000 OA
ATOM     12  H   UNL     1       4.997   2.751  19.781  0.00  0.00    +0.000 HD
ATOM     13  H   UNL     1       6.312   5.593  17.398  0.00  0.00    +0.000 HD
ATOM     14  H   UNL     1       7.271   4.463  20.363  0.00  0.00    +0.000 HD
ATOM     15  H   UNL     1       8.509   7.368  19.418  0.00  0.00    +0.000 HD
ENDROOT
BRANCH  10  16
ATOM     16  C   UNL     1       8.172   9.070  17.520  0.00  0.00    +0.000 C 
ATOM     17  C   UNL     1       8.730   9.558  18.638  0.00  0.00    +0.000 C 
BRANCH  17  18
ATOM     18  C   UNL     1       9.349  10.890  18.655  0.00  0.00    +0.000 C 
ATOM     19  O   UNL     1       8.863  11.880  18.135  0.00  0.00    +0.000 OA
BRANCH  18  20
ATOM     20  O   UNL     1      10.525  10.897  19.318  0.00  0.00    +0.000 OA
ATOM     21  H   UNL     1      11.265  11.346  18.868  0.00  0.00    +0.000 HD
ENDBRANCH  18  20
ENDBRANCH  17  18
ENDBRANCH  10  16
TORSDOF 3
ENDMDL
MODEL 4
REMARK VINA RESULT:      -6.4      5.021      5.964
REMARK  Name = 
REMARK  5 active torsions:
REMARK  status: ('A' for Active; 'I' for Inactive)
REMARK    1  A    between atoms: C_1  and  N_2
REMARK    2  A    between atoms: N_2  and  C_3
REMARK    3  A    between atoms: C_10  and  C_12
REMARK    4  A    between atoms: C_13  and  C_14
REMARK    5  A    between atoms: C_14  and  O_16
REMARK                            x       y       z     vdW  Elec       q    Type
REMARK                         _______ _______ _______ _____ _____    ______ ____
ROOT
ATOM      1  C   UNL     1       3.652   2.520  20.181  0.00  0.00    +0.000 C 
ATOM      2  N   UNL     1       2.743   3.510  20.753  0.00  0.00    +0.000 N 
ATOM      3  C   UNL     1       1.750   2.966  21.680  0.00  0.00    +0.000 C 
ATOM      4  C   UNL     1       2.669   4.820  20.312  0.00  0.00    +0.000 C 
ATOM      5  N   UNL     1       1.813   5.685  20.767  0.00  0.00    +0.000 NA
ATOM      6  N   UNL     1       3.508   5.194  19.295  0.00  0.00    +0.000 N 
ATOM      7  C   UNL     1       3.473   6.267  18.450  0.00  0.00    +0.000 C 
ATOM      8  N   UNL     1       2.734   7.310  18.605  0.00  0.00    +0.000 NA
ATOM      9  N   UNL     1       4.223   6.296  17.300  0.00  0.00    +0.000 N 
ATOM     10  C   UNL     1       5.037   5.286  16.846  0.00  0.00    +0.000 C 
ATOM     11  O   UNL     1       5.324   4.294  17.509  0.00  0.00    +0.000 OA
ATOM     12  H   UNL     1       1.238   5.263  21.495  0.00  0.00    +0.000 HD
ATOM     13  H   UNL     1       4.259   4.552  19.075  0.00  0.00    +0.000 HD
ATOM     14  H   UNL     1       2.219   7.130  19.496  0.00  0.00    +0.000 HD
ATOM     15  H   UNL     1       4.020   7.107  16.736  0.00  0.00    +0.000 HD
ENDROOT
BRANCH  10  16
ATOM     16  C   UNL     1       5.592   5.500  15.486  0.00  0.00    +0.000 C 
ATOM     17  C   UNL     1       6.580   4.687  15.084  0.00  0.00    +0.000 C 
BRANCH  17  18
ATOM     18  C   UNL     1       7.190   4.837  13.756  0.00  0.00    +0.000 C 
ATOM     19  O   UNL     1       8.076   5.632  13.493  0.00  0.00    +0.000 OA
BRANCH  18  20
ATOM     20  O   UNL     1       6.659   3.987  12.852  0.00  0.00    +0.000 OA
ATOM     21  H   UNL     1       7.136   3.144  12.728  0.00  0.00    +0.000 HD
ENDBRANCH  18  20
ENDBRANCH  17  18
ENDBRANCH  10  16
TORSDOF 3
ENDMDL
MODEL 5
REMARK VINA RESULT:      -6.3      5.190      6.546
REMARK  Name = 
REMARK  5 active torsions:
REMARK  status: ('A' for Active; 'I' for Inactive)
REMARK    1  A    between atoms: C_1  and  N_2
REMARK    2  A    between atoms: N_2  and  C_3
REMARK    3  A    between atoms: C_10  and  C_12
REMARK    4  A    between atoms: C_13  and  C_14
REMARK    5  A    between atoms: C_14  and  O_16
REMARK                            x       y       z     vdW  Elec       q    Type
REMARK                         _______ _______ _______ _____ _____    ______ ____
ROOT
ATOM      1  C   UNL     1       3.646   2.547  19.543  0.00  0.00    +0.000 C 
ATOM      2  N   UNL     1       3.009   3.730  20.117  0.00  0.00    +0.000 N 
ATOM      3  C   UNL     1       1.997   3.447  21.134  0.00  0.00    +0.000 C 
ATOM      4  C   UNL     1       3.179   5.007  19.610  0.00  0.00    +0.000 C 
ATOM      5  N   UNL     1       2.559   6.051  20.070  0.00  0.00    +0.000 NA
ATOM      6  N   UNL     1       4.000   5.152  18.522  0.00  0.00    +0.000 N 
ATOM      7  C   UNL     1       4.128   6.172  17.623  0.00  0.00    +0.000 C 
ATOM      8  N   UNL     1       3.637   7.355  17.767  0.00  0.00    +0.000 NA
ATOM      9  N   UNL     1       4.780   5.995  16.428  0.00  0.00    +0.000 N 
ATOM     10  C   UNL     1       5.328   4.818  15.979  0.00  0.00    +0.000 C 
ATOM     11  O   UNL     1       5.449   3.815  16.677  0.00  0.00    +0.000 OA
ATOM     12  H   UNL     1       1.965   5.791  20.855  0.00  0.00    +0.000 HD
ATOM     13  H   UNL     1       4.582   4.357  18.290  0.00  0.00    +0.000 HD
ATOM     14  H   UNL     1       3.164   7.325  18.698  0.00  0.00    +0.000 HD
ATOM     15  H   UNL     1       4.709   6.807  15.834  0.00  0.00    +0.000 HD
ENDROOT
BRANCH  10  16
ATOM     16  C   UNL     1       5.813   4.854  14.576  0.00  0.00    +0.000 C 
ATOM     17  C   UNL     1       6.053   3.680  13.973  0.00  0.00    +0.000 C 
BRANCH  17  18
ATOM     18  C   UNL     1       6.543   3.627  12.589  0.00  0.00    +0.000 C 
ATOM     19  O   UNL     1       7.215   4.499  12.064  0.00  0.00    +0.000 OA
BRANCH  18  20
ATOM     20  O   UNL     1       6.167   2.495  11.958  0.00  0.00    +0.000 OA
ATOM     21  H   UNL     1       6.774   1.736  12.046  0.00  0.00    +0.000 HD
ENDBRANCH  18  20
ENDBRANCH  17  18
ENDBRANCH  10  16
TORSDOF 3
ENDMDL
MODEL 6
REMARK VINA RESULT:      -6.0      5.101      6.014
REMARK  Name = 
REMARK  5 active torsions:
REMARK  status: ('A' for Active; 'I' for Inactive)
REMARK    1  A    between atoms: C_1  and  N_2
REMARK    2  A    between atoms: N_2  and  C_3
REMARK    3  A    between atoms: C_10  and  C_12
REMARK    4  A    between atoms: C_13  and  C_14
REMARK    5  A    between atoms: C_14  and  O_16
REMARK                            x       y       z     vdW  Elec       q    Type
REMARK                         _______ _______ _______ _____ _____    ______ ____
ROOT
ATOM      1  C   UNL     1       2.638   2.353  19.115  0.00  0.00    +0.000 C 
ATOM      2  N   UNL     1       2.213   3.624  19.696  0.00  0.00    +0.000 N 
ATOM      3  C   UNL     1       1.055   3.534  20.585  0.00  0.00    +0.000 C 
ATOM      4  C   UNL     1       2.714   4.851  19.293  0.00  0.00    +0.000 C 
ATOM      5  N   UNL     1       2.288   5.987  19.755  0.00  0.00    +0.000 NA
ATOM      6  N   UNL     1       3.665   4.853  18.306  0.00  0.00    +0.000 N 
ATOM      7  C   UNL     1       4.113   5.854  17.493  0.00  0.00    +0.000 C 
ATOM      8  N   UNL     1       3.878   7.110  17.662  0.00  0.00    +0.000 NA
ATOM      9  N   UNL     1       4.841   5.584  16.361  0.00  0.00    +0.000 N 
ATOM     10  C   UNL     1       5.168   4.334  15.895  0.00  0.00    +0.000 C 
ATOM     11  O   UNL     1       4.987   3.301  16.534  0.00  0.00    +0.000 OA
ATOM     12  H   UNL     1       1.566   5.836  20.457  0.00  0.00    +0.000 HD
ATOM     13  H   UNL     1       4.081   3.958  18.083  0.00  0.00    +0.000 HD
ATOM     14  H   UNL     1       3.307   7.148  18.537  0.00  0.00    +0.000 HD
ATOM     15  H   UNL     1       5.018   6.415  15.817  0.00  0.00    +0.000 HD
ENDROOT
BRANCH  10  16
ATOM     16  C   UNL     1       5.805   4.317  14.554  0.00  0.00    +0.000 C 
ATOM     17  C   UNL     1       6.955   4.991  14.406  0.00  0.00    +0.000 C 
BRANCH  17  18
ATOM     18  C   UNL     1       7.645   5.034  13.109  0.00  0.00    +0.000 C 
ATOM     19  O   UNL     1       7.313   4.386  12.132  0.00  0.00    +0.000 OA
BRANCH  18  20
ATOM     20  O   UNL     1       8.697   5.881  13.120  0.00  0.00    +0.000 OA
ATOM     21  H   UNL     1       9.534   5.517  13.467  0.00  0.00    +0.000 HD
ENDBRANCH  18  20
ENDBRANCH  17  18
ENDBRANCH  10  16
TORSDOF 3
ENDMDL
MODEL 7
REMARK VINA RESULT:      -6.0      5.082      7.031
REMARK  Name = 
REMARK  5 active torsions:
REMARK  status: ('A' for Active; 'I' for Inactive)
REMARK    1  A    between atoms: C_1  and  N_2
REMARK    2  A    between atoms: N_2  and  C_3
REMARK    3  A    between atoms: C_10  and  C_12
REMARK    4  A    between atoms: C_13  and  C_14
REMARK    5  A    between atoms: C_14  and  O_16
REMARK                            x       y       z     vdW  Elec       q    Type
REMARK                         _______ _______ _______ _____ _____    ______ ____
ROOT
ATOM      1  C   UNL     1       5.571   3.983  13.953  0.00  0.00    +0.000 C 
ATOM      2  N   UNL     1       6.621   4.913  14.361  0.00  0.00    +0.000 N 
ATOM      3  C   UNL     1       7.712   5.065  13.399  0.00  0.00    +0.000 C 
ATOM      4  C   UNL     1       6.707   5.453  15.633  0.00  0.00    +0.000 C 
ATOM      5  N   UNL     1       7.678   6.222  16.023  0.00  0.00    +0.000 NA
ATOM      6  N   UNL     1       5.741   5.098  16.538  0.00  0.00    +0.000 N 
ATOM      7  C   UNL     1       5.709   5.192  17.901  0.00  0.00    +0.000 C 
ATOM      8  N   UNL     1       6.529   5.881  18.617  0.00  0.00    +0.000 NA
ATOM      9  N   UNL     1       4.788   4.496  18.644  0.00  0.00    +0.000 N 
ATOM     10  C   UNL     1       3.849   3.624  18.148  0.00  0.00    +0.000 C 
ATOM     11  O   UNL     1       3.610   3.491  16.951  0.00  0.00    +0.000 OA
ATOM     12  H   UNL     1       8.334   6.378  15.260  0.00  0.00    +0.000 HD
ATOM     13  H   UNL     1       4.926   4.631  16.163  0.00  0.00    +0.000 HD
ATOM     14  H   UNL     1       7.167   6.327  17.920  0.00  0.00    +0.000 HD
ATOM     15  H   UNL     1       4.950   4.592  19.635  0.00  0.00    +0.000 HD
ENDROOT
BRANCH  10  16
ATOM     16  C   UNL     1       3.099   2.866  19.181  0.00  0.00    +0.000 C 
ATOM     17  C   UNL     1       2.676   3.541  20.260  0.00  0.00    +0.000 C 
BRANCH  17  18
ATOM     18  C   UNL     1       1.935   2.864  21.333  0.00  0.00    +0.000 C 
ATOM     19  O   UNL     1       2.451   2.377  22.324  0.00  0.00    +0.000 OA
BRANCH  18  20
ATOM     20  O   UNL     1       0.605   2.844  21.099  0.00  0.00    +0.000 OA
ATOM     21  H   UNL     1       0.230   1.979  20.846  0.00  0.00    +0.000 HD
ENDBRANCH  18  20
ENDBRANCH  17  18
ENDBRANCH  10  16
TORSDOF 3
ENDMDL
MODEL 8
REMARK VINA RESULT:      -6.0      4.868      5.780
REMARK  Name = 
REMARK  5 active torsions:
REMARK  status: ('A' for Active; 'I' for Inactive)
REMARK    1  A    between atoms: C_1  and  N_2
REMARK    2  A    between atoms: N_2  and  C_3
REMARK    3  A    between atoms: C_10  and  C_12
REMARK    4  A    between atoms: C_13  and  C_14
REMARK    5  A    between atoms: C_14  and  O_16
REMARK                            x       y       z     vdW  Elec       q    Type
REMARK                         _______ _______ _______ _____ _____    ______ ____
ROOT
ATOM      1  C   UNL     1       2.434   7.443  18.441  0.00  0.00    +0.000 C 
ATOM      2  N   UNL     1       2.381   6.588  19.624  0.00  0.00    +0.000 N 
ATOM      3  C   UNL     1       1.746   7.198  20.792  0.00  0.00    +0.000 C 
ATOM      4  C   UNL     1       3.052   5.381  19.722  0.00  0.00    +0.000 C 
ATOM      5  N   UNL     1       3.067   4.653  20.797  0.00  0.00    +0.000 NA
ATOM      6  N   UNL     1       3.790   4.977  18.640  0.00  0.00    +0.000 N 
ATOM      7  C   UNL     1       4.780   4.044  18.526  0.00  0.00    +0.000 C 
ATOM      8  N   UNL     1       5.068   3.154  19.412  0.00  0.00    +0.000 NA
ATOM      9  N   UNL     1       5.607   4.009  17.431  0.00  0.00    +0.000 N 
ATOM     10  C   UNL     1       5.579   4.887  16.374  0.00  0.00    +0.000 C 
ATOM     11  O   UNL     1       4.689   5.716  16.203  0.00  0.00    +0.000 OA
ATOM     12  H   UNL     1       2.503   5.086  21.526  0.00  0.00    +0.000 HD
ATOM     13  H   UNL     1       3.632   5.482  17.777  0.00  0.00    +0.000 HD
ATOM     14  H   UNL     1       4.376   3.322  20.178  0.00  0.00    +0.000 HD
ATOM     15  H   UNL     1       6.345   3.329  17.534  0.00  0.00    +0.000 HD
ENDROOT
BRANCH  10  16
ATOM     16  C   UNL     1       6.698   4.736  15.411  0.00  0.00    +0.000 C 
ATOM     17  C   UNL     1       6.467   5.076  14.134  0.00  0.00    +0.000 C 
BRANCH  17  18
ATOM     18  C   UNL     1       7.518   4.948  13.115  0.00  0.00    +0.000 C 
ATOM     19  O   UNL     1       7.435   4.239  12.127  0.00  0.00    +0.000 OA
BRANCH  18  20
ATOM     20  O   UNL     1       8.596   5.712  13.396  0.00  0.00    +0.000 OA
ATOM     21  H   UNL     1       9.192   5.900  12.647  0.00  0.00    +0.000 HD
ENDBRANCH  18  20
ENDBRANCH  17  18
ENDBRANCH  10  16
TORSDOF 3
ENDMDL
MODEL 9
REMARK VINA RESULT:      -5.9      5.241      6.487
REMARK  Name = 
REMARK  5 active torsions:
REMARK  status: ('A' for Active; 'I' for Inactive)
REMARK    1  A    between atoms: C_1  and  N_2
REMARK    2  A    between atoms: N_2  and  C_3
REMARK    3  A    between atoms: C_10  and  C_12
REMARK    4  A    between atoms: C_13  and  C_14
REMARK    5  A    between atoms: C_14  and  O_16
REMARK                            x       y       z     vdW  Elec       q    Type
REMARK                         _______ _______ _______ _____ _____    ______ ____
ROOT
ATOM      1  C   UNL     1       2.506   7.383  18.178  0.00  0.00    +0.000 C 
ATOM      2  N   UNL     1       2.509   6.631  19.430  0.00  0.00    +0.000 N 
ATOM      3  C   UNL     1       2.043   7.382  20.596  0.00  0.00    +0.000 C 
ATOM      4  C   UNL     1       3.094   5.384  19.567  0.00  0.00    +0.000 C 
ATOM      5  N   UNL     1       3.163   4.743  20.695  0.00  0.00    +0.000 NA
ATOM      6  N   UNL     1       3.685   4.836  18.459  0.00  0.00    +0.000 N 
ATOM      7  C   UNL     1       4.585   3.817  18.332  0.00  0.00    +0.000 C 
ATOM      8  N   UNL     1       4.894   2.979  19.260  0.00  0.00    +0.000 NA
ATOM      9  N   UNL     1       5.292   3.628  17.170  0.00  0.00    +0.000 N 
ATOM     10  C   UNL     1       5.223   4.420  16.049  0.00  0.00    +0.000 C 
ATOM     11  O   UNL     1       4.385   5.304  15.893  0.00  0.00    +0.000 OA
ATOM     12  H   UNL     1       2.710   5.278  21.434  0.00  0.00    +0.000 HD
ATOM     13  H   UNL     1       3.478   5.283  17.574  0.00  0.00    +0.000 HD
ATOM     14  H   UNL     1       4.298   3.263  20.070  0.00  0.00    +0.000 HD
ATOM     15  H   UNL     1       5.983   2.899  17.261  0.00  0.00    +0.000 HD
ENDROOT
BRANCH  10  16
ATOM     16  C   UNL     1       6.224   4.101  15.000  0.00  0.00    +0.000 C 
ATOM     17  C   UNL     1       5.797   4.055  13.729  0.00  0.00    +0.000 C 
BRANCH  17  18
ATOM     18  C   UNL     1       6.722   3.737  12.633  0.00  0.00    +0.000 C 
ATOM     19  O   UNL     1       7.523   4.524  12.160  0.00  0.00    +0.000 OA
BRANCH  18  20
ATOM     20  O   UNL     1       6.585   2.464  12.204  0.00  0.00    +0.000 OA
ATOM     21  H   UNL     1       5.672   2.174  12.016  0.00  0.00    +0.000 HD
ENDBRANCH  18  20
ENDBRANCH  17  18
ENDBRANCH  10  16
TORSDOF 3
ENDMDL
