MODEL 1
REMARK VINA RESULT:      -8.0      0.000      0.000
REMARK  Name = 
REMARK  8 active torsions:
REMARK  status: ('A' for Active; 'I' for Inactive)
REMARK    1  A    between atoms: C_1  and  C_2
REMARK    2  A    between atoms: C_2  and  C_3
REMARK    3  A    between atoms: C_7  and  C_8
REMARK    4  A    between atoms: C_9  and  N_10
REMARK    5  A    between atoms: N_10  and  S_11
REMARK    6  A    between atoms: S_11  and  C_14
REMARK    7  A    between atoms: C_17  and  C_18
REMARK    8  A    between atoms: C_26  and  O_27
REMARK                            x       y       z     vdW  Elec       q    Type
REMARK                         _______ _______ _______ _____ _____    ______ ____
ROOT
ATOM      1  N   UNL     1       1.125  11.134  20.408  0.00  0.00    +0.000 N 
ATOM      2  H   UNL     1       2.019  11.618  20.504  0.00  0.00    +0.000 HD
ENDROOT
BRANCH   1   9
ATOM      3  C   UNL     1      -3.461  12.499  23.632  0.00  0.00    +0.000 A 
ATOM      4  N   UNL     1      -3.193  13.547  22.797  0.00  0.00    +0.000 NA
ATOM      5  C   UNL     1      -2.147  13.141  22.115  0.00  0.00    +0.000 A 
ATOM      6  N   UNL     1      -1.447  13.801  21.149  0.00  0.00    +0.000 NA
ATOM      7  C   UNL     1      -0.449  13.165  20.611  0.00  0.00    +0.000 A 
ATOM      8  C   UNL     1       0.342  13.927  19.569  0.00  0.00    +0.000 C 
ATOM      9  C   UNL     1      -0.036  11.748  20.957  0.00  0.00    +0.000 A 
ATOM     10  C   UNL     1      -0.712  11.160  21.968  0.00  0.00    +0.000 A 
ATOM     11  N   UNL     1      -1.788  11.856  22.540  0.00  0.00    +0.000 N 
ATOM     12  N   UNL     1      -2.636  11.459  23.522  0.00  0.00    +0.000 NA
BRANCH   3  14
ATOM     13  C   UNL     1      -5.887  12.984  23.940  0.00  0.00    +0.000 C 
ATOM     14  C   UNL     1      -4.597  12.507  24.585  0.00  0.00    +0.000 C 
ENDBRANCH   3  14
BRANCH  10  15
ATOM     15  O   UNL     1      -0.410   9.926  22.524  0.00  0.00    +0.000 OA
ATOM     16  H   UNL     1       0.333   9.493  22.060  0.00  0.00    +0.000 HD
ENDBRANCH  10  15
ENDBRANCH   1   9
BRANCH   1  17
ATOM     17  S   UNL     1       1.043  10.423  18.869  0.00  0.00    +0.000 S 
ATOM     18  O   UNL     1      -0.358  10.334  18.545  0.00  0.00    +0.000 OA
ATOM     19  O   UNL     1       1.970  11.144  18.027  0.00  0.00    +0.000 OA
BRANCH  17  20
ATOM     20  C   UNL     1       1.643   8.780  19.122  0.00  0.00    +0.000 A 
ATOM     21  C   UNL     1       2.242   8.110  18.056  0.00  0.00    +0.000 A 
ATOM     22  C   UNL     1       2.700   6.803  18.232  0.00  0.00    +0.000 A 
ATOM     23  C   UNL     1       2.598   6.157  19.478  0.00  0.00    +0.000 A 
ATOM     24  C   UNL     1       1.986   6.860  20.530  0.00  0.00    +0.000 A 
ATOM     25  C   UNL     1       1.528   8.169  20.366  0.00  0.00    +0.000 A 
BRANCH  23  26
ATOM     26  C   UNL     1       3.112   4.721  19.614  0.00  0.00    +0.000 C 
ATOM     27  C   UNL     1       2.415   3.932  20.745  0.00  0.00    +0.000 C 
ATOM     28  C   UNL     1       0.991   3.520  20.383  0.00  0.00    +0.000 C 
ATOM     29  C   UNL     1       0.926   2.728  19.081  0.00  0.00    +0.000 C 
ATOM     30  C   UNL     1       1.692   3.378  17.935  0.00  0.00    +0.000 C 
ATOM     31  C   UNL     1       3.090   3.859  18.336  0.00  0.00    +0.000 C 
ENDBRANCH  23  26
ENDBRANCH  17  20
ENDBRANCH   1  17
TORSDOF 6
ENDMDL
MODEL 2
REMARK VINA RESULT:      -7.9      1.549      2.481
REMARK  Name = 
REMARK  8 active torsions:
REMARK  status: ('A' for Active; 'I' for Inactive)
REMARK    1  A    between atoms: C_1  and  C_2
REMARK    2  A    between atoms: C_2  and  C_3
REMARK    3  A    between atoms: C_7  and  C_8
REMARK    4  A    between atoms: C_9  and  N_10
REMARK    5  A    between atoms: N_10  and  S_11
REMARK    6  A    between atoms: S_11  and  C_14
REMARK    7  A    between atoms: C_17  and  C_18
REMARK    8  A    between atoms: C_26  and  O_27
REMARK                            x       y       z     vdW  Elec       q    Type
REMARK                         _______ _______ _______ _____ _____    ______ ____
ROOT
ATOM      1  N   UNL     1       0.170  11.774  20.861  0.00  0.00    +0.000 N 
ATOM      2  H   UNL     1       1.019  12.334  20.957  0.00  0.00    +0.000 HD
ENDROOT
BRANCH   1   9
ATOM      3  C   UNL     1      -4.754  14.310  22.477  0.00  0.00    +0.000 A 
ATOM      4  N   UNL     1      -4.500  13.276  23.333  0.00  0.00    +0.000 NA
ATOM      5  C   UNL     1      -3.374  12.771  22.886  0.00  0.00    +0.000 A 
ATOM      6  N   UNL     1      -2.667  11.705  23.356  0.00  0.00    +0.000 NA
ATOM      7  C   UNL     1      -1.561  11.415  22.737  0.00  0.00    +0.000 A 
ATOM      8  C   UNL     1      -0.810  10.204  23.248  0.00  0.00    +0.000 C 
ATOM      9  C   UNL     1      -0.995  12.192  21.565  0.00  0.00    +0.000 A 
ATOM     10  C   UNL     1      -1.763  13.195  21.088  0.00  0.00    +0.000 A 
ATOM     11  N   UNL     1      -2.954  13.499  21.765  0.00  0.00    +0.000 N 
ATOM     12  N   UNL     1      -3.856  14.480  21.508  0.00  0.00    +0.000 NA
BRANCH   3  14
ATOM     13  C   UNL     1      -5.920  15.972  23.925  0.00  0.00    +0.000 C 
ATOM     14  C   UNL     1      -5.936  15.194  22.620  0.00  0.00    +0.000 C 
ENDBRANCH   3  14
BRANCH  10  15
ATOM     15  O   UNL     1      -1.494  13.941  19.949  0.00  0.00    +0.000 OA
ATOM     16  H   UNL     1      -1.361  14.886  20.160  0.00  0.00    +0.000 HD
ENDBRANCH  10  15
ENDBRANCH   1   9
BRANCH   1  17
ATOM     17  S   UNL     1       0.030  11.254  19.252  0.00  0.00    +0.000 S 
ATOM     18  O   UNL     1      -1.366  10.960  19.049  0.00  0.00    +0.000 OA
ATOM     19  O   UNL     1       0.726  12.224  18.438  0.00  0.00    +0.000 OA
BRANCH  17  20
ATOM     20  C   UNL     1       0.913   9.723  19.218  0.00  0.00    +0.000 A 
ATOM     21  C   UNL     1       1.034   8.989  20.397  0.00  0.00    +0.000 A 
ATOM     22  C   UNL     1       1.746   7.789  20.393  0.00  0.00    +0.000 A 
ATOM     23  C   UNL     1       2.321   7.286  19.211  0.00  0.00    +0.000 A 
ATOM     24  C   UNL     1       2.182   8.052  18.041  0.00  0.00    +0.000 A 
ATOM     25  C   UNL     1       1.467   9.252  18.033  0.00  0.00    +0.000 A 
BRANCH  23  26
ATOM     26  C   UNL     1       3.097   5.967  19.264  0.00  0.00    +0.000 C 
ATOM     27  C   UNL     1       2.663   5.054  20.432  0.00  0.00    +0.000 C 
ATOM     28  C   UNL     1       1.309   4.392  20.188  0.00  0.00    +0.000 C 
ATOM     29  C   UNL     1       1.269   3.613  18.877  0.00  0.00    +0.000 C 
ATOM     30  C   UNL     1       1.795   4.402  17.685  0.00  0.00    +0.000 C 
ATOM     31  C   UNL     1       3.113   5.127  17.971  0.00  0.00    +0.000 C 
ENDBRANCH  23  26
ENDBRANCH  17  20
ENDBRANCH   1  17
TORSDOF 6
ENDMDL
MODEL 3
REMARK VINA RESULT:      -7.9      2.897      3.982
REMARK  Name = 
REMARK  8 active torsions:
REMARK  status: ('A' for Active; 'I' for Inactive)
REMARK    1  A    between atoms: C_1  and  C_2
REMARK    2  A    between atoms: C_2  and  C_3
REMARK    3  A    between atoms: C_7  and  C_8
REMARK    4  A    between atoms: C_9  and  N_10
REMARK    5  A    between atoms: N_10  and  S_11
REMARK    6  A    between atoms: S_11  and  C_14
REMARK    7  A    between atoms: C_17  and  C_18
REMARK    8  A    between atoms: C_26  and  O_27
REMARK                            x       y       z     vdW  Elec       q    Type
REMARK                         _______ _______ _______ _____ _____    ______ ____
ROOT
ATOM      1  N   UNL     1       0.535  10.737  20.163  0.00  0.00    +0.000 N 
ATOM      2  H   UNL     1       1.181  10.711  19.372  0.00  0.00    +0.000 HD
ENDROOT
BRANCH   1   9
ATOM      3  C   UNL     1      -4.736  11.964  18.165  0.00  0.00    +0.000 A 
ATOM      4  N   UNL     1      -4.595  12.546  19.393  0.00  0.00    +0.000 NA
ATOM      5  C   UNL     1      -3.378  12.212  19.756  0.00  0.00    +0.000 A 
ATOM      6  N   UNL     1      -2.716  12.511  20.910  0.00  0.00    +0.000 NA
ATOM      7  C   UNL     1      -1.499  12.068  21.020  0.00  0.00    +0.000 A 
ATOM      8  C   UNL     1      -0.794  12.376  22.324  0.00  0.00    +0.000 C 
ATOM      9  C   UNL     1      -0.764  11.282  19.953  0.00  0.00    +0.000 A 
ATOM     10  C   UNL     1      -1.480  10.948  18.858  0.00  0.00    +0.000 A 
ATOM     11  N   UNL     1      -2.793  11.432  18.751  0.00  0.00    +0.000 N 
ATOM     12  N   UNL     1      -3.681  11.273  17.738  0.00  0.00    +0.000 NA
BRANCH   3  14
ATOM     13  C   UNL     1      -7.189  12.411  18.208  0.00  0.00    +0.000 C 
ATOM     14  C   UNL     1      -5.970  12.101  17.355  0.00  0.00    +0.000 C 
ENDBRANCH   3  14
BRANCH  10  15
ATOM     15  O   UNL     1      -1.041  10.125  17.831  0.00  0.00    +0.000 OA
ATOM     16  H   UNL     1      -0.234  10.478  17.407  0.00  0.00    +0.000 HD
ENDBRANCH  10  15
ENDBRANCH   1   9
BRANCH   1  17
ATOM     17  S   UNL     1       0.704   9.307  21.061  0.00  0.00    +0.000 S 
ATOM     18  O   UNL     1       1.521   9.646  22.199  0.00  0.00    +0.000 OA
ATOM     19  O   UNL     1      -0.622   8.754  21.219  0.00  0.00    +0.000 OA
BRANCH  17  20
ATOM     20  C   UNL     1       1.656   8.250  20.011  0.00  0.00    +0.000 A 
ATOM     21  C   UNL     1       2.015   8.708  18.744  0.00  0.00    +0.000 A 
ATOM     22  C   UNL     1       2.747   7.878  17.892  0.00  0.00    +0.000 A 
ATOM     23  C   UNL     1       3.159   6.596  18.301  0.00  0.00    +0.000 A 
ATOM     24  C   UNL     1       2.777   6.165  19.583  0.00  0.00    +0.000 A 
ATOM     25  C   UNL     1       2.048   6.989  20.445  0.00  0.00    +0.000 A 
BRANCH  23  26
ATOM     26  C   UNL     1       3.955   5.725  17.325  0.00  0.00    +0.000 C 
ATOM     27  C   UNL     1       4.937   6.535  16.451  0.00  0.00    +0.000 C 
ATOM     28  C   UNL     1       6.164   7.008  17.226  0.00  0.00    +0.000 C 
ATOM     29  C   UNL     1       6.902   5.858  17.905  0.00  0.00    +0.000 C 
ATOM     30  C   UNL     1       5.987   4.932  18.698  0.00  0.00    +0.000 C 
ATOM     31  C   UNL     1       4.720   4.533  17.936  0.00  0.00    +0.000 C 
ENDBRANCH  23  26
ENDBRANCH  17  20
ENDBRANCH   1  17
TORSDOF 6
ENDMDL
MODEL 4
REMARK VINA RESULT:      -7.9      1.178      1.926
REMARK  Name = 
REMARK  8 active torsions:
REMARK  status: ('A' for Active; 'I' for Inactive)
REMARK    1  A    between atoms: C_1  and  C_2
REMARK    2  A    between atoms: C_2  and  C_3
REMARK    3  A    between atoms: C_7  and  C_8
REMARK    4  A    between atoms: C_9  and  N_10
REMARK    5  A    between atoms: N_10  and  S_11
REMARK    6  A    between atoms: S_11  and  C_14
REMARK    7  A    between atoms: C_17  and  C_18
REMARK    8  A    between atoms: C_26  and  O_27
REMARK                            x       y       z     vdW  Elec       q    Type
REMARK                         _______ _______ _______ _____ _____    ______ ____
ROOT
ATOM      1  N   UNL     1       0.887  11.261  20.869  0.00  0.00    +0.000 N 
ATOM      2  H   UNL     1       1.700  11.876  20.937  0.00  0.00    +0.000 HD
ENDROOT
BRANCH   1   9
ATOM      3  C   UNL     1      -4.105  13.590  22.583  0.00  0.00    +0.000 A 
ATOM      4  N   UNL     1      -3.819  12.533  23.401  0.00  0.00    +0.000 NA
ATOM      5  C   UNL     1      -2.679  12.078  22.934  0.00  0.00    +0.000 A 
ATOM      6  N   UNL     1      -1.941  11.017  23.363  0.00  0.00    +0.000 NA
ATOM      7  C   UNL     1      -0.828  10.783  22.732  0.00  0.00    +0.000 A 
ATOM      8  C   UNL     1      -0.041   9.576  23.197  0.00  0.00    +0.000 C 
ATOM      9  C   UNL     1      -0.288  11.618  21.589  0.00  0.00    +0.000 A 
ATOM     10  C   UNL     1      -1.086  12.616  21.151  0.00  0.00    +0.000 A 
ATOM     11  N   UNL     1      -2.284  12.859  21.840  0.00  0.00    +0.000 N 
ATOM     12  N   UNL     1      -3.214  13.822  21.621  0.00  0.00    +0.000 NA
BRANCH   3  14
ATOM     13  C   UNL     1      -6.532  13.616  23.153  0.00  0.00    +0.000 C 
ATOM     14  C   UNL     1      -5.312  14.433  22.761  0.00  0.00    +0.000 C 
ENDBRANCH   3  14
BRANCH  10  15
ATOM     15  O   UNL     1      -0.841  13.410  20.040  0.00  0.00    +0.000 OA
ATOM     16  H   UNL     1      -1.547  13.321  19.370  0.00  0.00    +0.000 HD
ENDBRANCH  10  15
ENDBRANCH   1   9
BRANCH   1  17
ATOM     17  S   UNL     1       0.749  10.702  19.273  0.00  0.00    +0.000 S 
ATOM     18  O   UNL     1      -0.663  10.578  19.016  0.00  0.00    +0.000 OA
ATOM     19  O   UNL     1       1.596  11.544  18.460  0.00  0.00    +0.000 OA
BRANCH  17  20
ATOM     20  C   UNL     1       1.430   9.071  19.330  0.00  0.00    +0.000 A 
ATOM     21  C   UNL     1       1.982   8.532  18.168  0.00  0.00    +0.000 A 
ATOM     22  C   UNL     1       2.504   7.237  18.189  0.00  0.00    +0.000 A 
ATOM     23  C   UNL     1       2.513   6.474  19.372  0.00  0.00    +0.000 A 
ATOM     24  C   UNL     1       1.947   7.047  20.523  0.00  0.00    +0.000 A 
ATOM     25  C   UNL     1       1.426   8.344  20.514  0.00  0.00    +0.000 A 
BRANCH  23  26
ATOM     26  C   UNL     1       3.093   5.057  19.337  0.00  0.00    +0.000 C 
ATOM     27  C   UNL     1       2.617   4.178  20.515  0.00  0.00    +0.000 C 
ATOM     28  C   UNL     1       1.168   3.724  20.362  0.00  0.00    +0.000 C 
ATOM     29  C   UNL     1       0.921   3.001  19.042  0.00  0.00    +0.000 C 
ATOM     30  C   UNL     1       1.467   3.745  17.829  0.00  0.00    +0.000 C 
ATOM     31  C   UNL     1       2.893   4.265  18.029  0.00  0.00    +0.000 C 
ENDBRANCH  23  26
ENDBRANCH  17  20
ENDBRANCH   1  17
TORSDOF 6
ENDMDL
MODEL 5
REMARK VINA RESULT:      -7.9      2.074      3.099
REMARK  Name = 
REMARK  8 active torsions:
REMARK  status: ('A' for Active; 'I' for Inactive)
REMARK    1  A    between atoms: C_1  and  C_2
REMARK    2  A    between atoms: C_2  and  C_3
REMARK    3  A    between atoms: C_7  and  C_8
REMARK    4  A    between atoms: C_9  and  N_10
REMARK    5  A    between atoms: N_10  and  S_11
REMARK    6  A    between atoms: S_11  and  C_14
REMARK    7  A    between atoms: C_17  and  C_18
REMARK    8  A    between atoms: C_26  and  O_27
REMARK                            x       y       z     vdW  Elec       q    Type
REMARK                         _______ _______ _______ _____ _____    ______ ____
ROOT
ATOM      1  N   UNL     1       0.529  10.429  20.608  0.00  0.00    +0.000 N 
ATOM      2  H   UNL     1       0.912  10.417  19.661  0.00  0.00    +0.000 HD
ENDROOT
BRANCH   1   9
ATOM      3  C   UNL     1      -4.008  13.161  22.895  0.00  0.00    +0.000 A 
ATOM      4  N   UNL     1      -4.111  13.221  21.533  0.00  0.00    +0.000 NA
ATOM      5  C   UNL     1      -3.045  12.579  21.113  0.00  0.00    +0.000 A 
ATOM      6  N   UNL     1      -2.632  12.349  19.835  0.00  0.00    +0.000 NA
ATOM      7  C   UNL     1      -1.536  11.665  19.687  0.00  0.00    +0.000 A 
ATOM      8  C   UNL     1      -1.072  11.453  18.261  0.00  0.00    +0.000 C 
ATOM      9  C   UNL     1      -0.715  11.087  20.821  0.00  0.00    +0.000 A 
ATOM     10  C   UNL     1      -1.122  11.400  22.071  0.00  0.00    +0.000 A 
ATOM     11  N   UNL     1      -2.306  12.138  22.218  0.00  0.00    +0.000 N 
ATOM     12  N   UNL     1      -2.933  12.527  23.357  0.00  0.00    +0.000 NA
BRANCH   3  14
ATOM     13  C   UNL     1      -4.963  15.266  23.832  0.00  0.00    +0.000 C 
ATOM     14  C   UNL     1      -5.028  13.748  23.798  0.00  0.00    +0.000 C 
ENDBRANCH   3  14
BRANCH  10  15
ATOM     15  O   UNL     1      -0.442  11.084  23.239  0.00  0.00    +0.000 OA
ATOM     16  H   UNL     1       0.289  11.710  23.412  0.00  0.00    +0.000 HD
ENDBRANCH  10  15
ENDBRANCH   1   9
BRANCH   1  17
ATOM     17  S   UNL     1       0.813   8.925  21.339  0.00  0.00    +0.000 S 
ATOM     18  O   UNL     1       1.701   9.181  22.445  0.00  0.00    +0.000 OA
ATOM     19  O   UNL     1      -0.477   8.304  21.532  0.00  0.00    +0.000 OA
BRANCH  17  20
ATOM     20  C   UNL     1       1.719   8.019  20.121  0.00  0.00    +0.000 A 
ATOM     21  C   UNL     1       2.155   6.731  20.426  0.00  0.00    +0.000 A 
ATOM     22  C   UNL     1       2.892   6.010  19.484  0.00  0.00    +0.000 A 
ATOM     23  C   UNL     1       3.177   6.548  18.215  0.00  0.00    +0.000 A 
ATOM     24  C   UNL     1       2.725   7.851  17.942  0.00  0.00    +0.000 A 
ATOM     25  C   UNL     1       1.983   8.579  18.876  0.00  0.00    +0.000 A 
BRANCH  23  26
ATOM     26  C   UNL     1       3.993   5.717  17.222  0.00  0.00    +0.000 C 
ATOM     27  C   UNL     1       5.016   6.556  16.424  0.00  0.00    +0.000 C 
ATOM     28  C   UNL     1       6.223   6.967  17.265  0.00  0.00    +0.000 C 
ATOM     29  C   UNL     1       6.920   5.771  17.905  0.00  0.00    +0.000 C 
ATOM     30  C   UNL     1       5.965   4.820  18.617  0.00  0.00    +0.000 C 
ATOM     31  C   UNL     1       4.719   4.482  17.793  0.00  0.00    +0.000 C 
ENDBRANCH  23  26
ENDBRANCH  17  20
ENDBRANCH   1  17
TORSDOF 6
ENDMDL
MODEL 6
REMARK VINA RESULT:      -7.9      2.105      3.137
REMARK  Name = 
REMARK  8 active torsions:
REMARK  status: ('A' for Active; 'I' for Inactive)
REMARK    1  A    between atoms: C_1  and  C_2
REMARK    2  A    between atoms: C_2  and  C_3
REMARK    3  A    between atoms: C_7  and  C_8
REMARK    4  A    between atoms: C_9  and  N_10
REMARK    5  A    between atoms: N_10  and  S_11
REMARK    6  A    between atoms: S_11  and  C_14
REMARK    7  A    between atoms: C_17  and  C_18
REMARK    8  A    between atoms: C_26  and  O_27
REMARK                            x       y       z     vdW  Elec       q    Type
REMARK                         _______ _______ _______ _____ _____    ______ ____
ROOT
ATOM      1  N   UNL     1       0.566  10.394  20.459  0.00  0.00    +0.000 N 
ATOM      2  H   UNL     1       1.036  10.346  19.553  0.00  0.00    +0.000 HD
ENDROOT
BRANCH   1   9
ATOM      3  C   UNL     1      -4.026  13.496  22.063  0.00  0.00    +0.000 A 
ATOM      4  N   UNL     1      -4.163  13.175  20.741  0.00  0.00    +0.000 NA
ATOM      5  C   UNL     1      -3.082  12.479  20.477  0.00  0.00    +0.000 A 
ATOM      6  N   UNL     1      -2.691  11.919  19.298  0.00  0.00    +0.000 NA
ATOM      7  C   UNL     1      -1.571  11.259  19.305  0.00  0.00    +0.000 A 
ATOM      8  C   UNL     1      -1.132  10.678  17.977  0.00  0.00    +0.000 C 
ATOM      9  C   UNL     1      -0.700  11.043  20.526  0.00  0.00    +0.000 A 
ATOM     10  C   UNL     1      -1.089  11.674  21.655  0.00  0.00    +0.000 A 
ATOM     11  N   UNL     1      -2.300  12.384  21.635  0.00  0.00    +0.000 N 
ATOM     12  N   UNL     1      -2.915  13.050  22.644  0.00  0.00    +0.000 NA
BRANCH   3  14
ATOM     13  C   UNL     1      -5.811  13.419  23.803  0.00  0.00    +0.000 C 
ATOM     14  C   UNL     1      -5.048  14.274  22.805  0.00  0.00    +0.000 C 
ENDBRANCH   3  14
BRANCH  10  15
ATOM     15  O   UNL     1      -0.370  11.714  22.841  0.00  0.00    +0.000 OA
ATOM     16  H   UNL     1      -0.906  11.410  23.599  0.00  0.00    +0.000 HD
ENDBRANCH  10  15
ENDBRANCH   1   9
BRANCH   1  17
ATOM     17  S   UNL     1       0.795   8.927  21.279  0.00  0.00    +0.000 S 
ATOM     18  O   UNL     1       1.638   9.230  22.409  0.00  0.00    +0.000 OA
ATOM     19  O   UNL     1      -0.512   8.334  21.448  0.00  0.00    +0.000 OA
BRANCH  17  20
ATOM     20  C   UNL     1       1.739   7.947  20.151  0.00  0.00    +0.000 A 
ATOM     21  C   UNL     1       2.062   8.480  18.904  0.00  0.00    +0.000 A 
ATOM     22  C   UNL     1       2.788   7.712  17.992  0.00  0.00    +0.000 A 
ATOM     23  C   UNL     1       3.229   6.416  18.319  0.00  0.00    +0.000 A 
ATOM     24  C   UNL     1       2.884   5.908  19.583  0.00  0.00    +0.000 A 
ATOM     25  C   UNL     1       2.162   6.670  20.505  0.00  0.00    +0.000 A 
BRANCH  23  26
ATOM     26  C   UNL     1       4.017   5.615  17.279  0.00  0.00    +0.000 C 
ATOM     27  C   UNL     1       4.971   6.488  16.434  0.00  0.00    +0.000 C 
ATOM     28  C   UNL     1       6.207   6.931  17.212  0.00  0.00    +0.000 C 
ATOM     29  C   UNL     1       6.972   5.754  17.808  0.00  0.00    +0.000 C 
ATOM     30  C   UNL     1       6.086   4.772  18.564  0.00  0.00    +0.000 C 
ATOM     31  C   UNL     1       4.809   4.400  17.804  0.00  0.00    +0.000 C 
ENDBRANCH  23  26
ENDBRANCH  17  20
ENDBRANCH   1  17
TORSDOF 6
ENDMDL
MODEL 7
REMARK VINA RESULT:      -7.8      2.659      3.477
REMARK  Name = 
REMARK  8 active torsions:
REMARK  status: ('A' for Active; 'I' for Inactive)
REMARK    1  A    between atoms: C_1  and  C_2
REMARK    2  A    between atoms: C_2  and  C_3
REMARK    3  A    between atoms: C_7  and  C_8
REMARK    4  A    between atoms: C_9  and  N_10
REMARK    5  A    between atoms: N_10  and  S_11
REMARK    6  A    between atoms: S_11  and  C_14
REMARK    7  A    between atoms: C_17  and  C_18
REMARK    8  A    between atoms: C_26  and  O_27
REMARK                            x       y       z     vdW  Elec       q    Type
REMARK                         _______ _______ _______ _____ _____    ______ ____
ROOT
ATOM      1  N   UNL     1       0.784  10.359  20.233  0.00  0.00    +0.000 N 
ATOM      2  H   UNL     1       1.432  10.220  19.456  0.00  0.00    +0.000 HD
ENDROOT
BRANCH   1   9
ATOM      3  C   UNL     1      -4.336  11.834  18.020  0.00  0.00    +0.000 A 
ATOM      4  N   UNL     1      -4.194  12.455  19.229  0.00  0.00    +0.000 NA
ATOM      5  C   UNL     1      -3.012  12.060  19.644  0.00  0.00    +0.000 A 
ATOM      6  N   UNL     1      -2.368  12.363  20.806  0.00  0.00    +0.000 NA
ATOM      7  C   UNL     1      -1.185  11.849  20.972  0.00  0.00    +0.000 A 
ATOM      8  C   UNL     1      -0.501  12.163  22.286  0.00  0.00    +0.000 C 
ATOM      9  C   UNL     1      -0.470  10.976  19.961  0.00  0.00    +0.000 A 
ATOM     10  C   UNL     1      -1.174  10.644  18.856  0.00  0.00    +0.000 A 
ATOM     11  N   UNL     1      -2.449  11.205  18.689  0.00  0.00    +0.000 N 
ATOM     12  N   UNL     1      -3.315  11.061  17.654  0.00  0.00    +0.000 NA
BRANCH   3  14
ATOM     13  C   UNL     1      -6.827  11.788  17.930  0.00  0.00    +0.000 C 
ATOM     14  C   UNL     1      -5.534  12.016  17.166  0.00  0.00    +0.000 C 
ENDBRANCH   3  14
BRANCH  10  15
ATOM     15  O   UNL     1      -0.757   9.755  17.876  0.00  0.00    +0.000 OA
ATOM     16  H   UNL     1      -0.738   8.835  18.207  0.00  0.00    +0.000 HD
ENDBRANCH  10  15
ENDBRANCH   1   9
BRANCH   1  17
ATOM     17  S   UNL     1       0.843   9.003  21.251  0.00  0.00    +0.000 S 
ATOM     18  O   UNL     1       1.749   9.345  22.318  0.00  0.00    +0.000 OA
ATOM     19  O   UNL     1      -0.525   8.618  21.514  0.00  0.00    +0.000 OA
BRANCH  17  20
ATOM     20  C   UNL     1       1.619   7.758  20.264  0.00  0.00    +0.000 A 
ATOM     21  C   UNL     1       2.113   8.107  19.007  0.00  0.00    +0.000 A 
ATOM     22  C   UNL     1       2.708   7.132  18.205  0.00  0.00    +0.000 A 
ATOM     23  C   UNL     1       2.850   5.806  18.654  0.00  0.00    +0.000 A 
ATOM     24  C   UNL     1       2.339   5.488  19.924  0.00  0.00    +0.000 A 
ATOM     25  C   UNL     1       1.745   6.457  20.737  0.00  0.00    +0.000 A 
BRANCH  23  26
ATOM     26  C   UNL     1       3.506   4.775  17.731  0.00  0.00    +0.000 C 
ATOM     27  C   UNL     1       4.744   4.098  18.360  0.00  0.00    +0.000 C 
ATOM     28  C   UNL     1       4.375   3.083  19.438  0.00  0.00    +0.000 C 
ATOM     29  C   UNL     1       3.404   2.021  18.930  0.00  0.00    +0.000 C 
ATOM     30  C   UNL     1       2.205   2.598  18.188  0.00  0.00    +0.000 C 
ATOM     31  C   UNL     1       2.585   3.674  17.167  0.00  0.00    +0.000 C 
ENDBRANCH  23  26
ENDBRANCH  17  20
ENDBRANCH   1  17
TORSDOF 6
ENDMDL
MODEL 8
REMARK VINA RESULT:      -7.8      3.275      5.650
REMARK  Name = 
REMARK  8 active torsions:
REMARK  status: ('A' for Active; 'I' for Inactive)
REMARK    1  A    between atoms: C_1  and  C_2
REMARK    2  A    between atoms: C_2  and  C_3
REMARK    3  A    between atoms: C_7  and  C_8
REMARK    4  A    between atoms: C_9  and  N_10
REMARK    5  A    between atoms: N_10  and  S_11
REMARK    6  A    between atoms: S_11  and  C_14
REMARK    7  A    between atoms: C_17  and  C_18
REMARK    8  A    between atoms: C_26  and  O_27
REMARK                            x       y       z     vdW  Elec       q    Type
REMARK                         _______ _______ _______ _____ _____    ______ ____
ROOT
ATOM      1  N   UNL     1       0.496  12.208  18.314  0.00  0.00    +0.000 N 
ATOM      2  H   UNL     1      -0.264  12.328  17.642  0.00  0.00    +0.000 HD
ENDROOT
BRANCH   1   9
ATOM      3  C   UNL     1       4.909  15.912  18.604  0.00  0.00    +0.000 A 
ATOM      4  N   UNL     1       3.780  16.554  19.029  0.00  0.00    +0.000 NA
ATOM      5  C   UNL     1       2.845  15.637  18.927  0.00  0.00    +0.000 A 
ATOM      6  N   UNL     1       1.515  15.737  19.203  0.00  0.00    +0.000 NA
ATOM      7  C   UNL     1       0.798  14.666  19.031  0.00  0.00    +0.000 A 
ATOM      8  C   UNL     1      -0.684  14.806  19.305  0.00  0.00    +0.000 C 
ATOM      9  C   UNL     1       1.339  13.324  18.581  0.00  0.00    +0.000 A 
ATOM     10  C   UNL     1       2.649  13.289  18.250  0.00  0.00    +0.000 A 
ATOM     11  N   UNL     1       3.412  14.452  18.441  0.00  0.00    +0.000 N 
ATOM     12  N   UNL     1       4.738  14.645  18.229  0.00  0.00    +0.000 NA
BRANCH   3  14
ATOM     13  C   UNL     1       7.352  15.604  18.208  0.00  0.00    +0.000 C 
ATOM     14  C   UNL     1       6.238  16.570  18.574  0.00  0.00    +0.000 C 
ENDBRANCH   3  14
BRANCH  10  15
ATOM     15  O   UNL     1       3.308  12.203  17.695  0.00  0.00    +0.000 OA
ATOM     16  H   UNL     1       4.245  12.169  17.971  0.00  0.00    +0.000 HD
ENDBRANCH  10  15
ENDBRANCH   1   9
BRANCH   1  17
ATOM     17  S   UNL     1      -0.052  11.250  19.603  0.00  0.00    +0.000 S 
ATOM     18  O   UNL     1       0.410  11.898  20.805  0.00  0.00    +0.000 OA
ATOM     19  O   UNL     1      -1.456  11.000  19.371  0.00  0.00    +0.000 OA
BRANCH  17  20
ATOM     20  C   UNL     1       0.847   9.739  19.427  0.00  0.00    +0.000 A 
ATOM     21  C   UNL     1       1.045   8.939  20.552  0.00  0.00    +0.000 A 
ATOM     22  C   UNL     1       1.772   7.753  20.435  0.00  0.00    +0.000 A 
ATOM     23  C   UNL     1       2.285   7.331  19.195  0.00  0.00    +0.000 A 
ATOM     24  C   UNL     1       2.070   8.163  18.082  0.00  0.00    +0.000 A 
ATOM     25  C   UNL     1       1.339   9.349  18.187  0.00  0.00    +0.000 A 
BRANCH  23  26
ATOM     26  C   UNL     1       3.080   6.025  19.125  0.00  0.00    +0.000 C 
ATOM     27  C   UNL     1       2.791   5.073  20.307  0.00  0.00    +0.000 C 
ATOM     28  C   UNL     1       1.428   4.395  20.196  0.00  0.00    +0.000 C 
ATOM     29  C   UNL     1       1.254   3.650  18.876  0.00  0.00    +0.000 C 
ATOM     30  C   UNL     1       1.633   4.480  17.655  0.00  0.00    +0.000 C 
ATOM     31  C   UNL     1       2.965   5.219  17.814  0.00  0.00    +0.000 C 
ENDBRANCH  23  26
ENDBRANCH  17  20
ENDBRANCH   1  17
TORSDOF 6
ENDMDL
MODEL 9
REMARK VINA RESULT:      -7.7      1.390      2.349
REMARK  Name = 
REMARK  8 active torsions:
REMARK  status: ('A' for Active; 'I' for Inactive)
REMARK    1  A    between atoms: C_1  and  C_2
REMARK    2  A    between atoms: C_2  and  C_3
REMARK    3  A    between atoms: C_7  and  C_8
REMARK    4  A    between atoms: C_9  and  N_10
REMARK    5  A    between atoms: N_10  and  S_11
REMARK    6  A    between atoms: S_11  and  C_14
REMARK    7  A    between atoms: C_17  and  C_18
REMARK    8  A    between atoms: C_26  and  O_27
REMARK                            x       y       z     vdW  Elec       q    Type
REMARK                         _______ _______ _______ _____ _____    ______ ____
ROOT
ATOM      1  N   UNL     1       0.983  11.163  20.903  0.00  0.00    +0.000 N 
ATOM      2  H   UNL     1       1.902  11.594  21.019  0.00  0.00    +0.000 HD
ENDROOT
BRANCH   1   9
ATOM      3  C   UNL     1      -3.502  14.495  22.339  0.00  0.00    +0.000 A 
ATOM      4  N   UNL     1      -3.485  13.413  23.173  0.00  0.00    +0.000 NA
ATOM      5  C   UNL     1      -2.440  12.727  22.770  0.00  0.00    +0.000 A 
ATOM      6  N   UNL     1      -1.961  11.542  23.241  0.00  0.00    +0.000 NA
ATOM      7  C   UNL     1      -0.889  11.075  22.672  0.00  0.00    +0.000 A 
ATOM      8  C   UNL     1      -0.393   9.738  23.182  0.00  0.00    +0.000 C 
ATOM      9  C   UNL     1      -0.129  11.765  21.558  0.00  0.00    +0.000 A 
ATOM     10  C   UNL     1      -0.679  12.899  21.074  0.00  0.00    +0.000 A 
ATOM     11  N   UNL     1      -1.836  13.394  21.697  0.00  0.00    +0.000 N 
ATOM     12  N   UNL     1      -2.534  14.524  21.425  0.00  0.00    +0.000 NA
BRANCH   3  14
ATOM     13  C   UNL     1      -4.053  16.869  21.809  0.00  0.00    +0.000 C 
ATOM     14  C   UNL     1      -4.517  15.570  22.448  0.00  0.00    +0.000 C 
ENDBRANCH   3  14
BRANCH  10  15
ATOM     15  O   UNL     1      -0.218  13.611  19.976  0.00  0.00    +0.000 OA
ATOM     16  H   UNL     1      -0.935  14.120  19.549  0.00  0.00    +0.000 HD
ENDBRANCH  10  15
ENDBRANCH   1   9
BRANCH   1  17
ATOM     17  S   UNL     1       0.820  10.633  19.299  0.00  0.00    +0.000 S 
ATOM     18  O   UNL     1      -0.597  10.532  19.056  0.00  0.00    +0.000 OA
ATOM     19  O   UNL     1       1.668  11.479  18.492  0.00  0.00    +0.000 OA
BRANCH  17  20
ATOM     20  C   UNL     1       1.481   8.994  19.320  0.00  0.00    +0.000 A 
ATOM     21  C   UNL     1       1.409   8.254  20.500  0.00  0.00    +0.000 A 
ATOM     22  C   UNL     1       1.946   6.966  20.540  0.00  0.00    +0.000 A 
ATOM     23  C   UNL     1       2.532   6.384  19.401  0.00  0.00    +0.000 A 
ATOM     24  C   UNL     1       2.590   7.159  18.229  0.00  0.00    +0.000 A 
ATOM     25  C   UNL     1       2.052   8.447  18.176  0.00  0.00    +0.000 A 
BRANCH  23  26
ATOM     26  C   UNL     1       3.111   4.971  19.502  0.00  0.00    +0.000 C 
ATOM     27  C   UNL     1       2.423   4.109  20.583  0.00  0.00    +0.000 C 
ATOM     28  C   UNL     1       1.030   3.644  20.166  0.00  0.00    +0.000 C 
ATOM     29  C   UNL     1       1.040   2.897  18.836  0.00  0.00    +0.000 C 
ATOM     30  C   UNL     1       1.804   3.624  17.736  0.00  0.00    +0.000 C 
ATOM     31  C   UNL     1       3.166   4.155  18.194  0.00  0.00    +0.000 C 
ENDBRANCH  23  26
ENDBRANCH  17  20
ENDBRANCH   1  17
TORSDOF 6
ENDMDL
