MODEL 1
REMARK VINA RESULT:      -8.2      0.000      0.000
REMARK  Name = 
REMARK  15 active torsions:
REMARK  status: ('A' for Active; 'I' for Inactive)
REMARK    1  A    between atoms: C_1  and  O_2
REMARK    2  A    between atoms: O_2  and  C_3
REMARK    3  A    between atoms: C_5  and  C_6
REMARK    4  A    between atoms: C_6  and  C_7
REMARK    5  A    between atoms: C_9  and  C_10
REMARK    6  A    between atoms: C_10  and  C_11
REMARK    7  A    between atoms: C_13  and  O_14
REMARK    8  A    between atoms: O_14  and  C_15
REMARK    9  A    between atoms: C_16  and  O_17
REMARK   10  A    between atoms: C_18  and  O_19
REMARK   11  A    between atoms: O_19  and  C_20
REMARK   12  A    between atoms: C_25  and  N_26
REMARK   13  A    between atoms: C_28  and  O_29
REMARK   14  A    between atoms: O_29  and  C_30
REMARK   15  A    between atoms: C_31  and  O_32
REMARK                            x       y       z     vdW  Elec       q    Type
REMARK                         _______ _______ _______ _____ _____    ______ ____
ROOT
ATOM      1  C   UNL     1       1.748   8.745  19.064  0.00  0.00    +0.000 A 
ATOM      2  C   UNL     1       2.131   7.643  18.289  0.00  0.00    +0.000 A 
ATOM      3  C   UNL     1       2.231   6.367  18.853  0.00  0.00    +0.000 A 
ATOM      4  C   UNL     1       1.982   6.262  20.219  0.00  0.00    +0.000 A 
ATOM      5  N   UNL     1       2.092   5.052  20.905  0.00  0.00    +0.000 N 
ATOM      6  N   UNL     1       1.615   7.304  20.986  0.00  0.00    +0.000 NA
ATOM      7  C   UNL     1       1.491   8.515  20.413  0.00  0.00    +0.000 A 
ATOM      8  H   UNL     1       3.042   4.710  20.847  0.00  0.00    +0.000 HD
ATOM      9  H   UNL     1       1.858   5.269  21.874  0.00  0.00    +0.000 HD
ENDROOT
BRANCH   7  10
ATOM     10  N   UNL     1       1.056   9.521  21.272  0.00  0.00    +0.000 N 
ATOM     11  H   UNL     1       1.733   9.573  22.028  0.00  0.00    +0.000 HD
ATOM     12  H   UNL     1       0.951  10.411  20.803  0.00  0.00    +0.000 HD
ENDBRANCH   7  10
BRANCH   1  13
ATOM     13  C   UNL     1       1.585  10.092  18.407  0.00  0.00    +0.000 C 
BRANCH  13  16
ATOM     14  C   UNL     1      -1.502  12.275  18.994  0.00  0.00    +0.000 A 
ATOM     15  C   UNL     1      -0.199  11.761  19.039  0.00  0.00    +0.000 A 
ATOM     16  C   UNL     1       0.163  10.598  18.348  0.00  0.00    +0.000 A 
ATOM     17  C   UNL     1      -0.831   9.918  17.625  0.00  0.00    +0.000 A 
ATOM     18  C   UNL     1      -2.140  10.415  17.562  0.00  0.00    +0.000 A 
ATOM     19  C   UNL     1      -2.473  11.594  18.248  0.00  0.00    +0.000 A 
BRANCH  14  21
ATOM     20  C   UNL     1      -0.634  14.396  19.707  0.00  0.00    +0.000 C 
ATOM     21  O   UNL     1      -1.643  13.402  19.758  0.00  0.00    +0.000 OA
ENDBRANCH  14  21
BRANCH  18  22
ATOM     22  O   UNL     1      -3.026   9.609  16.889  0.00  0.00    +0.000 OA
ATOM     23  C   UNL     1      -3.113   9.811  15.481  0.00  0.00    +0.000 C 
ENDBRANCH  18  22
BRANCH  19  24
ATOM     24  O   UNL     1      -3.764  12.040  18.240  0.00  0.00    +0.000 OA
ATOM     25  H   UNL     1      -4.288  11.305  18.610  0.00  0.00    +0.000 HD
ENDBRANCH  19  24
ENDBRANCH  13  16
ENDBRANCH   1  13
BRANCH   3  26
ATOM     26  C   UNL     1       2.538   5.183  17.969  0.00  0.00    +0.000 C 
BRANCH  26  27
ATOM     27  C   UNL     1       4.012   4.962  17.709  0.00  0.00    +0.000 A 
ATOM     28  C   UNL     1       4.425   4.378  16.502  0.00  0.00    +0.000 A 
ATOM     29  C   UNL     1       5.767   4.081  16.282  0.00  0.00    +0.000 A 
ATOM     30  C   UNL     1       6.708   4.423  17.263  0.00  0.00    +0.000 A 
ATOM     31  C   UNL     1       6.334   5.057  18.454  0.00  0.00    +0.000 A 
ATOM     32  C   UNL     1       4.976   5.311  18.673  0.00  0.00    +0.000 A 
BRANCH  29  33
ATOM     33  O   UNL     1       6.274   3.457  15.169  0.00  0.00    +0.000 OA
ATOM     34  C   UNL     1       6.188   4.177  13.944  0.00  0.00    +0.000 C 
ENDBRANCH  29  33
BRANCH  30  35
ATOM     35  O   UNL     1       8.032   4.115  17.043  0.00  0.00    +0.000 OA
ATOM     36  H   UNL     1       8.187   3.289  17.537  0.00  0.00    +0.000 HD
ENDBRANCH  30  35
BRANCH  31  37
ATOM     37  O   UNL     1       7.345   5.365  19.323  0.00  0.00    +0.000 OA
ATOM     38  C   UNL     1       8.101   6.539  19.066  0.00  0.00    +0.000 C 
ENDBRANCH  31  37
ENDBRANCH  26  27
ENDBRANCH   3  26
TORSDOF 11
ENDMDL
MODEL 2
REMARK VINA RESULT:      -8.2      0.412      2.251
REMARK  Name = 
REMARK  15 active torsions:
REMARK  status: ('A' for Active; 'I' for Inactive)
REMARK    1  A    between atoms: C_1  and  O_2
REMARK    2  A    between atoms: O_2  and  C_3
REMARK    3  A    between atoms: C_5  and  C_6
REMARK    4  A    between atoms: C_6  and  C_7
REMARK    5  A    between atoms: C_9  and  C_10
REMARK    6  A    between atoms: C_10  and  C_11
REMARK    7  A    between atoms: C_13  and  O_14
REMARK    8  A    between atoms: O_14  and  C_15
REMARK    9  A    between atoms: C_16  and  O_17
REMARK   10  A    between atoms: C_18  and  O_19
REMARK   11  A    between atoms: O_19  and  C_20
REMARK   12  A    between atoms: C_25  and  N_26
REMARK   13  A    between atoms: C_28  and  O_29
REMARK   14  A    between atoms: O_29  and  C_30
REMARK   15  A    between atoms: C_31  and  O_32
REMARK                            x       y       z     vdW  Elec       q    Type
REMARK                         _______ _______ _______ _____ _____    ______ ____
ROOT
ATOM      1  C   UNL     1       1.817   8.621  19.113  0.00  0.00    +0.000 A 
ATOM      2  C   UNL     1       2.216   7.538  18.319  0.00  0.00    +0.000 A 
ATOM      3  C   UNL     1       2.259   6.241  18.841  0.00  0.00    +0.000 A 
ATOM      4  C   UNL     1       1.939   6.095  20.188  0.00  0.00    +0.000 A 
ATOM      5  N   UNL     1       1.989   4.859  20.835  0.00  0.00    +0.000 N 
ATOM      6  N   UNL     1       1.556   7.118  20.972  0.00  0.00    +0.000 NA
ATOM      7  C   UNL     1       1.487   8.350  20.438  0.00  0.00    +0.000 A 
ATOM      8  H   UNL     1       2.933   4.498  20.812  0.00  0.00    +0.000 HD
ATOM      9  H   UNL     1       1.710   5.048  21.798  0.00  0.00    +0.000 HD
ENDROOT
BRANCH   7  10
ATOM     10  N   UNL     1       1.030   9.335  21.309  0.00  0.00    +0.000 N 
ATOM     11  H   UNL     1       1.494   9.176  22.200  0.00  0.00    +0.000 HD
ATOM     12  H   UNL     1       1.201  10.269  20.961  0.00  0.00    +0.000 HD
ENDBRANCH   7  10
BRANCH   1  13
ATOM     13  C   UNL     1       1.717   9.993  18.497  0.00  0.00    +0.000 C 
BRANCH  13  16
ATOM     14  C   UNL     1      -1.989  10.391  17.633  0.00  0.00    +0.000 A 
ATOM     15  C   UNL     1      -0.675   9.911  17.694  0.00  0.00    +0.000 A 
ATOM     16  C   UNL     1       0.317  10.559  18.441  0.00  0.00    +0.000 A 
ATOM     17  C   UNL     1      -0.024  11.745  19.110  0.00  0.00    +0.000 A 
ATOM     18  C   UNL     1      -1.333  12.243  19.067  0.00  0.00    +0.000 A 
ATOM     19  C   UNL     1      -2.314  11.565  18.327  0.00  0.00    +0.000 A 
BRANCH  14  21
ATOM     20  C   UNL     1      -2.988  10.017  15.483  0.00  0.00    +0.000 C 
ATOM     21  O   UNL     1      -2.787   9.623  16.830  0.00  0.00    +0.000 OA
ENDBRANCH  14  21
BRANCH  18  22
ATOM     22  O   UNL     1      -1.508  13.451  19.698  0.00  0.00    +0.000 OA
ATOM     23  C   UNL     1      -1.804  13.394  21.091  0.00  0.00    +0.000 C 
ENDBRANCH  18  22
BRANCH  19  24
ATOM     24  O   UNL     1      -3.573  12.087  18.231  0.00  0.00    +0.000 OA
ATOM     25  H   UNL     1      -3.591  12.548  17.371  0.00  0.00    +0.000 HD
ENDBRANCH  19  24
ENDBRANCH  13  16
ENDBRANCH   1  13
BRANCH   3  26
ATOM     26  C   UNL     1       2.586   5.081  17.931  0.00  0.00    +0.000 C 
BRANCH  26  27
ATOM     27  C   UNL     1       4.063   4.890  17.668  0.00  0.00    +0.000 A 
ATOM     28  C   UNL     1       4.490   4.416  16.418  0.00  0.00    +0.000 A 
ATOM     29  C   UNL     1       5.836   4.145  16.187  0.00  0.00    +0.000 A 
ATOM     30  C   UNL     1       6.766   4.403  17.203  0.00  0.00    +0.000 A 
ATOM     31  C   UNL     1       6.378   4.928  18.441  0.00  0.00    +0.000 A 
ATOM     32  C   UNL     1       5.016   5.157  18.668  0.00  0.00    +0.000 A 
BRANCH  29  33
ATOM     33  O   UNL     1       6.357   3.622  15.029  0.00  0.00    +0.000 OA
ATOM     34  C   UNL     1       5.753   4.051  13.812  0.00  0.00    +0.000 C 
ENDBRANCH  29  33
BRANCH  30  35
ATOM     35  O   UNL     1       8.093   4.120  16.971  0.00  0.00    +0.000 OA
ATOM     36  H   UNL     1       8.442   4.900  16.502  0.00  0.00    +0.000 HD
ENDBRANCH  30  35
BRANCH  31  37
ATOM     37  O   UNL     1       7.379   5.163  19.344  0.00  0.00    +0.000 OA
ATOM     38  C   UNL     1       8.099   6.381  19.229  0.00  0.00    +0.000 C 
ENDBRANCH  31  37
ENDBRANCH  26  27
ENDBRANCH   3  26
TORSDOF 11
ENDMDL
MODEL 3
REMARK VINA RESULT:      -8.1      0.478      9.514
REMARK  Name = 
REMARK  15 active torsions:
REMARK  status: ('A' for Active; 'I' for Inactive)
REMARK    1  A    between atoms: C_1  and  O_2
REMARK    2  A    between atoms: O_2  and  C_3
REMARK    3  A    between atoms: C_5  and  C_6
REMARK    4  A    between atoms: C_6  and  C_7
REMARK    5  A    between atoms: C_9  and  C_10
REMARK    6  A    between atoms: C_10  and  C_11
REMARK    7  A    between atoms: C_13  and  O_14
REMARK    8  A    between atoms: O_14  and  C_15
REMARK    9  A    between atoms: C_16  and  O_17
REMARK   10  A    between atoms: C_18  and  O_19
REMARK   11  A    between atoms: O_19  and  C_20
REMARK   12  A    between atoms: C_25  and  N_26
REMARK   13  A    between atoms: C_28  and  O_29
REMARK   14  A    between atoms: O_29  and  C_30
REMARK   15  A    between atoms: C_31  and  O_32
REMARK                            x       y       z     vdW  Elec       q    Type
REMARK                         _______ _______ _______ _____ _____    ______ ____
ROOT
ATOM      1  C   UNL     1       2.199   5.956  18.762  0.00  0.00    +0.000 A 
ATOM      2  C   UNL     1       2.123   7.249  18.229  0.00  0.00    +0.000 A 
ATOM      3  C   UNL     1       1.832   8.347  19.045  0.00  0.00    +0.000 A 
ATOM      4  C   UNL     1       1.576   8.082  20.388  0.00  0.00    +0.000 A 
ATOM      5  N   UNL     1       1.231   9.087  21.292  0.00  0.00    +0.000 N 
ATOM      6  N   UNL     1       1.640   6.850  20.923  0.00  0.00    +0.000 NA
ATOM      7  C   UNL     1       1.956   5.815  20.125  0.00  0.00    +0.000 A 
ATOM      8  H   UNL     1       0.366   9.525  21.005  0.00  0.00    +0.000 HD
ATOM      9  H   UNL     1       1.102   8.613  22.186  0.00  0.00    +0.000 HD
ENDROOT
BRANCH   7  10
ATOM     10  N   UNL     1       2.052   4.588  20.777  0.00  0.00    +0.000 N 
ATOM     11  H   UNL     1       1.176   4.100  20.612  0.00  0.00    +0.000 HD
ATOM     12  H   UNL     1       2.846   4.045  20.464  0.00  0.00    +0.000 HD
ENDBRANCH   7  10
BRANCH   1  13
ATOM     13  C   UNL     1       2.582   4.807  17.864  0.00  0.00    +0.000 C 
BRANCH  13  16
ATOM     14  C   UNL     1       5.923   4.002  16.182  0.00  0.00    +0.000 A 
ATOM     15  C   UNL     1       4.552   4.150  16.430  0.00  0.00    +0.000 A 
ATOM     16  C   UNL     1       4.068   4.643  17.648  0.00  0.00    +0.000 A 
ATOM     17  C   UNL     1       4.997   4.957  18.653  0.00  0.00    +0.000 A 
ATOM     18  C   UNL     1       6.373   4.821  18.428  0.00  0.00    +0.000 A 
ATOM     19  C   UNL     1       6.834   4.343  17.191  0.00  0.00    +0.000 A 
BRANCH  14  21
ATOM     20  C   UNL     1       6.323   4.369  13.844  0.00  0.00    +0.000 C 
ATOM     21  O   UNL     1       6.175   3.483  14.941  0.00  0.00    +0.000 OA
ENDBRANCH  14  21
BRANCH  18  22
ATOM     22  O   UNL     1       7.162   5.086  19.521  0.00  0.00    +0.000 OA
ATOM     23  C   UNL     1       8.052   6.191  19.399  0.00  0.00    +0.000 C 
ENDBRANCH  18  22
BRANCH  19  24
ATOM     24  O   UNL     1       8.172   4.148  16.996  0.00  0.00    +0.000 OA
ATOM     25  H   UNL     1       8.398   3.374  17.545  0.00  0.00    +0.000 HD
ENDBRANCH  19  24
ENDBRANCH  13  16
ENDBRANCH   1  13
BRANCH   3  26
ATOM     26  C   UNL     1       1.866   9.739  18.463  0.00  0.00    +0.000 C 
BRANCH  26  27
ATOM     27  C   UNL     1       0.512  10.406  18.356  0.00  0.00    +0.000 A 
ATOM     28  C   UNL     1       0.314  11.672  18.927  0.00  0.00    +0.000 A 
ATOM     29  C   UNL     1      -0.948  12.262  18.921  0.00  0.00    +0.000 A 
ATOM     30  C   UNL     1      -2.007  11.595  18.289  0.00  0.00    +0.000 A 
ATOM     31  C   UNL     1      -1.828  10.356  17.662  0.00  0.00    +0.000 A 
ATOM     32  C   UNL     1      -0.562   9.762  17.712  0.00  0.00    +0.000 A 
BRANCH  29  33
ATOM     33  O   UNL     1      -1.269  13.464  19.502  0.00  0.00    +0.000 OA
ATOM     34  C   UNL     1      -1.223  13.513  20.924  0.00  0.00    +0.000 C 
ENDBRANCH  29  33
BRANCH  30  35
ATOM     35  O   UNL     1      -3.253  12.178  18.299  0.00  0.00    +0.000 OA
ATOM     36  H   UNL     1      -3.643  11.962  17.432  0.00  0.00    +0.000 HD
ENDBRANCH  30  35
BRANCH  31  37
ATOM     37  O   UNL     1      -2.929   9.816  17.056  0.00  0.00    +0.000 OA
ATOM     38  C   UNL     1      -2.961   9.805  15.636  0.00  0.00    +0.000 C 
ENDBRANCH  31  37
ENDBRANCH  26  27
ENDBRANCH   3  26
TORSDOF 11
ENDMDL
MODEL 4
REMARK VINA RESULT:      -8.1      0.559      9.049
REMARK  Name = 
REMARK  15 active torsions:
REMARK  status: ('A' for Active; 'I' for Inactive)
REMARK    1  A    between atoms: C_1  and  O_2
REMARK    2  A    between atoms: O_2  and  C_3
REMARK    3  A    between atoms: C_5  and  C_6
REMARK    4  A    between atoms: C_6  and  C_7
REMARK    5  A    between atoms: C_9  and  C_10
REMARK    6  A    between atoms: C_10  and  C_11
REMARK    7  A    between atoms: C_13  and  O_14
REMARK    8  A    between atoms: O_14  and  C_15
REMARK    9  A    between atoms: C_16  and  O_17
REMARK   10  A    between atoms: C_18  and  O_19
REMARK   11  A    between atoms: O_19  and  C_20
REMARK   12  A    between atoms: C_25  and  N_26
REMARK   13  A    between atoms: C_28  and  O_29
REMARK   14  A    between atoms: O_29  and  C_30
REMARK   15  A    between atoms: C_31  and  O_32
REMARK                            x       y       z     vdW  Elec       q    Type
REMARK                         _______ _______ _______ _____ _____    ______ ____
ROOT
ATOM      1  C   UNL     1       2.257   5.814  18.739  0.00  0.00    +0.000 A 
ATOM      2  C   UNL     1       2.182   7.098  18.184  0.00  0.00    +0.000 A 
ATOM      3  C   UNL     1       1.900   8.210  18.982  0.00  0.00    +0.000 A 
ATOM      4  C   UNL     1       1.651   7.970  20.331  0.00  0.00    +0.000 A 
ATOM      5  N   UNL     1       1.315   8.992  21.219  0.00  0.00    +0.000 N 
ATOM      6  N   UNL     1       1.715   6.748  20.888  0.00  0.00    +0.000 NA
ATOM      7  C   UNL     1       2.023   5.698  20.106  0.00  0.00    +0.000 A 
ATOM      8  H   UNL     1       0.450   9.428  20.930  0.00  0.00    +0.000 HD
ATOM      9  H   UNL     1       1.190   8.534  22.123  0.00  0.00    +0.000 HD
ENDROOT
BRANCH   7  10
ATOM     10  N   UNL     1       2.118   4.482  20.779  0.00  0.00    +0.000 N 
ATOM     11  H   UNL     1       2.921   4.554  21.399  0.00  0.00    +0.000 HD
ATOM     12  H   UNL     1       1.274   4.254  21.287  0.00  0.00    +0.000 HD
ENDBRANCH   7  10
BRANCH   1  13
ATOM     13  C   UNL     1       2.631   4.648  17.859  0.00  0.00    +0.000 C 
BRANCH  13  16
ATOM     14  C   UNL     1       6.429   4.733  18.315  0.00  0.00    +0.000 A 
ATOM     15  C   UNL     1       5.052   4.849  18.544  0.00  0.00    +0.000 A 
ATOM     16  C   UNL     1       4.107   4.530  17.561  0.00  0.00    +0.000 A 
ATOM     17  C   UNL     1       4.573   4.119  16.301  0.00  0.00    +0.000 A 
ATOM     18  C   UNL     1       5.945   3.992  16.049  0.00  0.00    +0.000 A 
ATOM     19  C   UNL     1       6.872   4.300  17.058  0.00  0.00    +0.000 A 
BRANCH  14  21
ATOM     20  C   UNL     1       8.041   6.231  19.272  0.00  0.00    +0.000 C 
ATOM     21  O   UNL     1       7.171   5.119  19.398  0.00  0.00    +0.000 OA
ENDBRANCH  14  21
BRANCH  18  22
ATOM     22  O   UNL     1       6.261   3.661  14.753  0.00  0.00    +0.000 OA
ATOM     23  C   UNL     1       6.659   4.738  13.910  0.00  0.00    +0.000 C 
ENDBRANCH  18  22
BRANCH  19  24
ATOM     24  O   UNL     1       8.210   4.240  16.789  0.00  0.00    +0.000 OA
ATOM     25  H   UNL     1       8.646   4.568  17.598  0.00  0.00    +0.000 HD
ENDBRANCH  19  24
ENDBRANCH  13  16
ENDBRANCH   1  13
BRANCH   3  26
ATOM     26  C   UNL     1       1.935   9.592  18.375  0.00  0.00    +0.000 C 
BRANCH  26  27
ATOM     27  C   UNL     1       0.608  10.319  18.398  0.00  0.00    +0.000 A 
ATOM     28  C   UNL     1      -0.519   9.725  17.810  0.00  0.00    +0.000 A 
ATOM     29  C   UNL     1      -1.727  10.415  17.738  0.00  0.00    +0.000 A 
ATOM     30  C   UNL     1      -1.814  11.693  18.309  0.00  0.00    +0.000 A 
ATOM     31  C   UNL     1      -0.722  12.289  18.951  0.00  0.00    +0.000 A 
ATOM     32  C   UNL     1       0.493  11.596  18.979  0.00  0.00    +0.000 A 
BRANCH  29  33
ATOM     33  O   UNL     1      -2.872   9.959  17.134  0.00  0.00    +0.000 OA
ATOM     34  C   UNL     1      -2.844   9.863  15.714  0.00  0.00    +0.000 C 
ENDBRANCH  29  33
BRANCH  30  35
ATOM     35  O   UNL     1      -3.006  12.374  18.222  0.00  0.00    +0.000 OA
ATOM     36  H   UNL     1      -2.867  13.047  17.532  0.00  0.00    +0.000 HD
ENDBRANCH  30  35
BRANCH  31  37
ATOM     37  O   UNL     1      -0.936  13.527  19.493  0.00  0.00    +0.000 OA
ATOM     38  C   UNL     1      -0.318  14.639  18.863  0.00  0.00    +0.000 C 
ENDBRANCH  31  37
ENDBRANCH  26  27
ENDBRANCH   3  26
TORSDOF 11
ENDMDL
MODEL 5
REMARK VINA RESULT:      -8.0      0.509      9.238
REMARK  Name = 
REMARK  15 active torsions:
REMARK  status: ('A' for Active; 'I' for Inactive)
REMARK    1  A    between atoms: C_1  and  O_2
REMARK    2  A    between atoms: O_2  and  C_3
REMARK    3  A    between atoms: C_5  and  C_6
REMARK    4  A    between atoms: C_6  and  C_7
REMARK    5  A    between atoms: C_9  and  C_10
REMARK    6  A    between atoms: C_10  and  C_11
REMARK    7  A    between atoms: C_13  and  O_14
REMARK    8  A    between atoms: O_14  and  C_15
REMARK    9  A    between atoms: C_16  and  O_17
REMARK   10  A    between atoms: C_18  and  O_19
REMARK   11  A    between atoms: O_19  and  C_20
REMARK   12  A    between atoms: C_25  and  N_26
REMARK   13  A    between atoms: C_28  and  O_29
REMARK   14  A    between atoms: O_29  and  C_30
REMARK   15  A    between atoms: C_31  and  O_32
REMARK                            x       y       z     vdW  Elec       q    Type
REMARK                         _______ _______ _______ _____ _____    ______ ____
ROOT
ATOM      1  C   UNL     1       2.222   5.907  18.707  0.00  0.00    +0.000 A 
ATOM      2  C   UNL     1       2.169   7.206  18.188  0.00  0.00    +0.000 A 
ATOM      3  C   UNL     1       1.883   8.299  19.013  0.00  0.00    +0.000 A 
ATOM      4  C   UNL     1       1.609   8.022  20.350  0.00  0.00    +0.000 A 
ATOM      5  N   UNL     1       1.268   9.021  21.262  0.00  0.00    +0.000 N 
ATOM      6  N   UNL     1       1.651   6.784  20.872  0.00  0.00    +0.000 NA
ATOM      7  C   UNL     1       1.963   5.753  20.066  0.00  0.00    +0.000 A 
ATOM      8  H   UNL     1       0.412   9.474  20.970  0.00  0.00    +0.000 HD
ATOM      9  H   UNL     1       1.122   8.539  22.149  0.00  0.00    +0.000 HD
ENDROOT
BRANCH   7  10
ATOM     10  N   UNL     1       2.035   4.518  20.704  0.00  0.00    +0.000 N 
ATOM     11  H   UNL     1       1.492   4.599  21.560  0.00  0.00    +0.000 HD
ATOM     12  H   UNL     1       1.702   3.762  20.122  0.00  0.00    +0.000 HD
ENDBRANCH   7  10
BRANCH   1  13
ATOM     13  C   UNL     1       2.600   4.763  17.800  0.00  0.00    +0.000 C 
BRANCH  13  16
ATOM     14  C   UNL     1       6.368   4.710  18.460  0.00  0.00    +0.000 A 
ATOM     15  C   UNL     1       4.986   4.872  18.616  0.00  0.00    +0.000 A 
ATOM     16  C   UNL     1       4.085   4.595  17.580  0.00  0.00    +0.000 A 
ATOM     17  C   UNL     1       4.604   4.180  16.343  0.00  0.00    +0.000 A 
ATOM     18  C   UNL     1       5.982   4.006  16.163  0.00  0.00    +0.000 A 
ATOM     19  C   UNL     1       6.863   4.273  17.224  0.00  0.00    +0.000 A 
BRANCH  14  21
ATOM     20  C   UNL     1       8.068   6.056  19.489  0.00  0.00    +0.000 C 
ATOM     21  O   UNL     1       7.064   5.060  19.585  0.00  0.00    +0.000 OA
ENDBRANCH  14  21
BRANCH  18  22
ATOM     22  O   UNL     1       6.356   3.676  14.883  0.00  0.00    +0.000 OA
ATOM     23  C   UNL     1       5.512   4.153  13.840  0.00  0.00    +0.000 C 
ENDBRANCH  18  22
BRANCH  19  24
ATOM     24  O   UNL     1       8.211   4.168  17.027  0.00  0.00    +0.000 OA
ATOM     25  H   UNL     1       8.351   3.255  16.711  0.00  0.00    +0.000 HD
ENDBRANCH  19  24
ENDBRANCH  13  16
ENDBRANCH   1  13
BRANCH   3  26
ATOM     26  C   UNL     1       1.943   9.697  18.447  0.00  0.00    +0.000 C 
BRANCH  26  27
ATOM     27  C   UNL     1       0.598  10.380  18.327  0.00  0.00    +0.000 A 
ATOM     28  C   UNL     1       0.433  11.681  18.826  0.00  0.00    +0.000 A 
ATOM     29  C   UNL     1      -0.818  12.292  18.810  0.00  0.00    +0.000 A 
ATOM     30  C   UNL     1      -1.901  11.608  18.238  0.00  0.00    +0.000 A 
ATOM     31  C   UNL     1      -1.755  10.332  17.682  0.00  0.00    +0.000 A 
ATOM     32  C   UNL     1      -0.499   9.720  17.743  0.00  0.00    +0.000 A 
BRANCH  29  33
ATOM     33  O   UNL     1      -1.108  13.531  19.325  0.00  0.00    +0.000 OA
ATOM     34  C   UNL     1      -0.245  14.596  18.937  0.00  0.00    +0.000 C 
ENDBRANCH  29  33
BRANCH  30  35
ATOM     35  O   UNL     1      -3.137  12.214  18.237  0.00  0.00    +0.000 OA
ATOM     36  H   UNL     1      -2.975  13.125  18.543  0.00  0.00    +0.000 HD
ENDBRANCH  30  35
BRANCH  31  37
ATOM     37  O   UNL     1      -2.878   9.777  17.129  0.00  0.00    +0.000 OA
ATOM     38  C   UNL     1      -3.010   9.826  15.717  0.00  0.00    +0.000 C 
ENDBRANCH  31  37
ENDBRANCH  26  27
ENDBRANCH   3  26
TORSDOF 11
ENDMDL
MODEL 6
REMARK VINA RESULT:      -8.0      0.438      9.294
REMARK  Name = 
REMARK  15 active torsions:
REMARK  status: ('A' for Active; 'I' for Inactive)
REMARK    1  A    between atoms: C_1  and  O_2
REMARK    2  A    between atoms: O_2  and  C_3
REMARK    3  A    between atoms: C_5  and  C_6
REMARK    4  A    between atoms: C_6  and  C_7
REMARK    5  A    between atoms: C_9  and  C_10
REMARK    6  A    between atoms: C_10  and  C_11
REMARK    7  A    between atoms: C_13  and  O_14
REMARK    8  A    between atoms: O_14  and  C_15
REMARK    9  A    between atoms: C_16  and  O_17
REMARK   10  A    between atoms: C_18  and  O_19
REMARK   11  A    between atoms: O_19  and  C_20
REMARK   12  A    between atoms: C_25  and  N_26
REMARK   13  A    between atoms: C_28  and  O_29
REMARK   14  A    between atoms: O_29  and  C_30
REMARK   15  A    between atoms: C_31  and  O_32
REMARK                            x       y       z     vdW  Elec       q    Type
REMARK                         _______ _______ _______ _____ _____    ______ ____
ROOT
ATOM      1  C   UNL     1       2.210   5.945  18.719  0.00  0.00    +0.000 A 
ATOM      2  C   UNL     1       2.066   7.221  18.162  0.00  0.00    +0.000 A 
ATOM      3  C   UNL     1       1.771   8.327  18.965  0.00  0.00    +0.000 A 
ATOM      4  C   UNL     1       1.581   8.086  20.323  0.00  0.00    +0.000 A 
ATOM      5  N   UNL     1       1.240   9.099  21.219  0.00  0.00    +0.000 N 
ATOM      6  N   UNL     1       1.712   6.870  20.883  0.00  0.00    +0.000 NA
ATOM      7  C   UNL     1       2.030   5.827  20.095  0.00  0.00    +0.000 A 
ATOM      8  H   UNL     1       0.349   9.501  20.959  0.00  0.00    +0.000 HD
ATOM      9  H   UNL     1       1.165   8.642  22.128  0.00  0.00    +0.000 HD
ENDROOT
BRANCH   7  10
ATOM     10  N   UNL     1       2.196   4.620  20.769  0.00  0.00    +0.000 N 
ATOM     11  H   UNL     1       1.272   4.208  20.862  0.00  0.00    +0.000 HD
ATOM     12  H   UNL     1       2.836   3.997  20.295  0.00  0.00    +0.000 HD
ENDBRANCH   7  10
BRANCH   1  13
ATOM     13  C   UNL     1       2.595   4.788  17.832  0.00  0.00    +0.000 C 
BRANCH  13  16
ATOM     14  C   UNL     1       5.913   4.060  16.070  0.00  0.00    +0.000 A 
ATOM     15  C   UNL     1       4.545   4.184  16.348  0.00  0.00    +0.000 A 
ATOM     16  C   UNL     1       4.079   4.650  17.583  0.00  0.00    +0.000 A 
ATOM     17  C   UNL     1       5.023   4.962  18.575  0.00  0.00    +0.000 A 
ATOM     18  C   UNL     1       6.396   4.851  18.319  0.00  0.00    +0.000 A 
ATOM     19  C   UNL     1       6.839   4.399  17.066  0.00  0.00    +0.000 A 
BRANCH  14  21
ATOM     20  C   UNL     1       6.594   4.449  13.802  0.00  0.00    +0.000 C 
ATOM     21  O   UNL     1       6.147   3.565  14.816  0.00  0.00    +0.000 OA
ENDBRANCH  14  21
BRANCH  18  22
ATOM     22  O   UNL     1       7.203   5.111  19.401  0.00  0.00    +0.000 OA
ATOM     23  C   UNL     1       8.035   6.263  19.300  0.00  0.00    +0.000 C 
ENDBRANCH  18  22
BRANCH  19  24
ATOM     24  O   UNL     1       8.176   4.228  16.841  0.00  0.00    +0.000 OA
ATOM     25  H   UNL     1       8.284   3.273  16.673  0.00  0.00    +0.000 HD
ENDBRANCH  19  24
ENDBRANCH  13  16
ENDBRANCH   1  13
BRANCH   3  26
ATOM     26  C   UNL     1       1.732   9.706  18.351  0.00  0.00    +0.000 C 
BRANCH  26  27
ATOM     27  C   UNL     1       0.378  10.379  18.412  0.00  0.00    +0.000 A 
ATOM     28  C   UNL     1      -0.711   9.811  17.735  0.00  0.00    +0.000 A 
ATOM     29  C   UNL     1      -1.942  10.462  17.701  0.00  0.00    +0.000 A 
ATOM     30  C   UNL     1      -2.091  11.669  18.399  0.00  0.00    +0.000 A 
ATOM     31  C   UNL     1      -1.039  12.232  19.130  0.00  0.00    +0.000 A 
ATOM     32  C   UNL     1       0.201  11.582  19.119  0.00  0.00    +0.000 A 
BRANCH  29  33
ATOM     33  O   UNL     1      -3.054  10.032  17.021  0.00  0.00    +0.000 OA
ATOM     34  C   UNL     1      -2.879   9.743  15.638  0.00  0.00    +0.000 C 
ENDBRANCH  29  33
BRANCH  30  35
ATOM     35  O   UNL     1      -3.306  12.313  18.351  0.00  0.00    +0.000 OA
ATOM     36  H   UNL     1      -3.659  12.260  19.258  0.00  0.00    +0.000 HD
ENDBRANCH  30  35
BRANCH  31  37
ATOM     37  O   UNL     1      -1.313  13.398  19.792  0.00  0.00    +0.000 OA
ATOM     38  C   UNL     1      -0.367  13.851  20.749  0.00  0.00    +0.000 C 
ENDBRANCH  31  37
ENDBRANCH  26  27
ENDBRANCH   3  26
TORSDOF 11
ENDMDL
MODEL 7
REMARK VINA RESULT:      -8.0      1.027      3.172
REMARK  Name = 
REMARK  15 active torsions:
REMARK  status: ('A' for Active; 'I' for Inactive)
REMARK    1  A    between atoms: C_1  and  O_2
REMARK    2  A    between atoms: O_2  and  C_3
REMARK    3  A    between atoms: C_5  and  C_6
REMARK    4  A    between atoms: C_6  and  C_7
REMARK    5  A    between atoms: C_9  and  C_10
REMARK    6  A    between atoms: C_10  and  C_11
REMARK    7  A    between atoms: C_13  and  O_14
REMARK    8  A    between atoms: O_14  and  C_15
REMARK    9  A    between atoms: C_16  and  O_17
REMARK   10  A    between atoms: C_18  and  O_19
REMARK   11  A    between atoms: O_19  and  C_20
REMARK   12  A    between atoms: C_25  and  N_26
REMARK   13  A    between atoms: C_28  and  O_29
REMARK   14  A    between atoms: O_29  and  C_30
REMARK   15  A    between atoms: C_31  and  O_32
REMARK                            x       y       z     vdW  Elec       q    Type
REMARK                         _______ _______ _______ _____ _____    ______ ____
ROOT
ATOM      1  C   UNL     1       1.777   8.746  18.958  0.00  0.00    +0.000 A 
ATOM      2  C   UNL     1       2.209   7.645  18.207  0.00  0.00    +0.000 A 
ATOM      3  C   UNL     1       2.349   6.385  18.796  0.00  0.00    +0.000 A 
ATOM      4  C   UNL     1       2.089   6.296  20.161  0.00  0.00    +0.000 A 
ATOM      5  N   UNL     1       2.237   5.103  20.870  0.00  0.00    +0.000 N 
ATOM      6  N   UNL     1       1.676   7.337  20.904  0.00  0.00    +0.000 NA
ATOM      7  C   UNL     1       1.514   8.532  20.308  0.00  0.00    +0.000 A 
ATOM      8  H   UNL     1       3.199   4.796  20.829  0.00  0.00    +0.000 HD
ATOM      9  H   UNL     1       1.984   5.329  21.833  0.00  0.00    +0.000 HD
ENDROOT
BRANCH   7  10
ATOM     10  N   UNL     1       1.032   9.536  21.143  0.00  0.00    +0.000 N 
ATOM     11  H   UNL     1       0.187   9.175  21.578  0.00  0.00    +0.000 HD
ATOM     12  H   UNL     1       1.712   9.825  21.833  0.00  0.00    +0.000 HD
ENDBRANCH   7  10
BRANCH   1  13
ATOM     13  C   UNL     1       1.572  10.074  18.273  0.00  0.00    +0.000 C 
BRANCH  13  16
ATOM     14  C   UNL     1      -2.193  10.384  17.667  0.00  0.00    +0.000 A 
ATOM     15  C   UNL     1      -0.865   9.942  17.628  0.00  0.00    +0.000 A 
ATOM     16  C   UNL     1       0.156  10.599  18.325  0.00  0.00    +0.000 A 
ATOM     17  C   UNL     1      -0.173  11.757  19.049  0.00  0.00    +0.000 A 
ATOM     18  C   UNL     1      -1.496  12.216  19.107  0.00  0.00    +0.000 A 
ATOM     19  C   UNL     1      -2.504  11.528  18.414  0.00  0.00    +0.000 A 
BRANCH  14  21
ATOM     20  C   UNL     1      -3.135   9.900  15.513  0.00  0.00    +0.000 C 
ATOM     21  O   UNL     1      -3.022   9.613  16.897  0.00  0.00    +0.000 OA
ENDBRANCH  14  21
BRANCH  18  22
ATOM     22  O   UNL     1      -1.661  13.402  19.782  0.00  0.00    +0.000 OA
ATOM     23  C   UNL     1      -1.910  13.297  21.181  0.00  0.00    +0.000 C 
ENDBRANCH  18  22
BRANCH  19  24
ATOM     24  O   UNL     1      -3.781  12.016  18.416  0.00  0.00    +0.000 OA
ATOM     25  H   UNL     1      -4.252  11.496  17.738  0.00  0.00    +0.000 HD
ENDBRANCH  19  24
ENDBRANCH  13  16
ENDBRANCH   1  13
BRANCH   3  26
ATOM     26  C   UNL     1       2.710   5.196  17.937  0.00  0.00    +0.000 C 
BRANCH  26  27
ATOM     27  C   UNL     1       4.068   5.291  17.277  0.00  0.00    +0.000 A 
ATOM     28  C   UNL     1       4.919   6.363  17.589  0.00  0.00    +0.000 A 
ATOM     29  C   UNL     1       6.132   6.519  16.925  0.00  0.00    +0.000 A 
ATOM     30  C   UNL     1       6.517   5.561  15.977  0.00  0.00    +0.000 A 
ATOM     31  C   UNL     1       5.715   4.451  15.684  0.00  0.00    +0.000 A 
ATOM     32  C   UNL     1       4.482   4.332  16.334  0.00  0.00    +0.000 A 
BRANCH  29  33
ATOM     33  O   UNL     1       7.012   7.558  17.104  0.00  0.00    +0.000 OA
ATOM     34  C   UNL     1       7.928   7.433  18.187  0.00  0.00    +0.000 C 
ENDBRANCH  29  33
BRANCH  30  35
ATOM     35  O   UNL     1       7.712   5.729  15.316  0.00  0.00    +0.000 OA
ATOM     36  H   UNL     1       8.291   5.021  15.651  0.00  0.00    +0.000 HD
ENDBRANCH  30  35
BRANCH  31  37
ATOM     37  O   UNL     1       6.209   3.570  14.761  0.00  0.00    +0.000 OA
ATOM     38  C   UNL     1       5.814   3.742  13.408  0.00  0.00    +0.000 C 
ENDBRANCH  31  37
ENDBRANCH  26  27
ENDBRANCH   3  26
TORSDOF 11
ENDMDL
MODEL 8
REMARK VINA RESULT:      -8.0      1.171      2.460
REMARK  Name = 
REMARK  15 active torsions:
REMARK  status: ('A' for Active; 'I' for Inactive)
REMARK    1  A    between atoms: C_1  and  O_2
REMARK    2  A    between atoms: O_2  and  C_3
REMARK    3  A    between atoms: C_5  and  C_6
REMARK    4  A    between atoms: C_6  and  C_7
REMARK    5  A    between atoms: C_9  and  C_10
REMARK    6  A    between atoms: C_10  and  C_11
REMARK    7  A    between atoms: C_13  and  O_14
REMARK    8  A    between atoms: O_14  and  C_15
REMARK    9  A    between atoms: C_16  and  O_17
REMARK   10  A    between atoms: C_18  and  O_19
REMARK   11  A    between atoms: O_19  and  C_20
REMARK   12  A    between atoms: C_25  and  N_26
REMARK   13  A    between atoms: C_28  and  O_29
REMARK   14  A    between atoms: O_29  and  C_30
REMARK   15  A    between atoms: C_31  and  O_32
REMARK                            x       y       z     vdW  Elec       q    Type
REMARK                         _______ _______ _______ _____ _____    ______ ____
ROOT
ATOM      1  C   UNL     1       1.629   8.728  19.028  0.00  0.00    +0.000 A 
ATOM      2  C   UNL     1       2.079   7.645  18.262  0.00  0.00    +0.000 A 
ATOM      3  C   UNL     1       2.302   6.394  18.847  0.00  0.00    +0.000 A 
ATOM      4  C   UNL     1       2.104   6.299  20.222  0.00  0.00    +0.000 A 
ATOM      5  N   UNL     1       2.336   5.118  20.927  0.00  0.00    +0.000 N 
ATOM      6  N   UNL     1       1.675   7.324  20.980  0.00  0.00    +0.000 NA
ATOM      7  C   UNL     1       1.434   8.507  20.388  0.00  0.00    +0.000 A 
ATOM      8  H   UNL     1       3.309   4.854  20.845  0.00  0.00    +0.000 HD
ATOM      9  H   UNL     1       2.114   5.335  21.899  0.00  0.00    +0.000 HD
ENDROOT
BRANCH   7  10
ATOM     10  N   UNL     1       0.942   9.492  21.241  0.00  0.00    +0.000 N 
ATOM     11  H   UNL     1       0.226   9.053  21.813  0.00  0.00    +0.000 HD
ATOM     12  H   UNL     1       1.668   9.910  21.808  0.00  0.00    +0.000 HD
ENDBRANCH   7  10
BRANCH   1  13
ATOM     13  C   UNL     1       1.334  10.042  18.350  0.00  0.00    +0.000 C 
BRANCH  13  16
ATOM     14  C   UNL     1      -2.332  10.132  17.260  0.00  0.00    +0.000 A 
ATOM     15  C   UNL     1      -0.965   9.833  17.331  0.00  0.00    +0.000 A 
ATOM     16  C   UNL     1      -0.130  10.410  18.295  0.00  0.00    +0.000 A 
ATOM     17  C   UNL     1      -0.688  11.342  19.186  0.00  0.00    +0.000 A 
ATOM     18  C   UNL     1      -2.053  11.653  19.137  0.00  0.00    +0.000 A 
ATOM     19  C   UNL     1      -2.874  11.047  18.172  0.00  0.00    +0.000 A 
BRANCH  14  21
ATOM     20  C   UNL     1      -3.050  10.120  14.970  0.00  0.00    +0.000 C 
ATOM     21  O   UNL     1      -2.955   9.479  16.230  0.00  0.00    +0.000 OA
ENDBRANCH  14  21
BRANCH  18  22
ATOM     22  O   UNL     1      -2.448  12.638  20.011  0.00  0.00    +0.000 OA
ATOM     23  C   UNL     1      -2.093  12.443  21.376  0.00  0.00    +0.000 C 
ENDBRANCH  18  22
BRANCH  19  24
ATOM     24  O   UNL     1      -4.190  11.402  18.083  0.00  0.00    +0.000 OA
ATOM     25  H   UNL     1      -4.685  10.614  18.374  0.00  0.00    +0.000 HD
ENDBRANCH  19  24
ENDBRANCH  13  16
ENDBRANCH   1  13
BRANCH   3  26
ATOM     26  C   UNL     1       2.680   5.220  17.976  0.00  0.00    +0.000 C 
BRANCH  26  27
ATOM     27  C   UNL     1       3.993   5.383  17.243  0.00  0.00    +0.000 A 
ATOM     28  C   UNL     1       4.391   4.415  16.307  0.00  0.00    +0.000 A 
ATOM     29  C   UNL     1       5.636   4.497  15.691  0.00  0.00    +0.000 A 
ATOM     30  C   UNL     1       6.467   5.589  15.978  0.00  0.00    +0.000 A 
ATOM     31  C   UNL     1       6.075   6.599  16.865  0.00  0.00    +0.000 A 
ATOM     32  C   UNL     1       4.836   6.479  17.504  0.00  0.00    +0.000 A 
BRANCH  29  33
ATOM     33  O   UNL     1       6.152   3.579  14.810  0.00  0.00    +0.000 OA
ATOM     34  C   UNL     1       5.794   3.743  13.442  0.00  0.00    +0.000 C 
ENDBRANCH  29  33
BRANCH  30  35
ATOM     35  O   UNL     1       7.701   5.656  15.374  0.00  0.00    +0.000 OA
ATOM     36  H   UNL     1       7.583   6.260  14.618  0.00  0.00    +0.000 HD
ENDBRANCH  30  35
BRANCH  31  37
ATOM     37  O   UNL     1       6.959   7.628  17.045  0.00  0.00    +0.000 OA
ATOM     38  C   UNL     1       7.878   7.527  18.122  0.00  0.00    +0.000 C 
ENDBRANCH  31  37
ENDBRANCH  26  27
ENDBRANCH   3  26
TORSDOF 11
ENDMDL
MODEL 9
REMARK VINA RESULT:      -7.9      1.112      9.113
REMARK  Name = 
REMARK  15 active torsions:
REMARK  status: ('A' for Active; 'I' for Inactive)
REMARK    1  A    between atoms: C_1  and  O_2
REMARK    2  A    between atoms: O_2  and  C_3
REMARK    3  A    between atoms: C_5  and  C_6
REMARK    4  A    between atoms: C_6  and  C_7
REMARK    5  A    between atoms: C_9  and  C_10
REMARK    6  A    between atoms: C_10  and  C_11
REMARK    7  A    between atoms: C_13  and  O_14
REMARK    8  A    between atoms: O_14  and  C_15
REMARK    9  A    between atoms: C_16  and  O_17
REMARK   10  A    between atoms: C_18  and  O_19
REMARK   11  A    between atoms: O_19  and  C_20
REMARK   12  A    between atoms: C_25  and  N_26
REMARK   13  A    between atoms: C_28  and  O_29
REMARK   14  A    between atoms: O_29  and  C_30
REMARK   15  A    between atoms: C_31  and  O_32
REMARK                            x       y       z     vdW  Elec       q    Type
REMARK                         _______ _______ _______ _____ _____    ______ ____
ROOT
ATOM      1  C   UNL     1       2.514   5.875  18.692  0.00  0.00    +0.000 A 
ATOM      2  C   UNL     1       2.373   7.142  18.112  0.00  0.00    +0.000 A 
ATOM      3  C   UNL     1       1.977   8.243  18.878  0.00  0.00    +0.000 A 
ATOM      4  C   UNL     1       1.687   8.004  20.219  0.00  0.00    +0.000 A 
ATOM      5  N   UNL     1       1.241   9.012  21.075  0.00  0.00    +0.000 N 
ATOM      6  N   UNL     1       1.813   6.797  20.799  0.00  0.00    +0.000 NA
ATOM      7  C   UNL     1       2.229   5.761  20.049  0.00  0.00    +0.000 A 
ATOM      8  H   UNL     1       0.360   9.381  20.741  0.00  0.00    +0.000 HD
ATOM      9  H   UNL     1       1.109   8.558  21.979  0.00  0.00    +0.000 HD
ENDROOT
BRANCH   7  10
ATOM     10  N   UNL     1       2.381   4.565  20.746  0.00  0.00    +0.000 N 
ATOM     11  H   UNL     1       3.182   4.089  20.339  0.00  0.00    +0.000 HD
ATOM     12  H   UNL     1       2.498   4.709  21.740  0.00  0.00    +0.000 HD
ENDBRANCH   7  10
BRANCH   1  13
ATOM     13  C   UNL     1       3.008   4.726  17.849  0.00  0.00    +0.000 C 
BRANCH  13  16
ATOM     14  C   UNL     1       5.869   4.365  15.334  0.00  0.00    +0.000 A 
ATOM     15  C   UNL     1       4.703   4.133  16.075  0.00  0.00    +0.000 A 
ATOM     16  C   UNL     1       4.284   5.003  17.089  0.00  0.00    +0.000 A 
ATOM     17  C   UNL     1       5.089   6.117  17.383  0.00  0.00    +0.000 A 
ATOM     18  C   UNL     1       6.257   6.372  16.653  0.00  0.00    +0.000 A 
ATOM     19  C   UNL     1       6.645   5.494  15.628  0.00  0.00    +0.000 A 
BRANCH  14  21
ATOM     20  C   UNL     1       5.925   3.673  13.037  0.00  0.00    +0.000 C 
ATOM     21  O   UNL     1       6.105   3.381  14.413  0.00  0.00    +0.000 OA
ENDBRANCH  14  21
BRANCH  18  22
ATOM     22  O   UNL     1       6.988   7.447  17.099  0.00  0.00    +0.000 OA
ATOM     23  C   UNL     1       7.832   7.208  18.222  0.00  0.00    +0.000 C 
ENDBRANCH  18  22
BRANCH  19  24
ATOM     24  O   UNL     1       7.819   5.708  14.963  0.00  0.00    +0.000 OA
ATOM     25  H   UNL     1       8.005   6.659  15.076  0.00  0.00    +0.000 HD
ENDBRANCH  19  24
ENDBRANCH  13  16
ENDBRANCH   1  13
BRANCH   3  26
ATOM     26  C   UNL     1       1.941   9.615  18.250  0.00  0.00    +0.000 C 
BRANCH  26  27
ATOM     27  C   UNL     1       0.584  10.283  18.286  0.00  0.00    +0.000 A 
ATOM     28  C   UNL     1      -0.529   9.625  17.741  0.00  0.00    +0.000 A 
ATOM     29  C   UNL     1      -1.767  10.260  17.680  0.00  0.00    +0.000 A 
ATOM     30  C   UNL     1      -1.897  11.547  18.220  0.00  0.00    +0.000 A 
ATOM     31  C   UNL     1      -0.819  12.207  18.820  0.00  0.00    +0.000 A 
ATOM     32  C   UNL     1       0.426  11.569  18.836  0.00  0.00    +0.000 A 
BRANCH  29  33
ATOM     33  O   UNL     1      -2.904   9.738  17.115  0.00  0.00    +0.000 OA
ATOM     34  C   UNL     1      -2.959   9.729  15.693  0.00  0.00    +0.000 C 
ENDBRANCH  29  33
BRANCH  30  35
ATOM     35  O   UNL     1      -3.121  12.173  18.145  0.00  0.00    +0.000 OA
ATOM     36  H   UNL     1      -3.341  12.190  17.196  0.00  0.00    +0.000 HD
ENDBRANCH  30  35
BRANCH  31  37
ATOM     37  O   UNL     1      -1.075  13.449  19.335  0.00  0.00    +0.000 OA
ATOM     38  C   UNL     1      -1.080  13.589  20.748  0.00  0.00    +0.000 C 
ENDBRANCH  31  37
ENDBRANCH  26  27
ENDBRANCH   3  26
TORSDOF 11
ENDMDL
