MODEL 1
REMARK VINA RESULT:      -7.5      0.000      0.000
REMARK  Name = 
REMARK  6 active torsions:
REMARK  status: ('A' for Active; 'I' for Inactive)
REMARK    1  A    between atoms: C_1  and  C_2
REMARK    2  A    between atoms: C_5  and  N_6
REMARK    3  A    between atoms: C_7  and  C_9
REMARK    4  A    between atoms: C_17  and  C_18
REMARK    5  A    between atoms: N_20  and  C_21
REMARK    6  A    between atoms: C_24  and  C_25
REMARK                            x       y       z     vdW  Elec       q    Type
REMARK                         _______ _______ _______ _____ _____    ______ ____
ROOT
ATOM      1  C   UNL     1       2.710  12.376  17.940  0.00  0.00    +0.000 C 
ATOM      2  C   UNL     1       1.431  12.534  18.711  0.00  0.00    +0.000 A 
ATOM      3  C   UNL     1       1.039  13.838  19.061  0.00  0.00    +0.000 A 
ATOM      4  C   UNL     1      -0.140  14.083  19.772  0.00  0.00    +0.000 A 
ATOM      5  C   UNL     1      -0.968  13.035  20.160  0.00  0.00    +0.000 A 
ATOM      6  C   UNL     1      -0.614  11.738  19.781  0.00  0.00    +0.000 A 
ATOM      7  C   UNL     1       0.591  11.471  19.088  0.00  0.00    +0.000 A 
ENDROOT
BRANCH   5   8
ATOM      8  N   UNL     1      -2.141  13.207  20.938  0.00  0.00    +0.000 N 
ATOM      9  C   UNL     1      -2.216  13.061  22.314  0.00  0.00    +0.000 C 
ATOM     10  O   UNL     1      -1.283  12.775  23.059  0.00  0.00    +0.000 OA
ATOM     11  H   UNL     1      -3.010  13.271  20.423  0.00  0.00    +0.000 HD
BRANCH   9  12
ATOM     12  C   UNL     1      -3.567  13.194  22.934  0.00  0.00    +0.000 A 
ATOM     13  C   UNL     1      -4.463  14.107  22.345  0.00  0.00    +0.000 A 
ATOM     14  C   UNL     1      -5.762  14.245  22.837  0.00  0.00    +0.000 A 
ATOM     15  C   UNL     1      -6.175  13.468  23.914  0.00  0.00    +0.000 A 
ATOM     16 CL   UNL     1      -7.785  13.613  24.502  0.00  0.00    +0.000 Cl
ATOM     17  C   UNL     1      -5.294  12.559  24.510  0.00  0.00    +0.000 A 
ATOM     18  C   UNL     1      -3.988  12.422  24.020  0.00  0.00    +0.000 A 
ENDBRANCH   9  12
ENDBRANCH   5   8
BRANCH   7  19
ATOM     19  C   UNL     1       0.822  10.028  18.773  0.00  0.00    +0.000 C 
ATOM     20  O   UNL     1       0.179   9.557  17.840  0.00  0.00    +0.000 OA
ATOM     21  N   UNL     1       1.659   9.315  19.619  0.00  0.00    +0.000 N 
ATOM     22  H   UNL     1       1.998   9.786  20.445  0.00  0.00    +0.000 HD
BRANCH  21  23
ATOM     23  C   UNL     1       1.926   7.921  19.528  0.00  0.00    +0.000 A 
ATOM     24  C   UNL     1       1.585   7.001  20.514  0.00  0.00    +0.000 A 
ATOM     25  C   UNL     1       1.928   5.656  20.372  0.00  0.00    +0.000 A 
ATOM     26  C   UNL     1       2.610   5.252  19.233  0.00  0.00    +0.000 A 
ATOM     27  N   UNL     1       2.940   6.108  18.232  0.00  0.00    +0.000 NA
ATOM     28  C   UNL     1       2.582   7.411  18.405  0.00  0.00    +0.000 A 
BRANCH  26  29
ATOM     29  C   UNL     1       3.021   3.860  19.070  0.00  0.00    +0.000 A 
ATOM     30  N   UNL     1       2.536   2.971  18.218  0.00  0.00    +0.000 NA
ATOM     31  C   UNL     1       3.216   1.804  18.453  0.00  0.00    +0.000 A 
ATOM     32  C   UNL     1       4.131   1.973  19.463  0.00  0.00    +0.000 A 
ATOM     33  N   UNL     1       4.001   3.279  19.840  0.00  0.00    +0.000 N 
ATOM     34  H   UNL     1       4.512   3.774  20.562  0.00  0.00    +0.000 HD
ENDBRANCH  26  29
ENDBRANCH  21  23
ENDBRANCH   7  19
TORSDOF 5
ENDMDL
MODEL 2
REMARK VINA RESULT:      -7.5      5.388     11.831
REMARK  Name = 
REMARK  6 active torsions:
REMARK  status: ('A' for Active; 'I' for Inactive)
REMARK    1  A    between atoms: C_1  and  C_2
REMARK    2  A    between atoms: C_5  and  N_6
REMARK    3  A    between atoms: C_7  and  C_9
REMARK    4  A    between atoms: C_17  and  C_18
REMARK    5  A    between atoms: N_20  and  C_21
REMARK    6  A    between atoms: C_24  and  C_25
REMARK                            x       y       z     vdW  Elec       q    Type
REMARK                         _______ _______ _______ _____ _____    ______ ____
ROOT
ATOM      1  C   UNL     1       2.129   2.888  22.010  0.00  0.00    +0.000 C 
ATOM      2  C   UNL     1       2.755   3.081  20.659  0.00  0.00    +0.000 A 
ATOM      3  C   UNL     1       3.531   2.027  20.145  0.00  0.00    +0.000 A 
ATOM      4  C   UNL     1       4.146   2.113  18.892  0.00  0.00    +0.000 A 
ATOM      5  C   UNL     1       4.011   3.255  18.109  0.00  0.00    +0.000 A 
ATOM      6  C   UNL     1       3.208   4.293  18.588  0.00  0.00    +0.000 A 
ATOM      7  C   UNL     1       2.603   4.233  19.866  0.00  0.00    +0.000 A 
ENDROOT
BRANCH   5   8
ATOM      8  N   UNL     1       4.661   3.434  16.862  0.00  0.00    +0.000 N 
ATOM      9  C   UNL     1       5.840   4.137  16.669  0.00  0.00    +0.000 C 
ATOM     10  O   UNL     1       6.497   4.694  17.543  0.00  0.00    +0.000 OA
ATOM     11  H   UNL     1       4.128   3.173  16.042  0.00  0.00    +0.000 HD
BRANCH   9  12
ATOM     12  C   UNL     1       6.311   4.288  15.261  0.00  0.00    +0.000 A 
ATOM     13  C   UNL     1       5.593   3.607  14.260  0.00  0.00    +0.000 A 
ATOM     14  C   UNL     1       5.943   3.746  12.915  0.00  0.00    +0.000 A 
ATOM     15  C   UNL     1       7.007   4.569  12.563  0.00  0.00    +0.000 A 
ATOM     16 CL   UNL     1       7.420   4.766  10.906  0.00  0.00    +0.000 Cl
ATOM     17  C   UNL     1       7.730   5.250  13.548  0.00  0.00    +0.000 A 
ATOM     18  C   UNL     1       7.383   5.109  14.899  0.00  0.00    +0.000 A 
ENDBRANCH   9  12
ENDBRANCH   5   8
BRANCH   7  19
ATOM     19  C   UNL     1       1.789   5.434  20.228  0.00  0.00    +0.000 C 
ATOM     20  O   UNL     1       0.605   5.241  20.482  0.00  0.00    +0.000 OA
ATOM     21  N   UNL     1       2.407   6.673  20.146  0.00  0.00    +0.000 N 
ATOM     22  H   UNL     1       3.343   6.704  19.767  0.00  0.00    +0.000 HD
BRANCH  21  23
ATOM     23  C   UNL     1       1.770   7.925  20.365  0.00  0.00    +0.000 A 
ATOM     24  C   UNL     1       1.312   8.356  21.606  0.00  0.00    +0.000 A 
ATOM     25  C   UNL     1       0.651   9.578  21.728  0.00  0.00    +0.000 A 
ATOM     26  C   UNL     1       0.462  10.357  20.596  0.00  0.00    +0.000 A 
ATOM     27  N   UNL     1       0.915   9.993  19.369  0.00  0.00    +0.000 NA
ATOM     28  C   UNL     1       1.561   8.796  19.292  0.00  0.00    +0.000 A 
BRANCH  26  29
ATOM     29  C   UNL     1      -0.261  11.623  20.680  0.00  0.00    +0.000 A 
ATOM     30  N   UNL     1      -0.685  12.378  19.679  0.00  0.00    +0.000 NA
ATOM     31  C   UNL     1      -1.284  13.471  20.249  0.00  0.00    +0.000 A 
ATOM     32  C   UNL     1      -1.228  13.393  21.619  0.00  0.00    +0.000 A 
ATOM     33  N   UNL     1      -0.585  12.217  21.878  0.00  0.00    +0.000 N 
ATOM     34  H   UNL     1      -0.356  11.816  22.780  0.00  0.00    +0.000 HD
ENDBRANCH  26  29
ENDBRANCH  21  23
ENDBRANCH   7  19
TORSDOF 5
ENDMDL
MODEL 3
REMARK VINA RESULT:      -7.3      5.206     11.708
REMARK  Name = 
REMARK  6 active torsions:
REMARK  status: ('A' for Active; 'I' for Inactive)
REMARK    1  A    between atoms: C_1  and  C_2
REMARK    2  A    between atoms: C_5  and  N_6
REMARK    3  A    between atoms: C_7  and  C_9
REMARK    4  A    between atoms: C_17  and  C_18
REMARK    5  A    between atoms: N_20  and  C_21
REMARK    6  A    between atoms: C_24  and  C_25
REMARK                            x       y       z     vdW  Elec       q    Type
REMARK                         _______ _______ _______ _____ _____    ______ ____
ROOT
ATOM      1  C   UNL     1       0.624   8.527  21.681  0.00  0.00    +0.000 C 
ATOM      2  C   UNL     1       1.378   7.948  20.519  0.00  0.00    +0.000 A 
ATOM      3  C   UNL     1       1.966   6.682  20.691  0.00  0.00    +0.000 A 
ATOM      4  C   UNL     1       2.680   6.061  19.662  0.00  0.00    +0.000 A 
ATOM      5  C   UNL     1       2.836   6.682  18.427  0.00  0.00    +0.000 A 
ATOM      6  C   UNL     1       2.221   7.920  18.228  0.00  0.00    +0.000 A 
ATOM      7  C   UNL     1       1.520   8.575  19.268  0.00  0.00    +0.000 A 
ENDROOT
BRANCH   5   8
ATOM      8  N   UNL     1       3.602   6.138  17.365  0.00  0.00    +0.000 N 
ATOM      9  C   UNL     1       4.906   5.681  17.474  0.00  0.00    +0.000 C 
ATOM     10  O   UNL     1       5.582   5.667  18.499  0.00  0.00    +0.000 OA
ATOM     11  H   UNL     1       3.221   6.257  16.435  0.00  0.00    +0.000 HD
BRANCH   9  12
ATOM     12  C   UNL     1       5.570   5.231  16.215  0.00  0.00    +0.000 A 
ATOM     13  C   UNL     1       4.808   4.454  15.323  0.00  0.00    +0.000 A 
ATOM     14  C   UNL     1       5.345   4.043  14.100  0.00  0.00    +0.000 A 
ATOM     15  C   UNL     1       6.642   4.412  13.761  0.00  0.00    +0.000 A 
ATOM     16 CL   UNL     1       7.295   3.935  12.244  0.00  0.00    +0.000 Cl
ATOM     17  C   UNL     1       7.411   5.182  14.640  0.00  0.00    +0.000 A 
ATOM     18  C   UNL     1       6.875   5.592  15.869  0.00  0.00    +0.000 A 
ENDBRANCH   9  12
ENDBRANCH   5   8
BRANCH   7  19
ATOM     19  C   UNL     1       0.936   9.898  18.889  0.00  0.00    +0.000 C 
ATOM     20  O   UNL     1       0.171   9.908  17.929  0.00  0.00    +0.000 OA
ATOM     21  N   UNL     1       1.382  11.016  19.580  0.00  0.00    +0.000 N 
ATOM     22  H   UNL     1       2.135  10.885  20.240  0.00  0.00    +0.000 HD
BRANCH  21  23
ATOM     23  C   UNL     1       1.007  12.358  19.301  0.00  0.00    +0.000 A 
ATOM     24  C   UNL     1       1.886  13.326  18.828  0.00  0.00    +0.000 A 
ATOM     25  C   UNL     1       1.451  14.637  18.628  0.00  0.00    +0.000 A 
ATOM     26  C   UNL     1       0.130  14.956  18.904  0.00  0.00    +0.000 A 
ATOM     27  N   UNL     1      -0.772  14.040  19.340  0.00  0.00    +0.000 NA
ATOM     28  C   UNL     1      -0.311  12.771  19.517  0.00  0.00    +0.000 A 
BRANCH  26  29
ATOM     29  C   UNL     1      -0.350  16.326  18.744  0.00  0.00    +0.000 A 
ATOM     30  N   UNL     1      -1.359  16.907  19.374  0.00  0.00    +0.000 NA
ATOM     31  C   UNL     1      -1.442  18.181  18.876  0.00  0.00    +0.000 A 
ATOM     32  C   UNL     1      -0.474  18.391  17.924  0.00  0.00    +0.000 A 
ATOM     33  N   UNL     1       0.213  17.213  17.855  0.00  0.00    +0.000 N 
ATOM     34  H   UNL     1       1.002  16.984  17.261  0.00  0.00    +0.000 HD
ENDBRANCH  26  29
ENDBRANCH  21  23
ENDBRANCH   7  19
TORSDOF 5
ENDMDL
MODEL 4
REMARK VINA RESULT:      -7.1      5.242     11.696
REMARK  Name = 
REMARK  6 active torsions:
REMARK  status: ('A' for Active; 'I' for Inactive)
REMARK    1  A    between atoms: C_1  and  C_2
REMARK    2  A    between atoms: C_5  and  N_6
REMARK    3  A    between atoms: C_7  and  C_9
REMARK    4  A    between atoms: C_17  and  C_18
REMARK    5  A    between atoms: N_20  and  C_21
REMARK    6  A    between atoms: C_24  and  C_25
REMARK                            x       y       z     vdW  Elec       q    Type
REMARK                         _______ _______ _______ _____ _____    ______ ____
ROOT
ATOM      1  C   UNL     1       0.931   8.340  21.771  0.00  0.00    +0.000 C 
ATOM      2  C   UNL     1       1.594   7.744  20.563  0.00  0.00    +0.000 A 
ATOM      3  C   UNL     1       2.146   6.457  20.692  0.00  0.00    +0.000 A 
ATOM      4  C   UNL     1       2.776   5.819  19.619  0.00  0.00    +0.000 A 
ATOM      5  C   UNL     1       2.879   6.443  18.380  0.00  0.00    +0.000 A 
ATOM      6  C   UNL     1       2.297   7.703  18.225  0.00  0.00    +0.000 A 
ATOM      7  C   UNL     1       1.682   8.375  19.309  0.00  0.00    +0.000 A 
ENDROOT
BRANCH   5   8
ATOM      8  N   UNL     1       3.562   5.882  17.272  0.00  0.00    +0.000 N 
ATOM      9  C   UNL     1       4.939   5.777  17.151  0.00  0.00    +0.000 C 
ATOM     10  O   UNL     1       5.764   6.141  17.983  0.00  0.00    +0.000 OA
ATOM     11  H   UNL     1       3.002   5.707  16.447  0.00  0.00    +0.000 HD
BRANCH   9  12
ATOM     12  C   UNL     1       5.463   5.238  15.861  0.00  0.00    +0.000 A 
ATOM     13  C   UNL     1       6.815   5.485  15.557  0.00  0.00    +0.000 A 
ATOM     14  C   UNL     1       7.389   4.965  14.395  0.00  0.00    +0.000 A 
ATOM     15  C   UNL     1       6.617   4.191  13.535  0.00  0.00    +0.000 A 
ATOM     16 CL   UNL     1       7.330   3.523  12.120  0.00  0.00    +0.000 Cl
ATOM     17  C   UNL     1       5.272   3.940  13.824  0.00  0.00    +0.000 A 
ATOM     18  C   UNL     1       4.693   4.465  14.988  0.00  0.00    +0.000 A 
ENDBRANCH   9  12
ENDBRANCH   5   8
BRANCH   7  19
ATOM     19  C   UNL     1       1.123   9.720  18.972  0.00  0.00    +0.000 C 
ATOM     20  O   UNL     1       0.445   9.795  17.952  0.00  0.00    +0.000 OA
ATOM     21  N   UNL     1       1.498  10.787  19.775  0.00  0.00    +0.000 N 
ATOM     22  H   UNL     1       2.192  10.613  20.488  0.00  0.00    +0.000 HD
BRANCH  21  23
ATOM     23  C   UNL     1       1.139  12.145  19.558  0.00  0.00    +0.000 A 
ATOM     24  C   UNL     1      -0.116  12.671  19.846  0.00  0.00    +0.000 A 
ATOM     25  C   UNL     1      -0.406  14.004  19.555  0.00  0.00    +0.000 A 
ATOM     26  C   UNL     1       0.576  14.796  18.978  0.00  0.00    +0.000 A 
ATOM     27  N   UNL     1       1.824  14.336  18.704  0.00  0.00    +0.000 NA
ATOM     28  C   UNL     1       2.070  13.032  19.008  0.00  0.00    +0.000 A 
BRANCH  26  29
ATOM     29  C   UNL     1       0.295  16.185  18.623  0.00  0.00    +0.000 A 
ATOM     30  N   UNL     1       1.156  17.187  18.545  0.00  0.00    +0.000 NA
ATOM     31  C   UNL     1       0.424  18.295  18.203  0.00  0.00    +0.000 A 
ATOM     32  C   UNL     1      -0.905  17.975  18.071  0.00  0.00    +0.000 A 
ATOM     33  N   UNL     1      -0.972  16.636  18.334  0.00  0.00    +0.000 N 
ATOM     34  H   UNL     1      -1.792  16.041  18.334  0.00  0.00    +0.000 HD
ENDBRANCH  26  29
ENDBRANCH  21  23
ENDBRANCH   7  19
TORSDOF 5
ENDMDL
MODEL 5
REMARK VINA RESULT:      -7.1      5.468     11.927
REMARK  Name = 
REMARK  6 active torsions:
REMARK  status: ('A' for Active; 'I' for Inactive)
REMARK    1  A    between atoms: C_1  and  C_2
REMARK    2  A    between atoms: C_5  and  N_6
REMARK    3  A    between atoms: C_7  and  C_9
REMARK    4  A    between atoms: C_17  and  C_18
REMARK    5  A    between atoms: N_20  and  C_21
REMARK    6  A    between atoms: C_24  and  C_25
REMARK                            x       y       z     vdW  Elec       q    Type
REMARK                         _______ _______ _______ _____ _____    ______ ____
ROOT
ATOM      1  C   UNL     1       2.186   3.001  21.869  0.00  0.00    +0.000 C 
ATOM      2  C   UNL     1       2.737   3.192  20.485  0.00  0.00    +0.000 A 
ATOM      3  C   UNL     1       3.424   2.112  19.904  0.00  0.00    +0.000 A 
ATOM      4  C   UNL     1       3.964   2.195  18.616  0.00  0.00    +0.000 A 
ATOM      5  C   UNL     1       3.839   3.359  17.865  0.00  0.00    +0.000 A 
ATOM      6  C   UNL     1       3.121   4.425  18.413  0.00  0.00    +0.000 A 
ATOM      7  C   UNL     1       2.594   4.367  19.725  0.00  0.00    +0.000 A 
ENDROOT
BRANCH   5   8
ATOM      8  N   UNL     1       4.418   3.533  16.583  0.00  0.00    +0.000 N 
ATOM      9  C   UNL     1       5.699   4.005  16.343  0.00  0.00    +0.000 C 
ATOM     10  O   UNL     1       6.520   4.328  17.196  0.00  0.00    +0.000 OA
ATOM     11  H   UNL     1       3.785   3.468  15.796  0.00  0.00    +0.000 HD
BRANCH   9  12
ATOM     12  C   UNL     1       6.088   4.203  14.915  0.00  0.00    +0.000 A 
ATOM     13  C   UNL     1       7.178   5.053  14.652  0.00  0.00    +0.000 A 
ATOM     14  C   UNL     1       7.632   5.243  13.345  0.00  0.00    +0.000 A 
ATOM     15  C   UNL     1       7.005   4.579  12.296  0.00  0.00    +0.000 A 
ATOM     16 CL   UNL     1       7.582   4.787  10.690  0.00  0.00    +0.000 Cl
ATOM     17  C   UNL     1       5.919   3.733  12.544  0.00  0.00    +0.000 A 
ATOM     18  C   UNL     1       5.459   3.545  13.854  0.00  0.00    +0.000 A 
ENDBRANCH   9  12
ENDBRANCH   5   8
BRANCH   7  19
ATOM     19  C   UNL     1       1.867   5.599  20.159  0.00  0.00    +0.000 C 
ATOM     20  O   UNL     1       0.813   5.432  20.766  0.00  0.00    +0.000 OA
ATOM     21  N   UNL     1       2.382   6.822  19.755  0.00  0.00    +0.000 N 
ATOM     22  H   UNL     1       3.169   6.810  19.122  0.00  0.00    +0.000 HD
BRANCH  21  23
ATOM     23  C   UNL     1       1.782   8.088  19.998  0.00  0.00    +0.000 A 
ATOM     24  C   UNL     1       1.561   9.043  19.011  0.00  0.00    +0.000 A 
ATOM     25  C   UNL     1       1.013  10.283  19.340  0.00  0.00    +0.000 A 
ATOM     26  C   UNL     1       0.689  10.545  20.663  0.00  0.00    +0.000 A 
ATOM     27  N   UNL     1       0.859   9.635  21.656  0.00  0.00    +0.000 NA
ATOM     28  C   UNL     1       1.391   8.435  21.294  0.00  0.00    +0.000 A 
BRANCH  26  29
ATOM     29  C   UNL     1       0.150  11.847  21.050  0.00  0.00    +0.000 A 
ATOM     30  N   UNL     1      -0.187  12.251  22.264  0.00  0.00    +0.000 NA
ATOM     31  C   UNL     1      -0.662  13.530  22.125  0.00  0.00    +0.000 A 
ATOM     32  C   UNL     1      -0.621  13.919  20.808  0.00  0.00    +0.000 A 
ATOM     33  N   UNL     1      -0.100  12.848  20.140  0.00  0.00    +0.000 N 
ATOM     34  H   UNL     1       0.081  12.759  19.147  0.00  0.00    +0.000 HD
ENDBRANCH  26  29
ENDBRANCH  21  23
ENDBRANCH   7  19
TORSDOF 5
ENDMDL
MODEL 6
REMARK VINA RESULT:      -6.9      4.542      7.013
REMARK  Name = 
REMARK  6 active torsions:
REMARK  status: ('A' for Active; 'I' for Inactive)
REMARK    1  A    between atoms: C_1  and  C_2
REMARK    2  A    between atoms: C_5  and  N_6
REMARK    3  A    between atoms: C_7  and  C_9
REMARK    4  A    between atoms: C_17  and  C_18
REMARK    5  A    between atoms: N_20  and  C_21
REMARK    6  A    between atoms: C_24  and  C_25
REMARK                            x       y       z     vdW  Elec       q    Type
REMARK                         _______ _______ _______ _____ _____    ______ ____
ROOT
ATOM      1  C   UNL     1      -1.854  11.474  18.913  0.00  0.00    +0.000 C 
ATOM      2  C   UNL     1      -0.516  12.150  18.997  0.00  0.00    +0.000 A 
ATOM      3  C   UNL     1      -0.500  13.525  19.290  0.00  0.00    +0.000 A 
ATOM      4  C   UNL     1       0.699  14.237  19.396  0.00  0.00    +0.000 A 
ATOM      5  C   UNL     1       1.923  13.603  19.210  0.00  0.00    +0.000 A 
ATOM      6  C   UNL     1       1.924  12.229  18.962  0.00  0.00    +0.000 A 
ATOM      7  C   UNL     1       0.719  11.500  18.823  0.00  0.00    +0.000 A 
ENDROOT
BRANCH   5   8
ATOM      8  N   UNL     1       3.170  14.278  19.238  0.00  0.00    +0.000 N 
ATOM      9  C   UNL     1       3.710  15.002  18.186  0.00  0.00    +0.000 C 
ATOM     10  O   UNL     1       3.189  15.175  17.089  0.00  0.00    +0.000 OA
ATOM     11  H   UNL     1       3.773  14.066  20.023  0.00  0.00    +0.000 HD
BRANCH   9  12
ATOM     12  C   UNL     1       5.080  15.560  18.386  0.00  0.00    +0.000 A 
ATOM     13  C   UNL     1       6.157  14.851  17.823  0.00  0.00    +0.000 A 
ATOM     14  C   UNL     1       7.461  15.342  17.922  0.00  0.00    +0.000 A 
ATOM     15  C   UNL     1       7.693  16.546  18.577  0.00  0.00    +0.000 A 
ATOM     16 CL   UNL     1       9.294  17.168  18.673  0.00  0.00    +0.000 Cl
ATOM     17  C   UNL     1       6.632  17.260  19.143  0.00  0.00    +0.000 A 
ATOM     18  C   UNL     1       5.324  16.766  19.048  0.00  0.00    +0.000 A 
ENDBRANCH   9  12
ENDBRANCH   5   8
BRANCH   7  19
ATOM     19  C   UNL     1       0.901  10.042  18.544  0.00  0.00    +0.000 C 
ATOM     20  O   UNL     1       0.160   9.546  17.702  0.00  0.00    +0.000 OA
ATOM     21  N   UNL     1       1.814   9.350  19.327  0.00  0.00    +0.000 N 
ATOM     22  H   UNL     1       2.241   9.849  20.095  0.00  0.00    +0.000 HD
BRANCH  21  23
ATOM     23  C   UNL     1       2.055   7.951  19.266  0.00  0.00    +0.000 A 
ATOM     24  C   UNL     1       1.748   7.065  20.293  0.00  0.00    +0.000 A 
ATOM     25  C   UNL     1       2.064   5.711  20.175  0.00  0.00    +0.000 A 
ATOM     26  C   UNL     1       2.685   5.264  19.019  0.00  0.00    +0.000 A 
ATOM     27  N   UNL     1       2.979   6.085  17.978  0.00  0.00    +0.000 NA
ATOM     28  C   UNL     1       2.649   7.397  18.128  0.00  0.00    +0.000 A 
BRANCH  26  29
ATOM     29  C   UNL     1       3.067   3.861  18.877  0.00  0.00    +0.000 A 
ATOM     30  N   UNL     1       2.731   3.028  17.905  0.00  0.00    +0.000 NA
ATOM     31  C   UNL     1       3.304   1.823  18.218  0.00  0.00    +0.000 A 
ATOM     32  C   UNL     1       4.000   1.910  19.399  0.00  0.00    +0.000 A 
ATOM     33  N   UNL     1       3.847   3.206  19.802  0.00  0.00    +0.000 N 
ATOM     34  H   UNL     1       4.218   3.649  20.634  0.00  0.00    +0.000 HD
ENDBRANCH  26  29
ENDBRANCH  21  23
ENDBRANCH   7  19
TORSDOF 5
ENDMDL
MODEL 7
REMARK VINA RESULT:      -6.8      4.525      7.069
REMARK  Name = 
REMARK  6 active torsions:
REMARK  status: ('A' for Active; 'I' for Inactive)
REMARK    1  A    between atoms: C_1  and  C_2
REMARK    2  A    between atoms: C_5  and  N_6
REMARK    3  A    between atoms: C_7  and  C_9
REMARK    4  A    between atoms: C_17  and  C_18
REMARK    5  A    between atoms: N_20  and  C_21
REMARK    6  A    between atoms: C_24  and  C_25
REMARK                            x       y       z     vdW  Elec       q    Type
REMARK                         _______ _______ _______ _____ _____    ______ ____
ROOT
ATOM      1  C   UNL     1      -1.829  11.726  18.924  0.00  0.00    +0.000 C 
ATOM      2  C   UNL     1      -0.465  12.353  18.984  0.00  0.00    +0.000 A 
ATOM      3  C   UNL     1      -0.394  13.732  19.249  0.00  0.00    +0.000 A 
ATOM      4  C   UNL     1       0.832  14.400  19.332  0.00  0.00    +0.000 A 
ATOM      5  C   UNL     1       2.029  13.716  19.149  0.00  0.00    +0.000 A 
ATOM      6  C   UNL     1       1.975  12.338  18.928  0.00  0.00    +0.000 A 
ATOM      7  C   UNL     1       0.742  11.653  18.813  0.00  0.00    +0.000 A 
ENDROOT
BRANCH   5   8
ATOM      8  N   UNL     1       3.300  14.343  19.153  0.00  0.00    +0.000 N 
ATOM      9  C   UNL     1       3.823  15.096  18.114  0.00  0.00    +0.000 C 
ATOM     10  O   UNL     1       3.264  15.340  17.049  0.00  0.00    +0.000 OA
ATOM     11  H   UNL     1       3.928  14.072  19.901  0.00  0.00    +0.000 HD
BRANCH   9  12
ATOM     12  C   UNL     1       5.221  15.594  18.278  0.00  0.00    +0.000 A 
ATOM     13  C   UNL     1       5.401  16.792  18.994  0.00  0.00    +0.000 A 
ATOM     14  C   UNL     1       6.684  17.290  19.236  0.00  0.00    +0.000 A 
ATOM     15  C   UNL     1       7.791  16.591  18.769  0.00  0.00    +0.000 A 
ATOM     16 CL   UNL     1       9.372  17.185  19.091  0.00  0.00    +0.000 Cl
ATOM     17  C   UNL     1       7.626  15.400  18.053  0.00  0.00    +0.000 A 
ATOM     18  C   UNL     1       6.339  14.901  17.807  0.00  0.00    +0.000 A 
ENDBRANCH   9  12
ENDBRANCH   5   8
BRANCH   7  19
ATOM     19  C   UNL     1       0.867  10.184  18.562  0.00  0.00    +0.000 C 
ATOM     20  O   UNL     1       0.058   9.688  17.784  0.00  0.00    +0.000 OA
ATOM     21  N   UNL     1       1.810   9.486  19.302  0.00  0.00    +0.000 N 
ATOM     22  H   UNL     1       2.301   9.991  20.026  0.00  0.00    +0.000 HD
BRANCH  21  23
ATOM     23  C   UNL     1       2.010   8.079  19.262  0.00  0.00    +0.000 A 
ATOM     24  C   UNL     1       1.757   7.230  20.334  0.00  0.00    +0.000 A 
ATOM     25  C   UNL     1       2.028   5.865  20.231  0.00  0.00    +0.000 A 
ATOM     26  C   UNL     1       2.548   5.370  19.044  0.00  0.00    +0.000 A 
ATOM     27  N   UNL     1       2.785   6.155  17.962  0.00  0.00    +0.000 NA
ATOM     28  C   UNL     1       2.502   7.479  18.099  0.00  0.00    +0.000 A 
BRANCH  26  29
ATOM     29  C   UNL     1       2.881   3.954  18.915  0.00  0.00    +0.000 A 
ATOM     30  N   UNL     1       3.005   3.062  19.884  0.00  0.00    +0.000 NA
ATOM     31  C   UNL     1       3.348   1.881  19.279  0.00  0.00    +0.000 A 
ATOM     32  C   UNL     1       3.441   2.045  17.918  0.00  0.00    +0.000 A 
ATOM     33  N   UNL     1       3.137   3.359  17.701  0.00  0.00    +0.000 N 
ATOM     34  H   UNL     1       3.102   3.853  16.817  0.00  0.00    +0.000 HD
ENDBRANCH  26  29
ENDBRANCH  21  23
ENDBRANCH   7  19
TORSDOF 5
ENDMDL
MODEL 8
REMARK VINA RESULT:      -6.6      5.213     11.752
REMARK  Name = 
REMARK  6 active torsions:
REMARK  status: ('A' for Active; 'I' for Inactive)
REMARK    1  A    between atoms: C_1  and  C_2
REMARK    2  A    between atoms: C_5  and  N_6
REMARK    3  A    between atoms: C_7  and  C_9
REMARK    4  A    between atoms: C_17  and  C_18
REMARK    5  A    between atoms: N_20  and  C_21
REMARK    6  A    between atoms: C_24  and  C_25
REMARK                            x       y       z     vdW  Elec       q    Type
REMARK                         _______ _______ _______ _____ _____    ______ ____
ROOT
ATOM      1  C   UNL     1       0.835   8.397  21.619  0.00  0.00    +0.000 C 
ATOM      2  C   UNL     1       1.560   7.793  20.451  0.00  0.00    +0.000 A 
ATOM      3  C   UNL     1       1.935   6.441  20.547  0.00  0.00    +0.000 A 
ATOM      4  C   UNL     1       2.606   5.791  19.506  0.00  0.00    +0.000 A 
ATOM      5  C   UNL     1       2.930   6.469  18.335  0.00  0.00    +0.000 A 
ATOM      6  C   UNL     1       2.525   7.800  18.209  0.00  0.00    +0.000 A 
ATOM      7  C   UNL     1       1.871   8.480  19.264  0.00  0.00    +0.000 A 
ENDROOT
BRANCH   5   8
ATOM      8  N   UNL     1       3.666   5.891  17.271  0.00  0.00    +0.000 N 
ATOM      9  C   UNL     1       5.038   5.692  17.264  0.00  0.00    +0.000 C 
ATOM     10  O   UNL     1       5.811   5.973  18.175  0.00  0.00    +0.000 OA
ATOM     11  H   UNL     1       3.170   5.778  16.396  0.00  0.00    +0.000 HD
BRANCH   9  12
ATOM     12  C   UNL     1       5.635   5.152  16.007  0.00  0.00    +0.000 A 
ATOM     13  C   UNL     1       4.825   4.322  15.209  0.00  0.00    +0.000 A 
ATOM     14  C   UNL     1       5.297   3.825  13.992  0.00  0.00    +0.000 A 
ATOM     15  C   UNL     1       6.577   4.160  13.564  0.00  0.00    +0.000 A 
ATOM     16 CL   UNL     1       7.149   3.575  12.051  0.00  0.00    +0.000 Cl
ATOM     17  C   UNL     1       7.393   4.982  14.348  0.00  0.00    +0.000 A 
ATOM     18  C   UNL     1       6.922   5.478  15.572  0.00  0.00    +0.000 A 
ENDBRANCH   9  12
ENDBRANCH   5   8
BRANCH   7  19
ATOM     19  C   UNL     1       1.522   9.902  18.967  0.00  0.00    +0.000 C 
ATOM     20  O   UNL     1       2.128  10.437  18.044  0.00  0.00    +0.000 OA
ATOM     21  N   UNL     1       0.624  10.532  19.817  0.00  0.00    +0.000 N 
ATOM     22  H   UNL     1       0.322  10.022  20.635  0.00  0.00    +0.000 HD
BRANCH  21  23
ATOM     23  C   UNL     1       0.242  11.899  19.743  0.00  0.00    +0.000 A 
ATOM     24  C   UNL     1      -0.358  12.477  18.630  0.00  0.00    +0.000 A 
ATOM     25  C   UNL     1      -0.656  13.841  18.618  0.00  0.00    +0.000 A 
ATOM     26  C   UNL     1      -0.347  14.606  19.732  0.00  0.00    +0.000 A 
ATOM     27  N   UNL     1       0.213  14.082  20.852  0.00  0.00    +0.000 NA
ATOM     28  C   UNL     1       0.482  12.747  20.828  0.00  0.00    +0.000 A 
BRANCH  26  29
ATOM     29  C   UNL     1      -0.608  16.043  19.740  0.00  0.00    +0.000 A 
ATOM     30  N   UNL     1       0.037  16.984  19.068  0.00  0.00    +0.000 NA
ATOM     31  C   UNL     1      -0.550  18.173  19.414  0.00  0.00    +0.000 A 
ATOM     32  C   UNL     1      -1.569  17.967  20.312  0.00  0.00    +0.000 A 
ATOM     33  N   UNL     1      -1.599  16.615  20.504  0.00  0.00    +0.000 N 
ATOM     34  H   UNL     1      -2.220  16.084  21.103  0.00  0.00    +0.000 HD
ENDBRANCH  26  29
ENDBRANCH  21  23
ENDBRANCH   7  19
TORSDOF 5
ENDMDL
MODEL 9
REMARK VINA RESULT:      -6.6      3.816      5.360
REMARK  Name = 
REMARK  6 active torsions:
REMARK  status: ('A' for Active; 'I' for Inactive)
REMARK    1  A    between atoms: C_1  and  C_2
REMARK    2  A    between atoms: C_5  and  N_6
REMARK    3  A    between atoms: C_7  and  C_9
REMARK    4  A    between atoms: C_17  and  C_18
REMARK    5  A    between atoms: N_20  and  C_21
REMARK    6  A    between atoms: C_24  and  C_25
REMARK                            x       y       z     vdW  Elec       q    Type
REMARK                         _______ _______ _______ _____ _____    ______ ____
ROOT
ATOM      1  C   UNL     1       1.685   6.050  20.906  0.00  0.00    +0.000 C 
ATOM      2  C   UNL     1       1.402   7.519  20.779  0.00  0.00    +0.000 A 
ATOM      3  C   UNL     1       0.878   8.181  21.903  0.00  0.00    +0.000 A 
ATOM      4  C   UNL     1       0.591   9.549  21.881  0.00  0.00    +0.000 A 
ATOM      5  C   UNL     1       0.815  10.305  20.735  0.00  0.00    +0.000 A 
ATOM      6  C   UNL     1       1.377   9.670  19.625  0.00  0.00    +0.000 A 
ATOM      7  C   UNL     1       1.645   8.281  19.622  0.00  0.00    +0.000 A 
ENDROOT
BRANCH   5   8
ATOM      8  N   UNL     1       0.486  11.679  20.623  0.00  0.00    +0.000 N 
ATOM      9  C   UNL     1      -0.693  12.177  20.091  0.00  0.00    +0.000 C 
ATOM     10  O   UNL     1      -1.624  11.509  19.652  0.00  0.00    +0.000 OA
ATOM     11  H   UNL     1       1.241  12.333  20.788  0.00  0.00    +0.000 HD
BRANCH   9  12
ATOM     12  C   UNL     1      -0.808  13.662  19.978  0.00  0.00    +0.000 A 
ATOM     13  C   UNL     1      -0.062  14.294  18.965  0.00  0.00    +0.000 A 
ATOM     14  C   UNL     1      -0.162  15.672  18.765  0.00  0.00    +0.000 A 
ATOM     15  C   UNL     1      -1.011  16.424  19.570  0.00  0.00    +0.000 A 
ATOM     16 CL   UNL     1      -1.159  18.116  19.304  0.00  0.00    +0.000 Cl
ATOM     17  C   UNL     1      -1.755  15.808  20.581  0.00  0.00    +0.000 A 
ATOM     18  C   UNL     1      -1.653  14.426  20.786  0.00  0.00    +0.000 A 
ENDBRANCH   9  12
ENDBRANCH   5   8
BRANCH   7  19
ATOM     19  C   UNL     1       2.232   7.762  18.348  0.00  0.00    +0.000 C 
ATOM     20  O   UNL     1       1.567   7.924  17.329  0.00  0.00    +0.000 OA
ATOM     21  N   UNL     1       3.421   7.053  18.433  0.00  0.00    +0.000 N 
ATOM     22  H   UNL     1       3.780   6.855  19.356  0.00  0.00    +0.000 HD
BRANCH  21  23
ATOM     23  C   UNL     1       4.077   6.415  17.346  0.00  0.00    +0.000 A 
ATOM     24  C   UNL     1       4.122   5.036  17.169  0.00  0.00    +0.000 A 
ATOM     25  C   UNL     1       4.831   4.484  16.102  0.00  0.00    +0.000 A 
ATOM     26  C   UNL     1       5.487   5.331  15.221  0.00  0.00    +0.000 A 
ATOM     27  N   UNL     1       5.449   6.684  15.336  0.00  0.00    +0.000 NA
ATOM     28  C   UNL     1       4.741   7.184  16.386  0.00  0.00    +0.000 A 
BRANCH  26  29
ATOM     29  C   UNL     1       6.272   4.788  14.116  0.00  0.00    +0.000 A 
ATOM     30  N   UNL     1       7.398   5.269  13.613  0.00  0.00    +0.000 NA
ATOM     31  C   UNL     1       7.743   4.436  12.580  0.00  0.00    +0.000 A 
ATOM     32  C   UNL     1       6.819   3.430  12.440  0.00  0.00    +0.000 A 
ATOM     33  N   UNL     1       5.897   3.660  13.421  0.00  0.00    +0.000 N 
ATOM     34  H   UNL     1       5.063   3.125  13.632  0.00  0.00    +0.000 HD
ENDBRANCH  26  29
ENDBRANCH  21  23
ENDBRANCH   7  19
TORSDOF 5
ENDMDL
