MODEL 1
REMARK VINA RESULT:      -9.0      0.000      0.000
REMARK  Name = 
REMARK  2 active torsions:
REMARK  status: ('A' for Active; 'I' for Inactive)
REMARK    1  A    between atoms: C_4  and  C_5
REMARK    2  A    between atoms: C_15  and  C_16
REMARK                            x       y       z     vdW  Elec       q    Type
REMARK                         _______ _______ _______ _____ _____    ______ ____
ROOT
ATOM      1  O   UNL     1       2.133   3.737  21.295  0.00  0.00    +0.000 OA
ATOM      2  C   UNL     1       2.426   4.726  20.636  0.00  0.00    +0.000 A 
ATOM      3  C   UNL     1       3.460   4.662  19.572  0.00  0.00    +0.000 A 
ATOM      4  C   UNL     1       3.764   5.763  18.861  0.00  0.00    +0.000 A 
ATOM      5  C   UNL     1       3.078   7.014  19.146  0.00  0.00    +0.000 A 
ATOM      6  C   UNL     1       2.143   7.074  20.107  0.00  0.00    +0.000 A 
ATOM      7  N   UNL     1       1.836   5.950  20.832  0.00  0.00    +0.000 N 
ATOM      8  H   UNL     1       1.125   5.984  21.551  0.00  0.00    +0.000 HD
ENDROOT
BRANCH   4   9
ATOM      9  C   UNL     1       4.798   5.656  17.819  0.00  0.00    +0.000 A 
ATOM     10  C   UNL     1       6.072   6.229  18.023  0.00  0.00    +0.000 A 
ATOM     11  C   UNL     1       7.075   6.112  17.054  0.00  0.00    +0.000 A 
ATOM     12  C   UNL     1       6.772   5.421  15.900  0.00  0.00    +0.000 A 
ATOM     13  C   UNL     1       5.534   4.860  15.696  0.00  0.00    +0.000 A 
ATOM     14  C   UNL     1       4.525   4.956  16.633  0.00  0.00    +0.000 A 
ATOM     15  O   UNL     1       5.444   4.223  14.497  0.00  0.00    +0.000 OA
ATOM     16  C   UNL     1       6.754   4.487  13.952  0.00  0.00    +0.000 C 
ATOM     17  O   UNL     1       7.616   5.207  14.857  0.00  0.00    +0.000 OA
ENDBRANCH   4   9
BRANCH   6  18
ATOM     18  C   UNL     1       1.445   8.326  20.428  0.00  0.00    +0.000 A 
ATOM     19  C   UNL     1       1.134   8.586  21.773  0.00  0.00    +0.000 A 
ATOM     20  C   UNL     1       0.478   9.765  22.135  0.00  0.00    +0.000 A 
ATOM     21  C   UNL     1       0.131  10.693  21.156  0.00  0.00    +0.000 A 
ATOM     22 CL   UNL     1      -0.677  12.144  21.605  0.00  0.00    +0.000 Cl
ATOM     23  C   UNL     1       0.430  10.454  19.817  0.00  0.00    +0.000 A 
ATOM     24  C   UNL     1       1.086   9.274  19.453  0.00  0.00    +0.000 A 
ATOM     25 CL   UNL     1       1.426   9.028  17.776  0.00  0.00    +0.000 Cl
ENDBRANCH   6  18
TORSDOF 2
ENDMDL
MODEL 2
REMARK VINA RESULT:      -8.9      3.543      7.637
REMARK  Name = 
REMARK  2 active torsions:
REMARK  status: ('A' for Active; 'I' for Inactive)
REMARK    1  A    between atoms: C_4  and  C_5
REMARK    2  A    between atoms: C_15  and  C_16
REMARK                            x       y       z     vdW  Elec       q    Type
REMARK                         _______ _______ _______ _____ _____    ______ ____
ROOT
ATOM      1  O   UNL     1       4.563   2.554  20.081  0.00  0.00    +0.000 OA
ATOM      2  C   UNL     1       4.416   3.517  19.338  0.00  0.00    +0.000 A 
ATOM      3  C   UNL     1       3.564   4.668  19.730  0.00  0.00    +0.000 A 
ATOM      4  C   UNL     1       3.419   5.714  18.896  0.00  0.00    +0.000 A 
ATOM      5  C   UNL     1       4.098   5.706  17.609  0.00  0.00    +0.000 A 
ATOM      6  C   UNL     1       4.869   4.667  17.253  0.00  0.00    +0.000 A 
ATOM      7  N   UNL     1       5.013   3.601  18.105  0.00  0.00    +0.000 N 
ATOM      8  H   UNL     1       5.602   2.817  17.848  0.00  0.00    +0.000 HD
ENDROOT
BRANCH   4   9
ATOM      9  C   UNL     1       2.562   6.832  19.323  0.00  0.00    +0.000 A 
ATOM     10  C   UNL     1       1.968   6.819  20.605  0.00  0.00    +0.000 A 
ATOM     11  C   UNL     1       1.174   7.888  21.037  0.00  0.00    +0.000 A 
ATOM     12  C   UNL     1       0.994   8.943  20.170  0.00  0.00    +0.000 A 
ATOM     13  C   UNL     1       1.570   8.961  18.921  0.00  0.00    +0.000 A 
ATOM     14  C   UNL     1       2.360   7.925  18.467  0.00  0.00    +0.000 A 
ATOM     15  O   UNL     1       1.269  10.092  18.227  0.00  0.00    +0.000 OA
ATOM     16  C   UNL     1       0.400  10.762  19.165  0.00  0.00    +0.000 C 
ATOM     17  O   UNL     1       0.259  10.060  20.417  0.00  0.00    +0.000 OA
ENDBRANCH   4   9
BRANCH   6  18
ATOM     18  C   UNL     1       5.554   4.623  15.955  0.00  0.00    +0.000 A 
ATOM     19  C   UNL     1       4.991   3.840  14.934  0.00  0.00    +0.000 A 
ATOM     20  C   UNL     1       5.596   3.769  13.677  0.00  0.00    +0.000 A 
ATOM     21  C   UNL     1       6.767   4.483  13.432  0.00  0.00    +0.000 A 
ATOM     22 CL   UNL     1       7.510   4.394  11.882  0.00  0.00    +0.000 Cl
ATOM     23  C   UNL     1       7.342   5.265  14.430  0.00  0.00    +0.000 A 
ATOM     24  C   UNL     1       6.737   5.336  15.688  0.00  0.00    +0.000 A 
ATOM     25 CL   UNL     1       7.498   6.318  16.891  0.00  0.00    +0.000 Cl
ENDBRANCH   6  18
TORSDOF 2
ENDMDL
MODEL 3
REMARK VINA RESULT:      -8.8      3.475      7.809
REMARK  Name = 
REMARK  2 active torsions:
REMARK  status: ('A' for Active; 'I' for Inactive)
REMARK    1  A    between atoms: C_4  and  C_5
REMARK    2  A    between atoms: C_15  and  C_16
REMARK                            x       y       z     vdW  Elec       q    Type
REMARK                         _______ _______ _______ _____ _____    ______ ____
ROOT
ATOM      1  O   UNL     1       4.207   2.826  20.056  0.00  0.00    +0.000 OA
ATOM      2  C   UNL     1       4.140   3.775  19.284  0.00  0.00    +0.000 A 
ATOM      3  C   UNL     1       3.341   4.981  19.617  0.00  0.00    +0.000 A 
ATOM      4  C   UNL     1       3.283   6.010  18.752  0.00  0.00    +0.000 A 
ATOM      5  C   UNL     1       4.004   5.930  17.491  0.00  0.00    +0.000 A 
ATOM      6  C   UNL     1       4.727   4.841  17.189  0.00  0.00    +0.000 A 
ATOM      7  N   UNL     1       4.783   3.792  18.072  0.00  0.00    +0.000 N 
ATOM      8  H   UNL     1       5.335   2.971  17.856  0.00  0.00    +0.000 HD
ENDROOT
BRANCH   4   9
ATOM      9  C   UNL     1       2.475   7.184  19.120  0.00  0.00    +0.000 A 
ATOM     10  C   UNL     1       2.177   8.170  18.153  0.00  0.00    +0.000 A 
ATOM     11  C   UNL     1       1.387   9.278  18.479  0.00  0.00    +0.000 A 
ATOM     12  C   UNL     1       0.915   9.370  19.771  0.00  0.00    +0.000 A 
ATOM     13  C   UNL     1       1.201   8.413  20.716  0.00  0.00    +0.000 A 
ATOM     14  C   UNL     1       1.975   7.308  20.425  0.00  0.00    +0.000 A 
ATOM     15  O   UNL     1       0.639   8.692  21.923  0.00  0.00    +0.000 OA
ATOM     16  C   UNL     1       0.005   9.957  21.641  0.00  0.00    +0.000 C 
ATOM     17  O   UNL     1       0.138  10.369  20.265  0.00  0.00    +0.000 OA
ENDBRANCH   4   9
BRANCH   6  18
ATOM     18  C   UNL     1       5.453   4.724  15.917  0.00  0.00    +0.000 A 
ATOM     19  C   UNL     1       4.872   3.964  14.889  0.00  0.00    +0.000 A 
ATOM     20  C   UNL     1       5.515   3.827  13.657  0.00  0.00    +0.000 A 
ATOM     21  C   UNL     1       6.742   4.451  13.443  0.00  0.00    +0.000 A 
ATOM     22 CL   UNL     1       7.531   4.280  11.923  0.00  0.00    +0.000 Cl
ATOM     23  C   UNL     1       7.335   5.209  14.449  0.00  0.00    +0.000 A 
ATOM     24  C   UNL     1       6.693   5.346  15.683  0.00  0.00    +0.000 A 
ATOM     25 CL   UNL     1       7.479   6.293  16.897  0.00  0.00    +0.000 Cl
ENDBRANCH   6  18
TORSDOF 2
ENDMDL
MODEL 4
REMARK VINA RESULT:      -8.6      3.650      7.808
REMARK  Name = 
REMARK  2 active torsions:
REMARK  status: ('A' for Active; 'I' for Inactive)
REMARK    1  A    between atoms: C_4  and  C_5
REMARK    2  A    between atoms: C_15  and  C_16
REMARK                            x       y       z     vdW  Elec       q    Type
REMARK                         _______ _______ _______ _____ _____    ______ ____
ROOT
ATOM      1  O   UNL     1       2.012   3.935  21.535  0.00  0.00    +0.000 OA
ATOM      2  C   UNL     1       2.214   4.863  20.761  0.00  0.00    +0.000 A 
ATOM      3  C   UNL     1       1.602   6.197  20.985  0.00  0.00    +0.000 A 
ATOM      4  C   UNL     1       1.839   7.200  20.121  0.00  0.00    +0.000 A 
ATOM      5  C   UNL     1       2.694   6.967  18.966  0.00  0.00    +0.000 A 
ATOM      6  C   UNL     1       3.248   5.763  18.763  0.00  0.00    +0.000 A 
ATOM      7  N   UNL     1       3.003   4.740  19.645  0.00  0.00    +0.000 N 
ATOM      8  H   UNL     1       3.426   3.831  19.504  0.00  0.00    +0.000 HD
ENDROOT
BRANCH   4   9
ATOM      9  C   UNL     1       1.208   8.506  20.378  0.00  0.00    +0.000 A 
ATOM     10  C   UNL     1       0.970   9.399  19.311  0.00  0.00    +0.000 A 
ATOM     11  C   UNL     1       0.345  10.632  19.535  0.00  0.00    +0.000 A 
ATOM     12  C   UNL     1      -0.023  10.938  20.827  0.00  0.00    +0.000 A 
ATOM     13  C   UNL     1       0.206  10.071  21.870  0.00  0.00    +0.000 A 
ATOM     14  C   UNL     1       0.816   8.848  21.682  0.00  0.00    +0.000 A 
ATOM     15  O   UNL     1      -0.235  10.562  23.060  0.00  0.00    +0.000 OA
ATOM     16  C   UNL     1      -0.726  11.857  22.652  0.00  0.00    +0.000 C 
ATOM     17  O   UNL     1      -0.637  12.082  21.230  0.00  0.00    +0.000 OA
ENDBRANCH   4   9
BRANCH   6  18
ATOM     18  C   UNL     1       4.102   5.493  17.599  0.00  0.00    +0.000 A 
ATOM     19  C   UNL     1       4.818   6.563  17.039  0.00  0.00    +0.000 A 
ATOM     20  C   UNL     1       5.652   6.361  15.936  0.00  0.00    +0.000 A 
ATOM     21  C   UNL     1       5.776   5.087  15.387  0.00  0.00    +0.000 A 
ATOM     22 CL   UNL     1       6.804   4.842  14.029  0.00  0.00    +0.000 Cl
ATOM     23  C   UNL     1       5.075   4.012  15.928  0.00  0.00    +0.000 A 
ATOM     24  C   UNL     1       4.241   4.214  17.030  0.00  0.00    +0.000 A 
ATOM     25 CL   UNL     1       3.390   2.844  17.655  0.00  0.00    +0.000 Cl
ENDBRANCH   6  18
TORSDOF 2
ENDMDL
MODEL 5
REMARK VINA RESULT:      -8.4      1.215      1.617
REMARK  Name = 
REMARK  2 active torsions:
REMARK  status: ('A' for Active; 'I' for Inactive)
REMARK    1  A    between atoms: C_4  and  C_5
REMARK    2  A    between atoms: C_15  and  C_16
REMARK                            x       y       z     vdW  Elec       q    Type
REMARK                         _______ _______ _______ _____ _____    ______ ____
ROOT
ATOM      1  O   UNL     1       2.205   4.564  21.367  0.00  0.00    +0.000 OA
ATOM      2  C   UNL     1       2.448   5.425  20.530  0.00  0.00    +0.000 A 
ATOM      3  C   UNL     1       3.508   5.226  19.509  0.00  0.00    +0.000 A 
ATOM      4  C   UNL     1       3.756   6.186  18.601  0.00  0.00    +0.000 A 
ATOM      5  C   UNL     1       2.984   7.419  18.629  0.00  0.00    +0.000 A 
ATOM      6  C   UNL     1       2.026   7.600  19.551  0.00  0.00    +0.000 A 
ATOM      7  N   UNL     1       1.776   6.620  20.478  0.00  0.00    +0.000 N 
ATOM      8  H   UNL     1       1.047   6.744  21.170  0.00  0.00    +0.000 HD
ENDROOT
BRANCH   4   9
ATOM      9  C   UNL     1       4.819   5.950  17.609  0.00  0.00    +0.000 A 
ATOM     10  C   UNL     1       6.126   6.430  17.844  0.00  0.00    +0.000 A 
ATOM     11  C   UNL     1       7.154   6.188  16.925  0.00  0.00    +0.000 A 
ATOM     12  C   UNL     1       6.842   5.471  15.791  0.00  0.00    +0.000 A 
ATOM     13  C   UNL     1       5.572   5.000  15.557  0.00  0.00    +0.000 A 
ATOM     14  C   UNL     1       4.538   5.219  16.445  0.00  0.00    +0.000 A 
ATOM     15  O   UNL     1       5.479   4.318  14.384  0.00  0.00    +0.000 OA
ATOM     16  C   UNL     1       6.826   4.452  13.885  0.00  0.00    +0.000 C 
ATOM     17  O   UNL     1       7.707   5.143  14.794  0.00  0.00    +0.000 OA
ENDBRANCH   4   9
BRANCH   6  18
ATOM     18  C   UNL     1       1.240   8.840  19.614  0.00  0.00    +0.000 A 
ATOM     19  C   UNL     1       0.759   9.382  18.411  0.00  0.00    +0.000 A 
ATOM     20  C   UNL     1      -0.001  10.555  18.415  0.00  0.00    +0.000 A 
ATOM     21  C   UNL     1      -0.285  11.192  19.620  0.00  0.00    +0.000 A 
ATOM     22 CL   UNL     1      -1.221  12.636  19.621  0.00  0.00    +0.000 Cl
ATOM     23  C   UNL     1       0.183  10.670  20.824  0.00  0.00    +0.000 A 
ATOM     24  C   UNL     1       0.943   9.498  20.821  0.00  0.00    +0.000 A 
ATOM     25 CL   UNL     1       1.503   8.900  22.344  0.00  0.00    +0.000 Cl
ENDBRANCH   6  18
TORSDOF 2
ENDMDL
MODEL 6
REMARK VINA RESULT:      -8.3      3.715      7.539
REMARK  Name = 
REMARK  2 active torsions:
REMARK  status: ('A' for Active; 'I' for Inactive)
REMARK    1  A    between atoms: C_4  and  C_5
REMARK    2  A    between atoms: C_15  and  C_16
REMARK                            x       y       z     vdW  Elec       q    Type
REMARK                         _______ _______ _______ _____ _____    ______ ____
ROOT
ATOM      1  O   UNL     1       1.778   3.646  21.283  0.00  0.00    +0.000 OA
ATOM      2  C   UNL     1       2.073   4.608  20.584  0.00  0.00    +0.000 A 
ATOM      3  C   UNL     1       1.555   5.966  20.888  0.00  0.00    +0.000 A 
ATOM      4  C   UNL     1       1.893   7.006  20.104  0.00  0.00    +0.000 A 
ATOM      5  C   UNL     1       2.764   6.789  18.959  0.00  0.00    +0.000 A 
ATOM      6  C   UNL     1       3.233   5.563  18.683  0.00  0.00    +0.000 A 
ATOM      7  N   UNL     1       2.885   4.503  19.483  0.00  0.00    +0.000 N 
ATOM      8  H   UNL     1       3.243   3.576  19.288  0.00  0.00    +0.000 HD
ENDROOT
BRANCH   4   9
ATOM      9  C   UNL     1       1.354   8.335  20.439  0.00  0.00    +0.000 A 
ATOM     10  C   UNL     1       1.019   8.647  21.774  0.00  0.00    +0.000 A 
ATOM     11  C   UNL     1       0.533   9.915  22.114  0.00  0.00    +0.000 A 
ATOM     12  C   UNL     1       0.393  10.839  21.101  0.00  0.00    +0.000 A 
ATOM     13  C   UNL     1       0.718  10.540  19.798  0.00  0.00    +0.000 A 
ATOM     14  C   UNL     1       1.203   9.301  19.433  0.00  0.00    +0.000 A 
ATOM     15  O   UNL     1       0.508  11.589  18.958  0.00  0.00    +0.000 OA
ATOM     16  C   UNL     1      -0.029  12.567  19.874  0.00  0.00    +0.000 C 
ATOM     17  O   UNL     1      -0.062  12.112  21.242  0.00  0.00    +0.000 OA
ENDBRANCH   4   9
BRANCH   6  18
ATOM     18  C   UNL     1       4.101   5.310  17.526  0.00  0.00    +0.000 A 
ATOM     19  C   UNL     1       4.660   6.415  16.862  0.00  0.00    +0.000 A 
ATOM     20  C   UNL     1       5.499   6.231  15.760  0.00  0.00    +0.000 A 
ATOM     21  C   UNL     1       5.786   4.943  15.316  0.00  0.00    +0.000 A 
ATOM     22 CL   UNL     1       6.820   4.721  13.958  0.00  0.00    +0.000 Cl
ATOM     23  C   UNL     1       5.242   3.834  15.960  0.00  0.00    +0.000 A 
ATOM     24  C   UNL     1       4.402   4.017  17.062  0.00  0.00    +0.000 A 
ATOM     25 CL   UNL     1       3.751   2.605  17.818  0.00  0.00    +0.000 Cl
ENDBRANCH   6  18
TORSDOF 2
ENDMDL
MODEL 7
REMARK VINA RESULT:      -8.3      3.503      7.775
REMARK  Name = 
REMARK  2 active torsions:
REMARK  status: ('A' for Active; 'I' for Inactive)
REMARK    1  A    between atoms: C_4  and  C_5
REMARK    2  A    between atoms: C_15  and  C_16
REMARK                            x       y       z     vdW  Elec       q    Type
REMARK                         _______ _______ _______ _____ _____    ______ ____
ROOT
ATOM      1  O   UNL     1       2.352   3.367  21.272  0.00  0.00    +0.000 OA
ATOM      2  C   UNL     1       2.600   4.351  20.586  0.00  0.00    +0.000 A 
ATOM      3  C   UNL     1       1.917   5.648  20.826  0.00  0.00    +0.000 A 
ATOM      4  C   UNL     1       2.208   6.714  20.058  0.00  0.00    +0.000 A 
ATOM      5  C   UNL     1       3.190   6.585  18.993  0.00  0.00    +0.000 A 
ATOM      6  C   UNL     1       3.809   5.415  18.775  0.00  0.00    +0.000 A 
ATOM      7  N   UNL     1       3.509   4.329  19.558  0.00  0.00    +0.000 N 
ATOM      8  H   UNL     1       3.979   3.445  19.407  0.00  0.00    +0.000 HD
ENDROOT
BRANCH   4   9
ATOM      9  C   UNL     1       1.504   7.978  20.327  0.00  0.00    +0.000 A 
ATOM     10  C   UNL     1       1.348   8.934  19.300  0.00  0.00    +0.000 A 
ATOM     11  C   UNL     1       0.656  10.130  19.531  0.00  0.00    +0.000 A 
ATOM     12  C   UNL     1       0.139  10.335  20.792  0.00  0.00    +0.000 A 
ATOM     13  C   UNL     1       0.287   9.408  21.796  0.00  0.00    +0.000 A 
ATOM     14  C   UNL     1       0.960   8.220  21.598  0.00  0.00    +0.000 A 
ATOM     15  O   UNL     1      -0.299   9.804  22.958  0.00  0.00    +0.000 OA
ATOM     16  C   UNL     1      -0.792  11.107  22.583  0.00  0.00    +0.000 C 
ATOM     17  O   UNL     1      -0.558  11.430  21.196  0.00  0.00    +0.000 OA
ENDBRANCH   4   9
BRANCH   6  18
ATOM     18  C   UNL     1       4.793   5.251  17.697  0.00  0.00    +0.000 A 
ATOM     19  C   UNL     1       4.318   5.061  16.389  0.00  0.00    +0.000 A 
ATOM     20  C   UNL     1       5.211   4.908  15.325  0.00  0.00    +0.000 A 
ATOM     21  C   UNL     1       6.583   4.945  15.562  0.00  0.00    +0.000 A 
ATOM     22 CL   UNL     1       7.679   4.756  14.249  0.00  0.00    +0.000 Cl
ATOM     23  C   UNL     1       7.074   5.132  16.851  0.00  0.00    +0.000 A 
ATOM     24  C   UNL     1       6.182   5.285  17.917  0.00  0.00    +0.000 A 
ATOM     25 CL   UNL     1       6.848   5.507  19.497  0.00  0.00    +0.000 Cl
ENDBRANCH   6  18
TORSDOF 2
ENDMDL
MODEL 8
REMARK VINA RESULT:      -8.2      3.509      7.514
REMARK  Name = 
REMARK  2 active torsions:
REMARK  status: ('A' for Active; 'I' for Inactive)
REMARK    1  A    between atoms: C_4  and  C_5
REMARK    2  A    between atoms: C_15  and  C_16
REMARK                            x       y       z     vdW  Elec       q    Type
REMARK                         _______ _______ _______ _____ _____    ______ ____
ROOT
ATOM      1  O   UNL     1       2.488   3.256  21.255  0.00  0.00    +0.000 OA
ATOM      2  C   UNL     1       2.706   4.229  20.544  0.00  0.00    +0.000 A 
ATOM      3  C   UNL     1       2.004   5.518  20.768  0.00  0.00    +0.000 A 
ATOM      4  C   UNL     1       2.261   6.571  19.972  0.00  0.00    +0.000 A 
ATOM      5  C   UNL     1       3.225   6.437  18.890  0.00  0.00    +0.000 A 
ATOM      6  C   UNL     1       3.861   5.273  18.687  0.00  0.00    +0.000 A 
ATOM      7  N   UNL     1       3.596   4.199  19.499  0.00  0.00    +0.000 N 
ATOM      8  H   UNL     1       4.078   3.320  19.359  0.00  0.00    +0.000 HD
ENDROOT
BRANCH   4   9
ATOM      9  C   UNL     1       1.539   7.829  20.226  0.00  0.00    +0.000 A 
ATOM     10  C   UNL     1       0.883   8.032  21.460  0.00  0.00    +0.000 A 
ATOM     11  C   UNL     1       0.217   9.233  21.730  0.00  0.00    +0.000 A 
ATOM     12  C   UNL     1       0.226  10.203  20.750  0.00  0.00    +0.000 A 
ATOM     13  C   UNL     1       0.863  10.011  19.547  0.00  0.00    +0.000 A 
ATOM     14  C   UNL     1       1.531   8.840  19.253  0.00  0.00    +0.000 A 
ATOM     15  O   UNL     1       0.753  11.089  18.724  0.00  0.00    +0.000 OA
ATOM     16  C   UNL     1      -0.066  11.963  19.530  0.00  0.00    +0.000 C 
ATOM     17  O   UNL     1      -0.365  11.424  20.835  0.00  0.00    +0.000 OA
ENDBRANCH   4   9
BRANCH   6  18
ATOM     18  C   UNL     1       4.827   5.102  17.594  0.00  0.00    +0.000 A 
ATOM     19  C   UNL     1       4.335   4.796  16.315  0.00  0.00    +0.000 A 
ATOM     20  C   UNL     1       5.209   4.631  15.238  0.00  0.00    +0.000 A 
ATOM     21  C   UNL     1       6.581   4.773  15.432  0.00  0.00    +0.000 A 
ATOM     22 CL   UNL     1       7.656   4.570  14.103  0.00  0.00    +0.000 Cl
ATOM     23  C   UNL     1       7.090   5.077  16.693  0.00  0.00    +0.000 A 
ATOM     24  C   UNL     1       6.216   5.241  17.771  0.00  0.00    +0.000 A 
ATOM     25 CL   UNL     1       6.904   5.610  19.314  0.00  0.00    +0.000 Cl
ENDBRANCH   6  18
TORSDOF 2
ENDMDL
MODEL 9
REMARK VINA RESULT:      -8.2      0.803      1.406
REMARK  Name = 
REMARK  2 active torsions:
REMARK  status: ('A' for Active; 'I' for Inactive)
REMARK    1  A    between atoms: C_4  and  C_5
REMARK    2  A    between atoms: C_15  and  C_16
REMARK                            x       y       z     vdW  Elec       q    Type
REMARK                         _______ _______ _______ _____ _____    ______ ____
ROOT
ATOM      1  O   UNL     1       2.121   3.697  21.908  0.00  0.00    +0.000 OA
ATOM      2  C   UNL     1       2.351   4.545  21.056  0.00  0.00    +0.000 A 
ATOM      3  C   UNL     1       3.184   4.234  19.867  0.00  0.00    +0.000 A 
ATOM      4  C   UNL     1       3.422   5.184  18.944  0.00  0.00    +0.000 A 
ATOM      5  C   UNL     1       2.862   6.515  19.122  0.00  0.00    +0.000 A 
ATOM      6  C   UNL     1       2.108   6.798  20.196  0.00  0.00    +0.000 A 
ATOM      7  N   UNL     1       1.869   5.828  21.136  0.00  0.00    +0.000 N 
ATOM      8  H   UNL     1       1.292   6.030  21.944  0.00  0.00    +0.000 HD
ENDROOT
BRANCH   4   9
ATOM      9  C   UNL     1       4.257   4.834  17.783  0.00  0.00    +0.000 A 
ATOM     10  C   UNL     1       3.963   3.681  17.022  0.00  0.00    +0.000 A 
ATOM     11  C   UNL     1       4.730   3.350  15.898  0.00  0.00    +0.000 A 
ATOM     12  C   UNL     1       5.775   4.186  15.567  0.00  0.00    +0.000 A 
ATOM     13  C   UNL     1       6.065   5.309  16.305  0.00  0.00    +0.000 A 
ATOM     14  C   UNL     1       5.327   5.664  17.415  0.00  0.00    +0.000 A 
ATOM     15  O   UNL     1       7.130   5.994  15.809  0.00  0.00    +0.000 OA
ATOM     16  C   UNL     1       7.505   5.147  14.702  0.00  0.00    +0.000 C 
ATOM     17  O   UNL     1       6.621   4.023  14.516  0.00  0.00    +0.000 OA
ENDBRANCH   4   9
BRANCH   6  18
ATOM     18  C   UNL     1       1.542   8.136  20.411  0.00  0.00    +0.000 A 
ATOM     19  C   UNL     1       1.199   8.508  21.721  0.00  0.00    +0.000 A 
ATOM     20  C   UNL     1       0.665   9.772  21.984  0.00  0.00    +0.000 A 
ATOM     21  C   UNL     1       0.473  10.673  20.939  0.00  0.00    +0.000 A 
ATOM     22 CL   UNL     1      -0.185  12.229  21.266  0.00  0.00    +0.000 Cl
ATOM     23  C   UNL     1       0.807  10.324  19.633  0.00  0.00    +0.000 A 
ATOM     24  C   UNL     1       1.341   9.059  19.369  0.00  0.00    +0.000 A 
ATOM     25 CL   UNL     1       1.731   8.678  17.728  0.00  0.00    +0.000 Cl
ENDBRANCH   6  18
TORSDOF 2
ENDMDL
