MODEL 1
REMARK VINA RESULT:      -7.6      0.000      0.000
REMARK  Name = 
REMARK  8 active torsions:
REMARK  status: ('A' for Active; 'I' for Inactive)
REMARK    1  A    between atoms: C_1  and  C_2
REMARK    2  A    between atoms: C_2  and  C_3
REMARK    3  A    between atoms: C_2  and  C_4
REMARK    4  A    between atoms: C_2  and  C_5
REMARK    5  A    between atoms: C_8  and  C_9
REMARK    6  A    between atoms: C_9  and  S_10
REMARK    7  A    between atoms: S_10  and  C_11
REMARK    8  A    between atoms: C_16  and  C_18
REMARK                            x       y       z     vdW  Elec       q    Type
REMARK                         _______ _______ _______ _____ _____    ______ ____
ROOT
ATOM      1  C   UNL     1       0.298  10.660  21.144  0.00  0.00    +0.000 A 
ATOM      2  C   UNL     1       0.529  10.404  19.806  0.00  0.00    +0.000 A 
ATOM      3  N   UNL     1       1.086   9.187  19.509  0.00  0.00    +0.000 NA
ATOM      4  C   UNL     1       1.281   8.507  20.611  0.00  0.00    +0.000 A 
ATOM      5  N   UNL     1       1.845   7.254  20.715  0.00  0.00    +0.000 N 
ATOM      6  C   UNL     1       2.505   6.715  19.625  0.00  0.00    +0.000 C 
ATOM      7  O   UNL     1       2.701   7.308  18.564  0.00  0.00    +0.000 OA
ATOM      8  S   UNL     1       0.765   9.273  22.055  0.00  0.00    +0.000 S 
ATOM      9  H   UNL     1       1.862   6.814  21.622  0.00  0.00    +0.000 HD
ENDROOT
BRANCH   6  10
ATOM     10  C   UNL     1       3.078   5.301  19.822  0.00  0.00    +0.000 C 
ATOM     11  C   UNL     1       2.277   4.445  20.809  0.00  0.00    +0.000 C 
ATOM     12  C   UNL     1       0.924   4.005  20.251  0.00  0.00    +0.000 C 
ATOM     13  C   UNL     1       1.057   3.290  18.910  0.00  0.00    +0.000 C 
ATOM     14  C   UNL     1       1.850   4.112  17.903  0.00  0.00    +0.000 C 
ATOM     15  C   UNL     1       3.200   4.566  18.470  0.00  0.00    +0.000 C 
ENDBRANCH   6  10
BRANCH   1  16
ATOM     16  S   UNL     1      -0.471  12.126  21.715  0.00  0.00    +0.000 S 
BRANCH  16  17
ATOM     17  C   UNL     1      -1.619  11.634  23.014  0.00  0.00    +0.000 C 
BRANCH  17  21
ATOM     18  C   UNL     1      -4.831  13.205  23.165  0.00  0.00    +0.000 A 
ATOM     19  C   UNL     1      -4.071  14.070  23.925  0.00  0.00    +0.000 A 
ATOM     20  N   UNL     1      -2.773  13.644  23.982  0.00  0.00    +0.000 NA
ATOM     21  C   UNL     1      -2.769  12.543  23.254  0.00  0.00    +0.000 A 
ATOM     22  O   UNL     1      -3.996  12.200  22.740  0.00  0.00    +0.000 OA
BRANCH  18  24
ATOM     23  C   UNL     1      -6.742  14.661  22.553  0.00  0.00    +0.000 C 
ATOM     24  C   UNL     1      -6.277  13.205  22.749  0.00  0.00    +0.000 C 
ATOM     25  C   UNL     1      -7.132  12.554  23.854  0.00  0.00    +0.000 C 
ATOM     26  C   UNL     1      -6.508  12.439  21.437  0.00  0.00    +0.000 C 
ENDBRANCH  18  24
ENDBRANCH  17  21
ENDBRANCH  16  17
ENDBRANCH   1  16
TORSDOF 5
ENDMDL
MODEL 2
REMARK VINA RESULT:      -7.4      8.489     10.889
REMARK  Name = 
REMARK  8 active torsions:
REMARK  status: ('A' for Active; 'I' for Inactive)
REMARK    1  A    between atoms: C_1  and  C_2
REMARK    2  A    between atoms: C_2  and  C_3
REMARK    3  A    between atoms: C_2  and  C_4
REMARK    4  A    between atoms: C_2  and  C_5
REMARK    5  A    between atoms: C_8  and  C_9
REMARK    6  A    between atoms: C_9  and  S_10
REMARK    7  A    between atoms: S_10  and  C_11
REMARK    8  A    between atoms: C_16  and  C_18
REMARK                            x       y       z     vdW  Elec       q    Type
REMARK                         _______ _______ _______ _____ _____    ______ ____
ROOT
ATOM      1  C   UNL     1       6.750   6.616  17.665  0.00  0.00    +0.000 A 
ATOM      2  C   UNL     1       7.321   5.627  18.443  0.00  0.00    +0.000 A 
ATOM      3  N   UNL     1       6.512   4.568  18.766  0.00  0.00    +0.000 NA
ATOM      4  C   UNL     1       5.325   4.738  18.239  0.00  0.00    +0.000 A 
ATOM      5  N   UNL     1       4.241   3.897  18.366  0.00  0.00    +0.000 N 
ATOM      6  C   UNL     1       4.269   2.895  19.319  0.00  0.00    +0.000 C 
ATOM      7  O   UNL     1       5.175   2.733  20.137  0.00  0.00    +0.000 OA
ATOM      8  S   UNL     1       5.132   6.153  17.290  0.00  0.00    +0.000 S 
ATOM      9  H   UNL     1       3.408   4.111  17.839  0.00  0.00    +0.000 HD
ENDROOT
BRANCH   6  10
ATOM     10  C   UNL     1       3.029   1.987  19.372  0.00  0.00    +0.000 C 
ATOM     11  C   UNL     1       2.262   2.068  20.697  0.00  0.00    +0.000 C 
ATOM     12  C   UNL     1       1.515   3.390  20.869  0.00  0.00    +0.000 C 
ATOM     13  C   UNL     1       0.585   3.685  19.696  0.00  0.00    +0.000 C 
ATOM     14  C   UNL     1       1.313   3.611  18.361  0.00  0.00    +0.000 C 
ATOM     15  C   UNL     1       2.075   2.292  18.196  0.00  0.00    +0.000 C 
ENDBRANCH   6  10
BRANCH   1  16
ATOM     16  S   UNL     1       7.641   8.010  17.090  0.00  0.00    +0.000 S 
BRANCH  16  17
ATOM     17  C   UNL     1       8.555   8.656  18.503  0.00  0.00    +0.000 C 
BRANCH  17  21
ATOM     18  C   UNL     1      10.055  11.884  18.873  0.00  0.00    +0.000 A 
ATOM     19  C   UNL     1       8.999  12.171  18.034  0.00  0.00    +0.000 A 
ATOM     20  N   UNL     1       8.272  11.043  17.774  0.00  0.00    +0.000 NA
ATOM     21  C   UNL     1       8.891  10.102  18.461  0.00  0.00    +0.000 A 
ATOM     22  O   UNL     1      10.003  10.537  19.142  0.00  0.00    +0.000 OA
BRANCH  18  24
ATOM     23  C   UNL     1      10.540  13.469  20.717  0.00  0.00    +0.000 C 
ATOM     24  C   UNL     1      11.130  12.732  19.498  0.00  0.00    +0.000 C 
ATOM     25  C   UNL     1      11.622  13.776  18.478  0.00  0.00    +0.000 C 
ATOM     26  C   UNL     1      12.333  11.899  19.968  0.00  0.00    +0.000 C 
ENDBRANCH  18  24
ENDBRANCH  17  21
ENDBRANCH  16  17
ENDBRANCH   1  16
TORSDOF 5
ENDMDL
MODEL 3
REMARK VINA RESULT:      -7.4      2.715      3.286
REMARK  Name = 
REMARK  8 active torsions:
REMARK  status: ('A' for Active; 'I' for Inactive)
REMARK    1  A    between atoms: C_1  and  C_2
REMARK    2  A    between atoms: C_2  and  C_3
REMARK    3  A    between atoms: C_2  and  C_4
REMARK    4  A    between atoms: C_2  and  C_5
REMARK    5  A    between atoms: C_8  and  C_9
REMARK    6  A    between atoms: C_9  and  S_10
REMARK    7  A    between atoms: S_10  and  C_11
REMARK    8  A    between atoms: C_16  and  C_18
REMARK                            x       y       z     vdW  Elec       q    Type
REMARK                         _______ _______ _______ _____ _____    ______ ____
ROOT
ATOM      1  C   UNL     1       1.020  10.413  19.275  0.00  0.00    +0.000 A 
ATOM      2  C   UNL     1       1.534   9.795  18.152  0.00  0.00    +0.000 A 
ATOM      3  N   UNL     1       1.963   8.503  18.314  0.00  0.00    +0.000 NA
ATOM      4  C   UNL     1       1.780   8.126  19.555  0.00  0.00    +0.000 A 
ATOM      5  N   UNL     1       2.112   6.905  20.102  0.00  0.00    +0.000 N 
ATOM      6  C   UNL     1       2.934   6.047  19.394  0.00  0.00    +0.000 C 
ATOM      7  O   UNL     1       3.470   6.320  18.319  0.00  0.00    +0.000 OA
ATOM      8  S   UNL     1       1.041   9.285  20.579  0.00  0.00    +0.000 S 
ATOM      9  H   UNL     1       1.841   6.721  21.055  0.00  0.00    +0.000 HD
ENDROOT
BRANCH   6  10
ATOM     10  C   UNL     1       3.229   4.696  20.067  0.00  0.00    +0.000 C 
ATOM     11  C   UNL     1       2.125   4.232  21.024  0.00  0.00    +0.000 C 
ATOM     12  C   UNL     1       0.857   3.788  20.296  0.00  0.00    +0.000 C 
ATOM     13  C   UNL     1       1.138   2.716  19.247  0.00  0.00    +0.000 C 
ATOM     14  C   UNL     1       2.232   3.143  18.278  0.00  0.00    +0.000 C 
ATOM     15  C   UNL     1       3.498   3.603  19.009  0.00  0.00    +0.000 C 
ENDBRANCH   6  10
BRANCH   1  16
ATOM     16  S   UNL     1       0.356  12.034  19.252  0.00  0.00    +0.000 S 
BRANCH  16  17
ATOM     17  C   UNL     1      -1.287  11.928  19.986  0.00  0.00    +0.000 C 
BRANCH  17  21
ATOM     18  C   UNL     1      -4.458  11.850  18.331  0.00  0.00    +0.000 A 
ATOM     19  C   UNL     1      -3.639  11.298  17.369  0.00  0.00    +0.000 A 
ATOM     20  N   UNL     1      -2.350  11.224  17.822  0.00  0.00    +0.000 NA
ATOM     21  C   UNL     1      -2.415  11.721  19.043  0.00  0.00    +0.000 A 
ATOM     22  O   UNL     1      -3.668  12.144  19.416  0.00  0.00    +0.000 OA
BRANCH  18  24
ATOM     23  C   UNL     1      -6.248  12.951  19.648  0.00  0.00    +0.000 C 
ATOM     24  C   UNL     1      -5.937  12.127  18.383  0.00  0.00    +0.000 C 
ATOM     25  C   UNL     1      -6.709  10.796  18.455  0.00  0.00    +0.000 C 
ATOM     26  C   UNL     1      -6.428  12.912  17.156  0.00  0.00    +0.000 C 
ENDBRANCH  18  24
ENDBRANCH  17  21
ENDBRANCH  16  17
ENDBRANCH   1  16
TORSDOF 5
ENDMDL
MODEL 4
REMARK VINA RESULT:      -7.4      1.794      2.275
REMARK  Name = 
REMARK  8 active torsions:
REMARK  status: ('A' for Active; 'I' for Inactive)
REMARK    1  A    between atoms: C_1  and  C_2
REMARK    2  A    between atoms: C_2  and  C_3
REMARK    3  A    between atoms: C_2  and  C_4
REMARK    4  A    between atoms: C_2  and  C_5
REMARK    5  A    between atoms: C_8  and  C_9
REMARK    6  A    between atoms: C_9  and  S_10
REMARK    7  A    between atoms: S_10  and  C_11
REMARK    8  A    between atoms: C_16  and  C_18
REMARK                            x       y       z     vdW  Elec       q    Type
REMARK                         _______ _______ _______ _____ _____    ______ ____
ROOT
ATOM      1  C   UNL     1      -0.005  10.620  21.334  0.00  0.00    +0.000 A 
ATOM      2  C   UNL     1       0.211  10.412  19.985  0.00  0.00    +0.000 A 
ATOM      3  N   UNL     1       0.846   9.245  19.647  0.00  0.00    +0.000 NA
ATOM      4  C   UNL     1       1.116   8.556  20.727  0.00  0.00    +0.000 A 
ATOM      5  N   UNL     1       1.770   7.345  20.788  0.00  0.00    +0.000 N 
ATOM      6  C   UNL     1       2.440   6.879  19.671  0.00  0.00    +0.000 C 
ATOM      7  O   UNL     1       2.568   7.508  18.620  0.00  0.00    +0.000 OA
ATOM      8  S   UNL     1       0.582   9.250  22.201  0.00  0.00    +0.000 S 
ATOM      9  H   UNL     1       1.841   6.887  21.684  0.00  0.00    +0.000 HD
ENDROOT
BRANCH   6  10
ATOM     10  C   UNL     1       3.118   5.507  19.820  0.00  0.00    +0.000 C 
ATOM     11  C   UNL     1       2.423   4.584  20.828  0.00  0.00    +0.000 C 
ATOM     12  C   UNL     1       1.080   4.058  20.321  0.00  0.00    +0.000 C 
ATOM     13  C   UNL     1       1.202   3.371  18.965  0.00  0.00    +0.000 C 
ATOM     14  C   UNL     1       1.892   4.259  17.938  0.00  0.00    +0.000 C 
ATOM     15  C   UNL     1       3.230   4.798  18.453  0.00  0.00    +0.000 C 
ENDBRANCH   6  10
BRANCH   1  16
ATOM     16  S   UNL     1      -0.864  12.014  21.957  0.00  0.00    +0.000 S 
BRANCH  16  17
ATOM     17  C   UNL     1      -1.456  12.936  20.527  0.00  0.00    +0.000 C 
BRANCH  17  21
ATOM     18  C   UNL     1      -4.884  12.216  19.796  0.00  0.00    +0.000 A 
ATOM     19  C   UNL     1      -4.259  11.727  18.668  0.00  0.00    +0.000 A 
ATOM     20  N   UNL     1      -2.906  11.898  18.757  0.00  0.00    +0.000 NA
ATOM     21  C   UNL     1      -2.737  12.475  19.932  0.00  0.00    +0.000 A 
ATOM     22  O   UNL     1      -3.904  12.720  20.616  0.00  0.00    +0.000 OA
BRANCH  18  24
ATOM     23  C   UNL     1      -7.075  13.307  19.397  0.00  0.00    +0.000 C 
ATOM     24  C   UNL     1      -6.323  12.255  20.236  0.00  0.00    +0.000 C 
ATOM     25  C   UNL     1      -6.397  12.659  21.721  0.00  0.00    +0.000 C 
ATOM     26  C   UNL     1      -7.026  10.899  20.062  0.00  0.00    +0.000 C 
ENDBRANCH  18  24
ENDBRANCH  17  21
ENDBRANCH  16  17
ENDBRANCH   1  16
TORSDOF 5
ENDMDL
MODEL 5
REMARK VINA RESULT:      -7.4      0.889      1.373
REMARK  Name = 
REMARK  8 active torsions:
REMARK  status: ('A' for Active; 'I' for Inactive)
REMARK    1  A    between atoms: C_1  and  C_2
REMARK    2  A    between atoms: C_2  and  C_3
REMARK    3  A    between atoms: C_2  and  C_4
REMARK    4  A    between atoms: C_2  and  C_5
REMARK    5  A    between atoms: C_8  and  C_9
REMARK    6  A    between atoms: C_9  and  S_10
REMARK    7  A    between atoms: S_10  and  C_11
REMARK    8  A    between atoms: C_16  and  C_18
REMARK                            x       y       z     vdW  Elec       q    Type
REMARK                         _______ _______ _______ _____ _____    ______ ____
ROOT
ATOM      1  C   UNL     1       0.196  10.763  21.117  0.00  0.00    +0.000 A 
ATOM      2  C   UNL     1       0.384  10.487  19.777  0.00  0.00    +0.000 A 
ATOM      3  N   UNL     1       0.961   9.279  19.482  0.00  0.00    +0.000 NA
ATOM      4  C   UNL     1       1.214   8.626  20.589  0.00  0.00    +0.000 A 
ATOM      5  N   UNL     1       1.813   7.389  20.695  0.00  0.00    +0.000 N 
ATOM      6  C   UNL     1       2.446   6.846  19.591  0.00  0.00    +0.000 C 
ATOM      7  O   UNL     1       2.587   7.422  18.512  0.00  0.00    +0.000 OA
ATOM      8  S   UNL     1       0.732   9.407  22.037  0.00  0.00    +0.000 S 
ATOM      9  H   UNL     1       1.876   6.968  21.609  0.00  0.00    +0.000 HD
ENDROOT
BRANCH   6  10
ATOM     10  C   UNL     1       3.062   5.451  19.793  0.00  0.00    +0.000 C 
ATOM     11  C   UNL     1       2.288   4.574  20.783  0.00  0.00    +0.000 C 
ATOM     12  C   UNL     1       0.949   4.091  20.226  0.00  0.00    +0.000 C 
ATOM     13  C   UNL     1       1.104   3.375  18.887  0.00  0.00    +0.000 C 
ATOM     14  C   UNL     1       1.872   4.218  17.878  0.00  0.00    +0.000 C 
ATOM     15  C   UNL     1       3.206   4.715  18.443  0.00  0.00    +0.000 C 
ENDBRANCH   6  10
BRANCH   1  16
ATOM     16  S   UNL     1      -0.589  12.221  21.689  0.00  0.00    +0.000 S 
BRANCH  16  17
ATOM     17  C   UNL     1      -1.657  11.729  23.055  0.00  0.00    +0.000 C 
BRANCH  17  21
ATOM     18  C   UNL     1      -4.866  12.986  22.091  0.00  0.00    +0.000 A 
ATOM     19  C   UNL     1      -5.052  12.779  23.441  0.00  0.00    +0.000 A 
ATOM     20  N   UNL     1      -3.908  12.299  24.015  0.00  0.00    +0.000 NA
ATOM     21  C   UNL     1      -3.053  12.234  23.011  0.00  0.00    +0.000 A 
ATOM     22  O   UNL     1      -3.575  12.618  21.799  0.00  0.00    +0.000 OA
BRANCH  18  24
ATOM     23  C   UNL     1      -5.664  12.595  19.776  0.00  0.00    +0.000 C 
ATOM     24  C   UNL     1      -5.756  13.524  21.002  0.00  0.00    +0.000 C 
ATOM     25  C   UNL     1      -5.282  14.932  20.596  0.00  0.00    +0.000 C 
ATOM     26  C   UNL     1      -7.228  13.609  21.440  0.00  0.00    +0.000 C 
ENDBRANCH  18  24
ENDBRANCH  17  21
ENDBRANCH  16  17
ENDBRANCH   1  16
TORSDOF 5
ENDMDL
MODEL 6
REMARK VINA RESULT:      -7.4      8.090     11.182
REMARK  Name = 
REMARK  8 active torsions:
REMARK  status: ('A' for Active; 'I' for Inactive)
REMARK    1  A    between atoms: C_1  and  C_2
REMARK    2  A    between atoms: C_2  and  C_3
REMARK    3  A    between atoms: C_2  and  C_4
REMARK    4  A    between atoms: C_2  and  C_5
REMARK    5  A    between atoms: C_8  and  C_9
REMARK    6  A    between atoms: C_9  and  S_10
REMARK    7  A    between atoms: S_10  and  C_11
REMARK    8  A    between atoms: C_16  and  C_18
REMARK                            x       y       z     vdW  Elec       q    Type
REMARK                         _______ _______ _______ _____ _____    ______ ____
ROOT
ATOM      1  C   UNL     1       7.307   5.922  17.483  0.00  0.00    +0.000 A 
ATOM      2  C   UNL     1       7.282   6.991  16.608  0.00  0.00    +0.000 A 
ATOM      3  N   UNL     1       7.838   8.158  17.063  0.00  0.00    +0.000 NA
ATOM      4  C   UNL     1       8.290   7.990  18.281  0.00  0.00    +0.000 A 
ATOM      5  N   UNL     1       8.891   8.944  19.074  0.00  0.00    +0.000 N 
ATOM      6  C   UNL     1       8.820  10.275  18.704  0.00  0.00    +0.000 C 
ATOM      7  O   UNL     1       8.185  10.699  17.738  0.00  0.00    +0.000 OA
ATOM      8  S   UNL     1       8.114   6.411  18.925  0.00  0.00    +0.000 S 
ATOM      9  H   UNL     1       9.264   8.655  19.965  0.00  0.00    +0.000 HD
ENDROOT
BRANCH   6  10
ATOM     10  C   UNL     1       9.542  11.267  19.632  0.00  0.00    +0.000 C 
ATOM     11  C   UNL     1      11.069  11.232  19.501  0.00  0.00    +0.000 C 
ATOM     12  C   UNL     1      11.565  11.835  18.187  0.00  0.00    +0.000 C 
ATOM     13  C   UNL     1      11.042  13.252  17.968  0.00  0.00    +0.000 C 
ATOM     14  C   UNL     1       9.526  13.325  18.093  0.00  0.00    +0.000 C 
ATOM     15  C   UNL     1       9.029  12.705  19.404  0.00  0.00    +0.000 C 
ENDBRANCH   6  10
BRANCH   1  16
ATOM     16  S   UNL     1       6.711   4.330  17.058  0.00  0.00    +0.000 S 
BRANCH  16  17
ATOM     17  C   UNL     1       4.936   4.496  16.797  0.00  0.00    +0.000 C 
BRANCH  17  21
ATOM     18  C   UNL     1       2.635   3.319  19.273  0.00  0.00    +0.000 A 
ATOM     19  C   UNL     1       2.924   2.153  18.597  0.00  0.00    +0.000 A 
ATOM     20  N   UNL     1       3.821   2.390  17.592  0.00  0.00    +0.000 NA
ATOM     21  C   UNL     1       4.063   3.684  17.684  0.00  0.00    +0.000 A 
ATOM     22  O   UNL     1       3.358   4.323  18.675  0.00  0.00    +0.000 OA
BRANCH  18  24
ATOM     23  C   UNL     1       2.272   2.834  21.677  0.00  0.00    +0.000 C 
ATOM     24  C   UNL     1       1.762   3.629  20.459  0.00  0.00    +0.000 C 
ATOM     25  C   UNL     1       0.312   3.201  20.158  0.00  0.00    +0.000 C 
ATOM     26  C   UNL     1       1.768   5.124  20.816  0.00  0.00    +0.000 C 
ENDBRANCH  18  24
ENDBRANCH  17  21
ENDBRANCH  16  17
ENDBRANCH   1  16
TORSDOF 5
ENDMDL
MODEL 7
REMARK VINA RESULT:      -7.4      1.170      1.818
REMARK  Name = 
REMARK  8 active torsions:
REMARK  status: ('A' for Active; 'I' for Inactive)
REMARK    1  A    between atoms: C_1  and  C_2
REMARK    2  A    between atoms: C_2  and  C_3
REMARK    3  A    between atoms: C_2  and  C_4
REMARK    4  A    between atoms: C_2  and  C_5
REMARK    5  A    between atoms: C_8  and  C_9
REMARK    6  A    between atoms: C_9  and  S_10
REMARK    7  A    between atoms: S_10  and  C_11
REMARK    8  A    between atoms: C_16  and  C_18
REMARK                            x       y       z     vdW  Elec       q    Type
REMARK                         _______ _______ _______ _____ _____    ______ ____
ROOT
ATOM      1  C   UNL     1       0.169  10.658  21.411  0.00  0.00    +0.000 A 
ATOM      2  C   UNL     1       0.319  10.466  20.051  0.00  0.00    +0.000 A 
ATOM      3  N   UNL     1       0.910   9.289  19.668  0.00  0.00    +0.000 NA
ATOM      4  C   UNL     1       1.212   8.578  20.725  0.00  0.00    +0.000 A 
ATOM      5  N   UNL     1       1.838   7.351  20.739  0.00  0.00    +0.000 N 
ATOM      6  C   UNL     1       2.446   6.887  19.586  0.00  0.00    +0.000 C 
ATOM      7  O   UNL     1       2.542   7.529  18.540  0.00  0.00    +0.000 OA
ATOM      8  S   UNL     1       0.760   9.262  22.231  0.00  0.00    +0.000 S 
ATOM      9  H   UNL     1       1.938   6.877  21.624  0.00  0.00    +0.000 HD
ENDROOT
BRANCH   6  10
ATOM     10  C   UNL     1       3.096   5.497  19.685  0.00  0.00    +0.000 C 
ATOM     11  C   UNL     1       2.434   4.580  20.721  0.00  0.00    +0.000 C 
ATOM     12  C   UNL     1       1.053   4.094  20.284  0.00  0.00    +0.000 C 
ATOM     13  C   UNL     1       1.084   3.418  18.917  0.00  0.00    +0.000 C 
ATOM     14  C   UNL     1       1.738   4.300  17.861  0.00  0.00    +0.000 C 
ATOM     15  C   UNL     1       3.115   4.800  18.307  0.00  0.00    +0.000 C 
ENDBRANCH   6  10
BRANCH   1  16
ATOM     16  S   UNL     1      -0.627  12.062  22.092  0.00  0.00    +0.000 S 
BRANCH  16  17
ATOM     17  C   UNL     1      -1.856  11.443  23.257  0.00  0.00    +0.000 C 
BRANCH  17  21
ATOM     18  C   UNL     1      -4.032  14.251  23.685  0.00  0.00    +0.000 A 
ATOM     19  C   UNL     1      -4.855  13.212  24.066  0.00  0.00    +0.000 A 
ATOM     20  N   UNL     1      -4.190  12.020  23.985  0.00  0.00    +0.000 NA
ATOM     21  C   UNL     1      -2.984  12.358  23.568  0.00  0.00    +0.000 A 
ATOM     22  O   UNL     1      -2.820  13.703  23.342  0.00  0.00    +0.000 OA
BRANCH  18  24
ATOM     23  C   UNL     1      -3.736  16.371  24.937  0.00  0.00    +0.000 C 
ATOM     24  C   UNL     1      -4.227  15.742  23.618  0.00  0.00    +0.000 C 
ATOM     25  C   UNL     1      -5.725  16.060  23.443  0.00  0.00    +0.000 C 
ATOM     26  C   UNL     1      -3.452  16.382  22.455  0.00  0.00    +0.000 C 
ENDBRANCH  18  24
ENDBRANCH  17  21
ENDBRANCH  16  17
ENDBRANCH   1  16
TORSDOF 5
ENDMDL
MODEL 8
REMARK VINA RESULT:      -7.3      0.986      1.149
REMARK  Name = 
REMARK  8 active torsions:
REMARK  status: ('A' for Active; 'I' for Inactive)
REMARK    1  A    between atoms: C_1  and  C_2
REMARK    2  A    between atoms: C_2  and  C_3
REMARK    3  A    between atoms: C_2  and  C_4
REMARK    4  A    between atoms: C_2  and  C_5
REMARK    5  A    between atoms: C_8  and  C_9
REMARK    6  A    between atoms: C_9  and  S_10
REMARK    7  A    between atoms: S_10  and  C_11
REMARK    8  A    between atoms: C_16  and  C_18
REMARK                            x       y       z     vdW  Elec       q    Type
REMARK                         _______ _______ _______ _____ _____    ______ ____
ROOT
ATOM      1  C   UNL     1       0.586  10.529  20.765  0.00  0.00    +0.000 A 
ATOM      2  C   UNL     1       0.901  10.212  19.458  0.00  0.00    +0.000 A 
ATOM      3  N   UNL     1       1.417   8.959  19.247  0.00  0.00    +0.000 NA
ATOM      4  C   UNL     1       1.497   8.313  20.383  0.00  0.00    +0.000 A 
ATOM      5  N   UNL     1       1.987   7.040  20.572  0.00  0.00    +0.000 N 
ATOM      6  C   UNL     1       2.698   6.429  19.554  0.00  0.00    +0.000 C 
ATOM      7  O   UNL     1       3.001   6.971  18.491  0.00  0.00    +0.000 OA
ATOM      8  S   UNL     1       0.914   9.157  21.757  0.00  0.00    +0.000 S 
ATOM      9  H   UNL     1       1.916   6.634  21.493  0.00  0.00    +0.000 HD
ENDROOT
BRANCH   6  10
ATOM     10  C   UNL     1       3.183   4.998  19.842  0.00  0.00    +0.000 C 
ATOM     11  C   UNL     1       2.377   4.282  20.931  0.00  0.00    +0.000 C 
ATOM     12  C   UNL     1       0.971   3.897  20.471  0.00  0.00    +0.000 C 
ATOM     13  C   UNL     1       0.989   3.069  19.190  0.00  0.00    +0.000 C 
ATOM     14  C   UNL     1       1.785   3.750  18.084  0.00  0.00    +0.000 C 
ATOM     15  C   UNL     1       3.188   4.150  18.551  0.00  0.00    +0.000 C 
ENDBRANCH   6  10
BRANCH   1  16
ATOM     16  S   UNL     1      -0.149  12.051  21.226  0.00  0.00    +0.000 S 
BRANCH  16  17
ATOM     17  C   UNL     1      -1.070  11.740  22.744  0.00  0.00    +0.000 C 
BRANCH  17  21
ATOM     18  C   UNL     1      -4.410  12.727  21.924  0.00  0.00    +0.000 A 
ATOM     19  C   UNL     1      -4.443  12.782  23.302  0.00  0.00    +0.000 A 
ATOM     20  N   UNL     1      -3.226  12.444  23.825  0.00  0.00    +0.000 NA
ATOM     21  C   UNL     1      -2.482  12.201  22.762  0.00  0.00    +0.000 A 
ATOM     22  O   UNL     1      -3.144  12.333  21.565  0.00  0.00    +0.000 OA
BRANCH  18  24
ATOM     23  C   UNL     1      -5.537  14.553  20.682  0.00  0.00    +0.000 C 
ATOM     24  C   UNL     1      -5.433  13.026  20.860  0.00  0.00    +0.000 C 
ATOM     25  C   UNL     1      -6.806  12.481  21.297  0.00  0.00    +0.000 C 
ATOM     26  C   UNL     1      -5.066  12.400  19.505  0.00  0.00    +0.000 C 
ENDBRANCH  18  24
ENDBRANCH  17  21
ENDBRANCH  16  17
ENDBRANCH   1  16
TORSDOF 5
ENDMDL
MODEL 9
REMARK VINA RESULT:      -7.3      4.242     10.403
REMARK  Name = 
REMARK  8 active torsions:
REMARK  status: ('A' for Active; 'I' for Inactive)
REMARK    1  A    between atoms: C_1  and  C_2
REMARK    2  A    between atoms: C_2  and  C_3
REMARK    3  A    between atoms: C_2  and  C_4
REMARK    4  A    between atoms: C_2  and  C_5
REMARK    5  A    between atoms: C_8  and  C_9
REMARK    6  A    between atoms: C_9  and  S_10
REMARK    7  A    between atoms: S_10  and  C_11
REMARK    8  A    between atoms: C_16  and  C_18
REMARK                            x       y       z     vdW  Elec       q    Type
REMARK                         _______ _______ _______ _____ _____    ______ ____
ROOT
ATOM      1  C   UNL     1       1.777   3.996  19.153  0.00  0.00    +0.000 A 
ATOM      2  C   UNL     1       1.852   5.023  18.233  0.00  0.00    +0.000 A 
ATOM      3  N   UNL     1       1.896   6.294  18.747  0.00  0.00    +0.000 NA
ATOM      4  C   UNL     1       1.857   6.246  20.055  0.00  0.00    +0.000 A 
ATOM      5  N   UNL     1       1.856   7.320  20.918  0.00  0.00    +0.000 N 
ATOM      6  C   UNL     1       1.630   8.591  20.418  0.00  0.00    +0.000 C 
ATOM      7  O   UNL     1       1.348   8.840  19.246  0.00  0.00    +0.000 OA
ATOM      8  S   UNL     1       1.812   4.674  20.738  0.00  0.00    +0.000 S 
ATOM      9  H   UNL     1       1.904   7.136  21.908  0.00  0.00    +0.000 HD
ENDROOT
BRANCH   6  10
ATOM     10  C   UNL     1       1.676   9.732  21.447  0.00  0.00    +0.000 C 
ATOM     11  C   UNL     1       1.062  11.043  20.940  0.00  0.00    +0.000 C 
ATOM     12  C   UNL     1      -0.460  10.978  20.822  0.00  0.00    +0.000 C 
ATOM     13  C   UNL     1      -1.123  10.549  22.128  0.00  0.00    +0.000 C 
ATOM     14  C   UNL     1      -0.536   9.250  22.664  0.00  0.00    +0.000 C 
ATOM     15  C   UNL     1       0.992   9.310  22.766  0.00  0.00    +0.000 C 
ENDBRANCH   6  10
BRANCH   1  16
ATOM     16  S   UNL     1       1.785   2.304  18.696  0.00  0.00    +0.000 S 
BRANCH  16  17
ATOM     17  C   UNL     1       3.476   1.910  18.211  0.00  0.00    +0.000 C 
BRANCH  17  21
ATOM     18  C   UNL     1       5.642   4.690  17.594  0.00  0.00    +0.000 A 
ATOM     19  C   UNL     1       5.816   4.509  18.949  0.00  0.00    +0.000 A 
ATOM     20  N   UNL     1       5.064   3.456  19.393  0.00  0.00    +0.000 NA
ATOM     21  C   UNL     1       4.461   3.017  18.304  0.00  0.00    +0.000 A 
ATOM     22  O   UNL     1       4.749   3.737  17.168  0.00  0.00    +0.000 OA
BRANCH  18  24
ATOM     23  C   UNL     1       5.107   6.507  15.993  0.00  0.00    +0.000 C 
ATOM     24  C   UNL     1       6.237   5.655  16.603  0.00  0.00    +0.000 C 
ATOM     25  C   UNL     1       6.932   4.870  15.473  0.00  0.00    +0.000 C 
ATOM     26  C   UNL     1       7.265   6.597  17.249  0.00  0.00    +0.000 C 
ENDBRANCH  18  24
ENDBRANCH  17  21
ENDBRANCH  16  17
ENDBRANCH   1  16
TORSDOF 5
ENDMDL
