MODEL 1
REMARK VINA RESULT:      -6.8      0.000      0.000
REMARK  Name = 
REMARK  5 active torsions:
REMARK  status: ('A' for Active; 'I' for Inactive)
REMARK    1  A    between atoms: C_1  and  O_2
REMARK    2  A    between atoms: O_2  and  C_3
REMARK    3  A    between atoms: C_3  and  C_5
REMARK    4  A    between atoms: C_9  and  C_10
REMARK    5  A    between atoms: C_10  and  O_11
REMARK                            x       y       z     vdW  Elec       q    Type
REMARK                         _______ _______ _______ _____ _____    ______ ____
ROOT
ATOM      1  C   UNL     1       1.967   3.877  18.897  0.00  0.00    +0.000 A 
ATOM      2  N   UNL     1       2.064   5.253  18.937  0.00  0.00    +0.000 NA
ATOM      3  C   UNL     1       3.080   5.558  18.162  0.00  0.00    +0.000 A 
ATOM      4  N   UNL     1       3.655   4.447  17.589  0.00  0.00    +0.000 N 
ATOM      5  C   UNL     1       2.959   3.348  18.069  0.00  0.00    +0.000 A 
ATOM      6  C   UNL     1       4.756   4.595  16.717  0.00  0.00    +0.000 A 
ATOM      7  C   UNL     1       5.250   3.583  15.892  0.00  0.00    +0.000 A 
ATOM      8  C   UNL     1       6.385   3.818  15.109  0.00  0.00    +0.000 A 
ATOM      9  C   UNL     1       7.022   5.058  15.137  0.00  0.00    +0.000 A 
ATOM     10  C   UNL     1       6.520   6.077  15.944  0.00  0.00    +0.000 A 
ATOM     11  C   UNL     1       5.380   5.852  16.716  0.00  0.00    +0.000 A 
ATOM     12  O   UNL     1       4.976   6.890  17.515  0.00  0.00    +0.000 OA
ATOM     13  C   UNL     1       3.568   6.909  17.796  0.00  0.00    +0.000 C 
ENDROOT
BRANCH   1  14
ATOM     14  C   UNL     1       0.955   3.125  19.653  0.00  0.00    +0.000 C 
ATOM     15  O   UNL     1       0.139   2.377  19.127  0.00  0.00    +0.000 OA
BRANCH  14  17
ATOM     16  C   UNL     1       2.106   2.706  21.654  0.00  0.00    +0.000 C 
ATOM     17  O   UNL     1       1.023   3.359  20.996  0.00  0.00    +0.000 OA
ENDBRANCH  14  17
ENDBRANCH   1  14
BRANCH   5  18
ATOM     18  C   UNL     1       3.279   1.930  17.798  0.00  0.00    +0.000 C 
BRANCH  18  19
ATOM     19  O   UNL     1       4.206   1.527  18.790  0.00  0.00    +0.000 OA
ATOM     20  H   UNL     1       4.030   2.080  19.572  0.00  0.00    +0.000 HD
ENDBRANCH  18  19
ENDBRANCH   5  18
TORSDOF 4
ENDMDL
MODEL 2
REMARK VINA RESULT:      -6.7      2.185      6.045
REMARK  Name = 
REMARK  5 active torsions:
REMARK  status: ('A' for Active; 'I' for Inactive)
REMARK    1  A    between atoms: C_1  and  O_2
REMARK    2  A    between atoms: O_2  and  C_3
REMARK    3  A    between atoms: C_3  and  C_5
REMARK    4  A    between atoms: C_9  and  C_10
REMARK    5  A    between atoms: C_10  and  O_11
REMARK                            x       y       z     vdW  Elec       q    Type
REMARK                         _______ _______ _______ _____ _____    ______ ____
ROOT
ATOM      1  C   UNL     1       5.561   4.419  15.805  0.00  0.00    +0.000 A 
ATOM      2  N   UNL     1       5.136   3.227  16.354  0.00  0.00    +0.000 NA
ATOM      3  C   UNL     1       4.338   3.558  17.343  0.00  0.00    +0.000 A 
ATOM      4  N   UNL     1       4.194   4.922  17.467  0.00  0.00    +0.000 N 
ATOM      5  C   UNL     1       4.994   5.495  16.491  0.00  0.00    +0.000 A 
ATOM      6  C   UNL     1       3.360   5.452  18.476  0.00  0.00    +0.000 A 
ATOM      7  C   UNL     1       2.944   6.783  18.535  0.00  0.00    +0.000 A 
ATOM      8  C   UNL     1       2.165   7.219  19.612  0.00  0.00    +0.000 A 
ATOM      9  C   UNL     1       1.793   6.335  20.623  0.00  0.00    +0.000 A 
ATOM     10  C   UNL     1       2.190   5.001  20.557  0.00  0.00    +0.000 A 
ATOM     11  C   UNL     1       2.954   4.557  19.478  0.00  0.00    +0.000 A 
ATOM     12  O   UNL     1       3.340   3.242  19.510  0.00  0.00    +0.000 OA
ATOM     13  C   UNL     1       3.552   2.654  18.217  0.00  0.00    +0.000 C 
ENDROOT
BRANCH   1  14
ATOM     14  C   UNL     1       6.493   4.488  14.670  0.00  0.00    +0.000 C 
ATOM     15  O   UNL     1       7.485   5.209  14.657  0.00  0.00    +0.000 OA
BRANCH  14  17
ATOM     16  C   UNL     1       6.799   3.938  12.411  0.00  0.00    +0.000 C 
ATOM     17  O   UNL     1       6.128   3.672  13.640  0.00  0.00    +0.000 OA
ENDBRANCH  14  17
ENDBRANCH   1  14
BRANCH   5  18
ATOM     18  C   UNL     1       5.230   6.942  16.299  0.00  0.00    +0.000 C 
BRANCH  18  19
ATOM     19  O   UNL     1       6.541   7.204  16.770  0.00  0.00    +0.000 OA
ATOM     20  H   UNL     1       7.057   6.394  16.613  0.00  0.00    +0.000 HD
ENDBRANCH  18  19
ENDBRANCH   5  18
TORSDOF 4
ENDMDL
MODEL 3
REMARK VINA RESULT:      -6.7      1.020      1.478
REMARK  Name = 
REMARK  5 active torsions:
REMARK  status: ('A' for Active; 'I' for Inactive)
REMARK    1  A    between atoms: C_1  and  O_2
REMARK    2  A    between atoms: O_2  and  C_3
REMARK    3  A    between atoms: C_3  and  C_5
REMARK    4  A    between atoms: C_9  and  C_10
REMARK    5  A    between atoms: C_10  and  O_11
REMARK                            x       y       z     vdW  Elec       q    Type
REMARK                         _______ _______ _______ _____ _____    ______ ____
ROOT
ATOM      1  C   UNL     1       2.562   4.089  20.104  0.00  0.00    +0.000 A 
ATOM      2  N   UNL     1       2.320   5.427  19.870  0.00  0.00    +0.000 NA
ATOM      3  C   UNL     1       3.019   5.731  18.800  0.00  0.00    +0.000 A 
ATOM      4  N   UNL     1       3.702   4.648  18.296  0.00  0.00    +0.000 N 
ATOM      5  C   UNL     1       3.433   3.581  19.139  0.00  0.00    +0.000 A 
ATOM      6  C   UNL     1       4.498   4.795  17.138  0.00  0.00    +0.000 A 
ATOM      7  C   UNL     1       5.023   3.732  16.402  0.00  0.00    +0.000 A 
ATOM      8  C   UNL     1       5.849   3.989  15.303  0.00  0.00    +0.000 A 
ATOM      9  C   UNL     1       6.146   5.299  14.930  0.00  0.00    +0.000 A 
ATOM     10  C   UNL     1       5.608   6.364  15.651  0.00  0.00    +0.000 A 
ATOM     11  C   UNL     1       4.772   6.112  16.739  0.00  0.00    +0.000 A 
ATOM     12  O   UNL     1       4.319   7.212  17.421  0.00  0.00    +0.000 OA
ATOM     13  C   UNL     1       3.057   7.025  18.078  0.00  0.00    +0.000 C 
ENDROOT
BRANCH   1  14
ATOM     14  C   UNL     1       1.973   3.357  21.235  0.00  0.00    +0.000 C 
ATOM     15  O   UNL     1       2.559   3.174  22.297  0.00  0.00    +0.000 OA
BRANCH  14  17
ATOM     16  C   UNL     1       0.485   2.575  19.599  0.00  0.00    +0.000 C 
ATOM     17  O   UNL     1       0.715   2.903  20.968  0.00  0.00    +0.000 OA
ENDBRANCH  14  17
ENDBRANCH   1  14
BRANCH   5  18
ATOM     18  C   UNL     1       4.023   2.229  19.046  0.00  0.00    +0.000 C 
BRANCH  18  19
ATOM     19  O   UNL     1       5.133   2.209  19.927  0.00  0.00    +0.000 OA
ATOM     20  H   UNL     1       5.351   1.272  20.074  0.00  0.00    +0.000 HD
ENDBRANCH  18  19
ENDBRANCH   5  18
TORSDOF 4
ENDMDL
MODEL 4
REMARK VINA RESULT:      -6.7      1.958      2.297
REMARK  Name = 
REMARK  5 active torsions:
REMARK  status: ('A' for Active; 'I' for Inactive)
REMARK    1  A    between atoms: C_1  and  O_2
REMARK    2  A    between atoms: O_2  and  C_3
REMARK    3  A    between atoms: C_3  and  C_5
REMARK    4  A    between atoms: C_9  and  C_10
REMARK    5  A    between atoms: C_10  and  O_11
REMARK                            x       y       z     vdW  Elec       q    Type
REMARK                         _______ _______ _______ _____ _____    ______ ____
ROOT
ATOM      1  C   UNL     1       3.897   3.475  19.707  0.00  0.00    +0.000 A 
ATOM      2  N   UNL     1       4.979   4.231  20.107  0.00  0.00    +0.000 NA
ATOM      3  C   UNL     1       5.622   4.539  19.005  0.00  0.00    +0.000 A 
ATOM      4  N   UNL     1       5.006   4.038  17.880  0.00  0.00    +0.000 N 
ATOM      5  C   UNL     1       3.897   3.330  18.318  0.00  0.00    +0.000 A 
ATOM      6  C   UNL     1       5.561   4.284  16.605  0.00  0.00    +0.000 A 
ATOM      7  C   UNL     1       4.899   4.049  15.399  0.00  0.00    +0.000 A 
ATOM      8  C   UNL     1       5.563   4.272  14.188  0.00  0.00    +0.000 A 
ATOM      9  C   UNL     1       6.878   4.736  14.174  0.00  0.00    +0.000 A 
ATOM     10  C   UNL     1       7.534   4.991  15.376  0.00  0.00    +0.000 A 
ATOM     11  C   UNL     1       6.872   4.784  16.586  0.00  0.00    +0.000 A 
ATOM     12  O   UNL     1       7.602   5.017  17.723  0.00  0.00    +0.000 OA
ATOM     13  C   UNL     1       6.819   5.403  18.863  0.00  0.00    +0.000 C 
ENDROOT
BRANCH   1  14
ATOM     14  C   UNL     1       2.922   2.912  20.652  0.00  0.00    +0.000 C 
ATOM     15  O   UNL     1       3.243   2.308  21.671  0.00  0.00    +0.000 OA
BRANCH  14  17
ATOM     16  C   UNL     1       1.152   4.446  20.530  0.00  0.00    +0.000 C 
ATOM     17  O   UNL     1       1.631   3.129  20.267  0.00  0.00    +0.000 OA
ENDBRANCH  14  17
ENDBRANCH   1  14
BRANCH   5  18
ATOM     18  C   UNL     1       2.980   2.540  17.470  0.00  0.00    +0.000 C 
BRANCH  18  19
ATOM     19  O   UNL     1       1.849   3.357  17.224  0.00  0.00    +0.000 OA
ATOM     20  H   UNL     1       1.257   3.245  17.989  0.00  0.00    +0.000 HD
ENDBRANCH  18  19
ENDBRANCH   5  18
TORSDOF 4
ENDMDL
MODEL 5
REMARK VINA RESULT:      -6.6      1.829      2.132
REMARK  Name = 
REMARK  5 active torsions:
REMARK  status: ('A' for Active; 'I' for Inactive)
REMARK    1  A    between atoms: C_1  and  O_2
REMARK    2  A    between atoms: O_2  and  C_3
REMARK    3  A    between atoms: C_3  and  C_5
REMARK    4  A    between atoms: C_9  and  C_10
REMARK    5  A    between atoms: C_10  and  O_11
REMARK                            x       y       z     vdW  Elec       q    Type
REMARK                         _______ _______ _______ _____ _____    ______ ____
ROOT
ATOM      1  C   UNL     1       3.773   4.592  19.447  0.00  0.00    +0.000 A 
ATOM      2  N   UNL     1       4.940   5.272  19.729  0.00  0.00    +0.000 NA
ATOM      3  C   UNL     1       5.613   5.301  18.602  0.00  0.00    +0.000 A 
ATOM      4  N   UNL     1       4.938   4.687  17.571  0.00  0.00    +0.000 N 
ATOM      5  C   UNL     1       3.752   4.206  18.105  0.00  0.00    +0.000 A 
ATOM      6  C   UNL     1       5.515   4.636  16.284  0.00  0.00    +0.000 A 
ATOM      7  C   UNL     1       4.826   4.274  15.125  0.00  0.00    +0.000 A 
ATOM      8  C   UNL     1       5.509   4.199  13.906  0.00  0.00    +0.000 A 
ATOM      9  C   UNL     1       6.870   4.492  13.836  0.00  0.00    +0.000 A 
ATOM     10  C   UNL     1       7.556   4.874  14.987  0.00  0.00    +0.000 A 
ATOM     11  C   UNL     1       6.877   4.964  16.202  0.00  0.00    +0.000 A 
ATOM     12  O   UNL     1       7.633   5.304  17.294  0.00  0.00    +0.000 OA
ATOM     13  C   UNL     1       6.906   5.976  18.334  0.00  0.00    +0.000 C 
ENDROOT
BRANCH   1  14
ATOM     14  C   UNL     1       2.739   4.325  20.458  0.00  0.00    +0.000 C 
ATOM     15  O   UNL     1       1.993   5.191  20.903  0.00  0.00    +0.000 OA
BRANCH  14  17
ATOM     16  C   UNL     1       1.540   2.644  21.569  0.00  0.00    +0.000 C 
ATOM     17  O   UNL     1       2.711   3.018  20.846  0.00  0.00    +0.000 OA
ENDBRANCH  14  17
ENDBRANCH   1  14
BRANCH   5  18
ATOM     18  C   UNL     1       2.743   3.394  17.392  0.00  0.00    +0.000 C 
BRANCH  18  19
ATOM     19  O   UNL     1       2.880   2.067  17.868  0.00  0.00    +0.000 OA
ATOM     20  H   UNL     1       1.988   1.776  18.130  0.00  0.00    +0.000 HD
ENDBRANCH  18  19
ENDBRANCH   5  18
TORSDOF 4
ENDMDL
MODEL 6
REMARK VINA RESULT:      -6.6      2.373      4.846
REMARK  Name = 
REMARK  5 active torsions:
REMARK  status: ('A' for Active; 'I' for Inactive)
REMARK    1  A    between atoms: C_1  and  O_2
REMARK    2  A    between atoms: O_2  and  C_3
REMARK    3  A    between atoms: C_3  and  C_5
REMARK    4  A    between atoms: C_9  and  C_10
REMARK    5  A    between atoms: C_10  and  O_11
REMARK                            x       y       z     vdW  Elec       q    Type
REMARK                         _______ _______ _______ _____ _____    ______ ____
ROOT
ATOM      1  C   UNL     1       3.625   4.082  19.305  0.00  0.00    +0.000 A 
ATOM      2  N   UNL     1       4.182   4.816  18.279  0.00  0.00    +0.000 NA
ATOM      3  C   UNL     1       3.645   6.011  18.367  0.00  0.00    +0.000 A 
ATOM      4  N   UNL     1       2.767   6.115  19.423  0.00  0.00    +0.000 N 
ATOM      5  C   UNL     1       2.728   4.869  20.030  0.00  0.00    +0.000 A 
ATOM      6  C   UNL     1       2.106   7.337  19.670  0.00  0.00    +0.000 A 
ATOM      7  C   UNL     1       1.403   7.631  20.840  0.00  0.00    +0.000 A 
ATOM      8  C   UNL     1       0.733   8.853  20.959  0.00  0.00    +0.000 A 
ATOM      9  C   UNL     1       0.769   9.786  19.924  0.00  0.00    +0.000 A 
ATOM     10  C   UNL     1       1.487   9.505  18.763  0.00  0.00    +0.000 A 
ATOM     11  C   UNL     1       2.168   8.294  18.645  0.00  0.00    +0.000 A 
ATOM     12  O   UNL     1       2.814   8.076  17.455  0.00  0.00    +0.000 OA
ATOM     13  C   UNL     1       3.953   7.208  17.548  0.00  0.00    +0.000 C 
ENDROOT
BRANCH   1  14
ATOM     14  C   UNL     1       3.954   2.669  19.546  0.00  0.00    +0.000 C 
ATOM     15  O   UNL     1       5.015   2.298  20.037  0.00  0.00    +0.000 OA
BRANCH  14  17
ATOM     16  C   UNL     1       2.516   2.011  17.814  0.00  0.00    +0.000 C 
ATOM     17  O   UNL     1       2.955   1.825  19.158  0.00  0.00    +0.000 OA
ENDBRANCH  14  17
ENDBRANCH   1  14
BRANCH   5  18
ATOM     18  C   UNL     1       1.852   4.476  21.153  0.00  0.00    +0.000 C 
BRANCH  18  19
ATOM     19  O   UNL     1       0.798   3.709  20.597  0.00  0.00    +0.000 OA
ATOM     20  H   UNL     1       0.050   3.780  21.217  0.00  0.00    +0.000 HD
ENDBRANCH  18  19
ENDBRANCH   5  18
TORSDOF 4
ENDMDL
MODEL 7
REMARK VINA RESULT:      -6.6      1.979      5.889
REMARK  Name = 
REMARK  5 active torsions:
REMARK  status: ('A' for Active; 'I' for Inactive)
REMARK    1  A    between atoms: C_1  and  O_2
REMARK    2  A    between atoms: O_2  and  C_3
REMARK    3  A    between atoms: C_3  and  C_5
REMARK    4  A    between atoms: C_9  and  C_10
REMARK    5  A    between atoms: C_10  and  O_11
REMARK                            x       y       z     vdW  Elec       q    Type
REMARK                         _______ _______ _______ _____ _____    ______ ____
ROOT
ATOM      1  C   UNL     1       5.650   4.758  17.015  0.00  0.00    +0.000 A 
ATOM      2  N   UNL     1       4.747   4.061  16.239  0.00  0.00    +0.000 NA
ATOM      3  C   UNL     1       3.802   3.669  17.063  0.00  0.00    +0.000 A 
ATOM      4  N   UNL     1       4.024   4.091  18.355  0.00  0.00    +0.000 N 
ATOM      5  C   UNL     1       5.226   4.782  18.345  0.00  0.00    +0.000 A 
ATOM      6  C   UNL     1       3.099   3.765  19.370  0.00  0.00    +0.000 A 
ATOM      7  C   UNL     1       3.086   4.343  20.640  0.00  0.00    +0.000 A 
ATOM      8  C   UNL     1       2.161   3.905  21.594  0.00  0.00    +0.000 A 
ATOM      9  C   UNL     1       1.244   2.902  21.283  0.00  0.00    +0.000 A 
ATOM     10  C   UNL     1       1.240   2.337  20.010  0.00  0.00    +0.000 A 
ATOM     11  C   UNL     1       2.151   2.780  19.051  0.00  0.00    +0.000 A 
ATOM     12  O   UNL     1       2.111   2.143  17.838  0.00  0.00    +0.000 OA
ATOM     13  C   UNL     1       2.551   2.945  16.732  0.00  0.00    +0.000 C 
ENDROOT
BRANCH   1  14
ATOM     14  C   UNL     1       6.878   5.354  16.469  0.00  0.00    +0.000 C 
ATOM     15  O   UNL     1       7.888   4.706  16.218  0.00  0.00    +0.000 OA
BRANCH  14  17
ATOM     16  C   UNL     1       7.518   7.487  17.207  0.00  0.00    +0.000 C 
ATOM     17  O   UNL     1       6.769   6.702  16.283  0.00  0.00    +0.000 OA
ENDBRANCH  14  17
ENDBRANCH   1  14
BRANCH   5  18
ATOM     18  C   UNL     1       5.917   5.341  19.526  0.00  0.00    +0.000 C 
BRANCH  18  19
ATOM     19  O   UNL     1       7.265   4.911  19.449  0.00  0.00    +0.000 OA
ATOM     20  H   UNL     1       7.813   5.714  19.508  0.00  0.00    +0.000 HD
ENDBRANCH  18  19
ENDBRANCH   5  18
TORSDOF 4
ENDMDL
MODEL 8
REMARK VINA RESULT:      -6.6      2.023      6.026
REMARK  Name = 
REMARK  5 active torsions:
REMARK  status: ('A' for Active; 'I' for Inactive)
REMARK    1  A    between atoms: C_1  and  O_2
REMARK    2  A    between atoms: O_2  and  C_3
REMARK    3  A    between atoms: C_3  and  C_5
REMARK    4  A    between atoms: C_9  and  C_10
REMARK    5  A    between atoms: C_10  and  O_11
REMARK                            x       y       z     vdW  Elec       q    Type
REMARK                         _______ _______ _______ _____ _____    ______ ____
ROOT
ATOM      1  C   UNL     1       5.809   4.309  16.980  0.00  0.00    +0.000 A 
ATOM      2  N   UNL     1       5.000   3.368  16.377  0.00  0.00    +0.000 NA
ATOM      3  C   UNL     1       4.005   3.172  17.211  0.00  0.00    +0.000 A 
ATOM      4  N   UNL     1       4.103   3.955  18.339  0.00  0.00    +0.000 N 
ATOM      5  C   UNL     1       5.276   4.684  18.214  0.00  0.00    +0.000 A 
ATOM      6  C   UNL     1       3.109   3.877  19.338  0.00  0.00    +0.000 A 
ATOM      7  C   UNL     1       2.969   4.790  20.385  0.00  0.00    +0.000 A 
ATOM      8  C   UNL     1       1.984   4.586  21.357  0.00  0.00    +0.000 A 
ATOM      9  C   UNL     1       1.133   3.484  21.286  0.00  0.00    +0.000 A 
ATOM     10  C   UNL     1       1.256   2.582  20.232  0.00  0.00    +0.000 A 
ATOM     11  C   UNL     1       2.227   2.788  19.251  0.00  0.00    +0.000 A 
ATOM     12  O   UNL     1       2.312   1.831  18.273  0.00  0.00    +0.000 OA
ATOM     13  C   UNL     1       2.814   2.311  17.016  0.00  0.00    +0.000 C 
ENDROOT
BRANCH   1  14
ATOM     14  C   UNL     1       7.056   4.798  16.372  0.00  0.00    +0.000 C 
ATOM     15  O   UNL     1       8.169   4.535  16.814  0.00  0.00    +0.000 OA
BRANCH  14  17
ATOM     16  C   UNL     1       7.037   4.911  14.030  0.00  0.00    +0.000 C 
ATOM     17  O   UNL     1       6.834   5.576  15.274  0.00  0.00    +0.000 OA
ENDBRANCH  14  17
ENDBRANCH   1  14
BRANCH   5  18
ATOM     18  C   UNL     1       5.844   5.596  19.229  0.00  0.00    +0.000 C 
BRANCH  18  19
ATOM     19  O   UNL     1       6.976   4.941  19.775  0.00  0.00    +0.000 OA
ATOM     20  H   UNL     1       6.685   4.545  20.616  0.00  0.00    +0.000 HD
ENDBRANCH  18  19
ENDBRANCH   5  18
TORSDOF 4
ENDMDL
MODEL 9
REMARK VINA RESULT:      -6.4      2.256      5.775
REMARK  Name = 
REMARK  5 active torsions:
REMARK  status: ('A' for Active; 'I' for Inactive)
REMARK    1  A    between atoms: C_1  and  O_2
REMARK    2  A    between atoms: O_2  and  C_3
REMARK    3  A    between atoms: C_3  and  C_5
REMARK    4  A    between atoms: C_9  and  C_10
REMARK    5  A    between atoms: C_10  and  O_11
REMARK                            x       y       z     vdW  Elec       q    Type
REMARK                         _______ _______ _______ _____ _____    ______ ____
ROOT
ATOM      1  C   UNL     1       5.519   4.643  17.133  0.00  0.00    +0.000 A 
ATOM      2  N   UNL     1       4.914   3.852  18.088  0.00  0.00    +0.000 NA
ATOM      3  C   UNL     1       4.011   4.615  18.659  0.00  0.00    +0.000 A 
ATOM      4  N   UNL     1       3.971   5.879  18.114  0.00  0.00    +0.000 N 
ATOM      5  C   UNL     1       4.955   5.920  17.137  0.00  0.00    +0.000 A 
ATOM      6  C   UNL     1       3.049   6.828  18.604  0.00  0.00    +0.000 A 
ATOM      7  C   UNL     1       2.747   8.035  17.971  0.00  0.00    +0.000 A 
ATOM      8  C   UNL     1       1.859   8.932  18.574  0.00  0.00    +0.000 A 
ATOM      9  C   UNL     1       1.265   8.629  19.799  0.00  0.00    +0.000 A 
ATOM     10  C   UNL     1       1.548   7.416  20.424  0.00  0.00    +0.000 A 
ATOM     11  C   UNL     1       2.421   6.511  19.820  0.00  0.00    +0.000 A 
ATOM     12  O   UNL     1       2.681   5.361  20.520  0.00  0.00    +0.000 OA
ATOM     13  C   UNL     1       3.029   4.234  19.702  0.00  0.00    +0.000 C 
ENDROOT
BRANCH   1  14
ATOM     14  C   UNL     1       6.611   4.164  16.273  0.00  0.00    +0.000 C 
ATOM     15  O   UNL     1       7.791   4.433  16.471  0.00  0.00    +0.000 OA
BRANCH  14  17
ATOM     16  C   UNL     1       6.152   4.065  13.975  0.00  0.00    +0.000 C 
ATOM     17  O   UNL     1       6.165   3.398  15.236  0.00  0.00    +0.000 OA
ENDBRANCH  14  17
ENDBRANCH   1  14
BRANCH   5  18
ATOM     18  C   UNL     1       5.344   7.106  16.344  0.00  0.00    +0.000 C 
BRANCH  18  19
ATOM     19  O   UNL     1       6.669   7.432  16.726  0.00  0.00    +0.000 OA
ATOM     20  H   UNL     1       7.056   6.619  17.096  0.00  0.00    +0.000 HD
ENDBRANCH  18  19
ENDBRANCH   5  18
TORSDOF 4
ENDMDL
