MODEL 1
REMARK VINA RESULT:      -8.7      0.000      0.000
REMARK  Name = 
REMARK  9 active torsions:
REMARK  status: ('A' for Active; 'I' for Inactive)
REMARK    1  A    between atoms: C_1  and  C_2
REMARK    2  A    between atoms: C_2  and  C_3
REMARK    3  A    between atoms: N_5  and  C_6
REMARK    4  A    between atoms: C_11  and  C_12
REMARK    5  A    between atoms: N_20  and  C_21
REMARK    6  A    between atoms: C_21  and  C_22
REMARK    7  A    between atoms: N_24  and  C_25
REMARK    8  A    between atoms: C_28  and  C_29
REMARK    9  A    between atoms: C_30  and  C_31
REMARK                            x       y       z     vdW  Elec       q    Type
REMARK                         _______ _______ _______ _____ _____    ______ ____
ROOT
ATOM      1  C   UNL     1       4.492   4.916  16.709  0.00  0.00    +0.000 A 
ATOM      2  N   UNL     1       4.592   3.984  15.792  0.00  0.00    +0.000 NA
ATOM      3  C   UNL     1       5.462   4.264  14.710  0.00  0.00    +0.000 A 
ATOM      4  C   UNL     1       5.429   3.453  13.577  0.00  0.00    +0.000 A 
ATOM      5  C   UNL     1       6.398   3.602  12.583  0.00  0.00    +0.000 A 
ATOM      6  C   UNL     1       7.416   4.551  12.724  0.00  0.00    +0.000 A 
ATOM      7  C   UNL     1       7.466   5.373  13.852  0.00  0.00    +0.000 A 
ATOM      8  C   UNL     1       6.484   5.240  14.834  0.00  0.00    +0.000 A 
ATOM      9  N   UNL     1       6.439   6.144  15.952  0.00  0.00    +0.000 N 
ATOM     10  C   UNL     1       5.131   6.285  16.414  0.00  0.00    +0.000 A 
ATOM     11  O   UNL     1       4.552   7.344  16.593  0.00  0.00    +0.000 OA
ENDROOT
BRANCH   1  17
ATOM     12  C   UNL     1       3.004   5.412  18.706  0.00  0.00    +0.000 A 
ATOM     13  C   UNL     1       2.468   4.974  19.928  0.00  0.00    +0.000 A 
ATOM     14  C   UNL     1       2.892   3.792  20.533  0.00  0.00    +0.000 A 
ATOM     15  C   UNL     1       3.868   3.019  19.929  0.00  0.00    +0.000 A 
ATOM     16  C   UNL     1       4.422   3.432  18.720  0.00  0.00    +0.000 A 
ATOM     17  C   UNL     1       4.004   4.623  18.090  0.00  0.00    +0.000 A 
BRANCH  12  20
ATOM     18  C   UNL     1       2.048   7.729  18.696  0.00  0.00    +0.000 C 
ATOM     19  O   UNL     1       2.126   7.962  19.899  0.00  0.00    +0.000 OA
ATOM     20  N   UNL     1       2.496   6.578  18.069  0.00  0.00    +0.000 N 
ATOM     21  H   UNL     1       2.575   6.589  17.051  0.00  0.00    +0.000 HD
BRANCH  18  23
ATOM     22  C   UNL     1       1.671  10.156  18.224  0.00  0.00    +0.000 C 
ATOM     23  C   UNL     1       1.417   8.732  17.746  0.00  0.00    +0.000 C 
ENDBRANCH  18  23
ENDBRANCH  12  20
ENDBRANCH   1  17
BRANCH   9  24
ATOM     24  C   UNL     1       7.306   5.720  17.062  0.00  0.00    +0.000 C 
BRANCH  24  25
ATOM     25  C   UNL     1       7.830   6.802  17.978  0.00  0.00    +0.000 C 
ATOM     26  O   UNL     1       8.126   6.512  19.135  0.00  0.00    +0.000 OA
ATOM     27  N   UNL     1       7.745   8.076  17.453  0.00  0.00    +0.000 N 
ATOM     28  H   UNL     1       7.270   8.181  16.561  0.00  0.00    +0.000 HD
BRANCH  27  29
ATOM     29  C   UNL     1       8.256   9.241  18.057  0.00  0.00    +0.000 A 
ATOM     30  C   UNL     1       9.065   9.201  19.190  0.00  0.00    +0.000 A 
ATOM     31  C   UNL     1       9.635  10.364  19.697  0.00  0.00    +0.000 A 
ATOM     32  C   UNL     1       9.399  11.603  19.091  0.00  0.00    +0.000 A 
ATOM     33  C   UNL     1      10.117  12.805  19.633  0.00  0.00    +0.000 C 
ATOM     34  C   UNL     1       8.531  11.669  17.984  0.00  0.00    +0.000 A 
ATOM     35  C   UNL     1       8.147  12.969  17.329  0.00  0.00    +0.000 C 
ATOM     36  C   UNL     1       7.980  10.479  17.468  0.00  0.00    +0.000 A 
ENDBRANCH  27  29
ENDBRANCH  24  25
ENDBRANCH   9  24
TORSDOF 6
ENDMDL
MODEL 2
REMARK VINA RESULT:      -8.7      4.946      9.591
REMARK  Name = 
REMARK  9 active torsions:
REMARK  status: ('A' for Active; 'I' for Inactive)
REMARK    1  A    between atoms: C_1  and  C_2
REMARK    2  A    between atoms: C_2  and  C_3
REMARK    3  A    between atoms: N_5  and  C_6
REMARK    4  A    between atoms: C_11  and  C_12
REMARK    5  A    between atoms: N_20  and  C_21
REMARK    6  A    between atoms: C_21  and  C_22
REMARK    7  A    between atoms: N_24  and  C_25
REMARK    8  A    between atoms: C_28  and  C_29
REMARK    9  A    between atoms: C_30  and  C_31
REMARK                            x       y       z     vdW  Elec       q    Type
REMARK                         _______ _______ _______ _____ _____    ______ ____
ROOT
ATOM      1  C   UNL     1      -1.264  12.406  19.462  0.00  0.00    +0.000 A 
ATOM      2  N   UNL     1      -0.915  13.576  18.983  0.00  0.00    +0.000 NA
ATOM      3  C   UNL     1       0.441  13.945  19.166  0.00  0.00    +0.000 A 
ATOM      4  C   UNL     1       0.831  15.260  18.924  0.00  0.00    +0.000 A 
ATOM      5  C   UNL     1       2.186  15.598  18.922  0.00  0.00    +0.000 A 
ATOM      6  C   UNL     1       3.159  14.619  19.145  0.00  0.00    +0.000 A 
ATOM      7  C   UNL     1       2.788  13.295  19.390  0.00  0.00    +0.000 A 
ATOM      8  C   UNL     1       1.433  12.962  19.416  0.00  0.00    +0.000 A 
ATOM      9  N   UNL     1       1.012  11.634  19.775  0.00  0.00    +0.000 N 
ATOM     10  C   UNL     1      -0.255  11.665  20.358  0.00  0.00    +0.000 A 
ATOM     11  O   UNL     1      -0.556  11.160  21.426  0.00  0.00    +0.000 OA
ENDROOT
BRANCH   1  17
ATOM     12  C   UNL     1      -3.782  12.173  19.228  0.00  0.00    +0.000 A 
ATOM     13  C   UNL     1      -4.865  11.540  18.596  0.00  0.00    +0.000 A 
ATOM     14  C   UNL     1      -4.682  10.456  17.739  0.00  0.00    +0.000 A 
ATOM     15  C   UNL     1      -3.407   9.977  17.496  0.00  0.00    +0.000 A 
ATOM     16  C   UNL     1      -2.315  10.581  18.113  0.00  0.00    +0.000 A 
ATOM     17  C   UNL     1      -2.479  11.681  18.981  0.00  0.00    +0.000 A 
BRANCH  12  20
ATOM     18  C   UNL     1      -4.462  13.351  21.334  0.00  0.00    +0.000 C 
ATOM     19  O   UNL     1      -4.672  12.363  22.034  0.00  0.00    +0.000 OA
ATOM     20  N   UNL     1      -3.988  13.328  20.033  0.00  0.00    +0.000 N 
ATOM     21  H   UNL     1      -3.651  14.206  19.633  0.00  0.00    +0.000 HD
BRANCH  18  23
ATOM     22  C   UNL     1      -4.498  15.785  20.767  0.00  0.00    +0.000 C 
ATOM     23  C   UNL     1      -4.724  14.750  21.861  0.00  0.00    +0.000 C 
ENDBRANCH  18  23
ENDBRANCH  12  20
ENDBRANCH   1  17
BRANCH   9  24
ATOM     24  C   UNL     1       1.000  10.712  18.630  0.00  0.00    +0.000 C 
BRANCH  24  25
ATOM     25  C   UNL     1       1.545   9.321  18.862  0.00  0.00    +0.000 C 
ATOM     26  O   UNL     1       1.454   8.823  19.982  0.00  0.00    +0.000 OA
ATOM     27  N   UNL     1       2.271   8.816  17.801  0.00  0.00    +0.000 N 
ATOM     28  H   UNL     1       2.446   9.439  17.018  0.00  0.00    +0.000 HD
BRANCH  27  29
ATOM     29  C   UNL     1       2.795   7.510  17.721  0.00  0.00    +0.000 A 
ATOM     30  C   UNL     1       4.144   7.261  17.478  0.00  0.00    +0.000 A 
ATOM     31  C   UNL     1       4.642   5.964  17.509  0.00  0.00    +0.000 A 
ATOM     32  C   UNL     1       3.801   4.877  17.771  0.00  0.00    +0.000 A 
ATOM     33  C   UNL     1       4.419   3.512  17.880  0.00  0.00    +0.000 C 
ATOM     34  C   UNL     1       2.423   5.105  17.954  0.00  0.00    +0.000 A 
ATOM     35  C   UNL     1       1.432   3.990  18.147  0.00  0.00    +0.000 C 
ATOM     36  C   UNL     1       1.937   6.429  17.943  0.00  0.00    +0.000 A 
ENDBRANCH  27  29
ENDBRANCH  24  25
ENDBRANCH   9  24
TORSDOF 6
ENDMDL
MODEL 3
REMARK VINA RESULT:      -8.6      4.781      9.537
REMARK  Name = 
REMARK  9 active torsions:
REMARK  status: ('A' for Active; 'I' for Inactive)
REMARK    1  A    between atoms: C_1  and  C_2
REMARK    2  A    between atoms: C_2  and  C_3
REMARK    3  A    between atoms: N_5  and  C_6
REMARK    4  A    between atoms: C_11  and  C_12
REMARK    5  A    between atoms: N_20  and  C_21
REMARK    6  A    between atoms: C_21  and  C_22
REMARK    7  A    between atoms: N_24  and  C_25
REMARK    8  A    between atoms: C_28  and  C_29
REMARK    9  A    between atoms: C_30  and  C_31
REMARK                            x       y       z     vdW  Elec       q    Type
REMARK                         _______ _______ _______ _____ _____    ______ ____
ROOT
ATOM      1  C   UNL     1      -1.278  12.130  18.901  0.00  0.00    +0.000 A 
ATOM      2  N   UNL     1      -0.891  13.356  18.645  0.00  0.00    +0.000 NA
ATOM      3  C   UNL     1       0.334  13.760  19.234  0.00  0.00    +0.000 A 
ATOM      4  C   UNL     1       0.684  15.108  19.229  0.00  0.00    +0.000 A 
ATOM      5  C   UNL     1       1.960  15.500  19.639  0.00  0.00    +0.000 A 
ATOM      6  C   UNL     1       2.899  14.543  20.039  0.00  0.00    +0.000 A 
ATOM      7  C   UNL     1       2.566  13.187  20.051  0.00  0.00    +0.000 A 
ATOM      8  C   UNL     1       1.283  12.798  19.665  0.00  0.00    +0.000 A 
ATOM      9  N   UNL     1       0.870  11.424  19.772  0.00  0.00    +0.000 N 
ATOM     10  C   UNL     1      -0.507  11.342  19.975  0.00  0.00    +0.000 A 
ATOM     11  O   UNL     1      -1.057  10.716  20.867  0.00  0.00    +0.000 OA
ENDROOT
BRANCH   1  17
ATOM     12  C   UNL     1      -3.644  11.700  18.085  0.00  0.00    +0.000 A 
ATOM     13  C   UNL     1      -4.482  11.116  17.121  0.00  0.00    +0.000 A 
ATOM     14  C   UNL     1      -3.983  10.273  16.130  0.00  0.00    +0.000 A 
ATOM     15  C   UNL     1      -2.630   9.991  16.080  0.00  0.00    +0.000 A 
ATOM     16  C   UNL     1      -1.775  10.552  17.026  0.00  0.00    +0.000 A 
ATOM     17  C   UNL     1      -2.260  11.410  18.035  0.00  0.00    +0.000 A 
BRANCH  12  20
ATOM     18  C   UNL     1      -5.304  12.452  19.806  0.00  0.00    +0.000 C 
ATOM     19  O   UNL     1      -5.978  11.427  19.868  0.00  0.00    +0.000 OA
ATOM     20  N   UNL     1      -4.166  12.621  19.036  0.00  0.00    +0.000 N 
ATOM     21  H   UNL     1      -3.574  13.431  19.230  0.00  0.00    +0.000 HD
BRANCH  18  23
ATOM     22  C   UNL     1      -4.476  14.594  20.796  0.00  0.00    +0.000 C 
ATOM     23  C   UNL     1      -5.684  13.685  20.606  0.00  0.00    +0.000 C 
ENDBRANCH  18  23
ENDBRANCH  12  20
ENDBRANCH   1  17
BRANCH   9  24
ATOM     24  C   UNL     1       1.239  10.625  18.594  0.00  0.00    +0.000 C 
BRANCH  24  25
ATOM     25  C   UNL     1       1.697   9.206  18.839  0.00  0.00    +0.000 C 
ATOM     26  O   UNL     1       1.535   8.711  19.953  0.00  0.00    +0.000 OA
ATOM     27  N   UNL     1       2.435   8.665  17.805  0.00  0.00    +0.000 N 
ATOM     28  H   UNL     1       2.675   9.281  17.033  0.00  0.00    +0.000 HD
BRANCH  27  29
ATOM     29  C   UNL     1       2.890   7.333  17.739  0.00  0.00    +0.000 A 
ATOM     30  C   UNL     1       4.211   7.010  17.438  0.00  0.00    +0.000 A 
ATOM     31  C   UNL     1       4.646   5.690  17.484  0.00  0.00    +0.000 A 
ATOM     32  C   UNL     1       3.766   4.655  17.820  0.00  0.00    +0.000 A 
ATOM     33  C   UNL     1       4.321   3.264  17.939  0.00  0.00    +0.000 C 
ATOM     34  C   UNL     1       2.413   4.958  18.062  0.00  0.00    +0.000 A 
ATOM     35  C   UNL     1       1.379   3.899  18.338  0.00  0.00    +0.000 C 
ATOM     36  C   UNL     1       1.992   6.303  18.036  0.00  0.00    +0.000 A 
ENDBRANCH  27  29
ENDBRANCH  24  25
ENDBRANCH   9  24
TORSDOF 6
ENDMDL
MODEL 4
REMARK VINA RESULT:      -8.5      4.850      9.459
REMARK  Name = 
REMARK  9 active torsions:
REMARK  status: ('A' for Active; 'I' for Inactive)
REMARK    1  A    between atoms: C_1  and  C_2
REMARK    2  A    between atoms: C_2  and  C_3
REMARK    3  A    between atoms: N_5  and  C_6
REMARK    4  A    between atoms: C_11  and  C_12
REMARK    5  A    between atoms: N_20  and  C_21
REMARK    6  A    between atoms: C_21  and  C_22
REMARK    7  A    between atoms: N_24  and  C_25
REMARK    8  A    between atoms: C_28  and  C_29
REMARK    9  A    between atoms: C_30  and  C_31
REMARK                            x       y       z     vdW  Elec       q    Type
REMARK                         _______ _______ _______ _____ _____    ______ ____
ROOT
ATOM      1  C   UNL     1      -1.273  12.108  18.890  0.00  0.00    +0.000 A 
ATOM      2  N   UNL     1      -0.910  13.332  18.594  0.00  0.00    +0.000 NA
ATOM      3  C   UNL     1       0.315  13.772  19.154  0.00  0.00    +0.000 A 
ATOM      4  C   UNL     1       0.643  15.126  19.105  0.00  0.00    +0.000 A 
ATOM      5  C   UNL     1       1.918  15.550  19.486  0.00  0.00    +0.000 A 
ATOM      6  C   UNL     1       2.878  14.620  19.900  0.00  0.00    +0.000 A 
ATOM      7  C   UNL     1       2.568  13.260  19.955  0.00  0.00    +0.000 A 
ATOM      8  C   UNL     1       1.287  12.839  19.598  0.00  0.00    +0.000 A 
ATOM      9  N   UNL     1       0.899  11.462  19.750  0.00  0.00    +0.000 N 
ATOM     10  C   UNL     1      -0.474  11.363  19.975  0.00  0.00    +0.000 A 
ATOM     11  O   UNL     1      -1.001  10.754  20.892  0.00  0.00    +0.000 OA
ENDROOT
BRANCH   1  17
ATOM     12  C   UNL     1      -3.631  11.676  18.051  0.00  0.00    +0.000 A 
ATOM     13  C   UNL     1      -4.463  11.039  17.116  0.00  0.00    +0.000 A 
ATOM     14  C   UNL     1      -3.965  10.107  16.207  0.00  0.00    +0.000 A 
ATOM     15  C   UNL     1      -2.619   9.788  16.213  0.00  0.00    +0.000 A 
ATOM     16  C   UNL     1      -1.771  10.399  17.133  0.00  0.00    +0.000 A 
ATOM     17  C   UNL     1      -2.255  11.347  18.059  0.00  0.00    +0.000 A 
BRANCH  12  20
ATOM     18  C   UNL     1      -5.263  12.575  19.728  0.00  0.00    +0.000 C 
ATOM     19  O   UNL     1      -5.914  11.551  19.914  0.00  0.00    +0.000 OA
ATOM     20  N   UNL     1      -4.148  12.682  18.914  0.00  0.00    +0.000 N 
ATOM     21  H   UNL     1      -3.569  13.519  19.006  0.00  0.00    +0.000 HD
BRANCH  18  23
ATOM     22  C   UNL     1      -6.761  14.575  19.627  0.00  0.00    +0.000 C 
ATOM     23  C   UNL     1      -5.650  13.879  20.403  0.00  0.00    +0.000 C 
ENDBRANCH  18  23
ENDBRANCH  12  20
ENDBRANCH   1  17
BRANCH   9  24
ATOM     24  C   UNL     1       1.264  10.636  18.589  0.00  0.00    +0.000 C 
BRANCH  24  25
ATOM     25  C   UNL     1       1.696   9.215  18.865  0.00  0.00    +0.000 C 
ATOM     26  O   UNL     1       1.484   8.731  19.975  0.00  0.00    +0.000 OA
ATOM     27  N   UNL     1       2.467   8.655  17.865  0.00  0.00    +0.000 N 
ATOM     28  H   UNL     1       2.744   9.261  17.097  0.00  0.00    +0.000 HD
BRANCH  27  29
ATOM     29  C   UNL     1       2.908   7.318  17.828  0.00  0.00    +0.000 A 
ATOM     30  C   UNL     1       2.086   6.252  18.187  0.00  0.00    +0.000 A 
ATOM     31  C   UNL     1       2.523   4.939  18.039  0.00  0.00    +0.000 A 
ATOM     32  C   UNL     1       3.799   4.659  17.539  0.00  0.00    +0.000 A 
ATOM     33  C   UNL     1       4.174   3.221  17.320  0.00  0.00    +0.000 C 
ATOM     34  C   UNL     1       4.665   5.726  17.234  0.00  0.00    +0.000 A 
ATOM     35  C   UNL     1       6.085   5.517  16.782  0.00  0.00    +0.000 C 
ATOM     36  C   UNL     1       4.200   7.051  17.367  0.00  0.00    +0.000 A 
ENDBRANCH  27  29
ENDBRANCH  24  25
ENDBRANCH   9  24
TORSDOF 6
ENDMDL
MODEL 5
REMARK VINA RESULT:      -8.5      5.155      9.648
REMARK  Name = 
REMARK  9 active torsions:
REMARK  status: ('A' for Active; 'I' for Inactive)
REMARK    1  A    between atoms: C_1  and  C_2
REMARK    2  A    between atoms: C_2  and  C_3
REMARK    3  A    between atoms: N_5  and  C_6
REMARK    4  A    between atoms: C_11  and  C_12
REMARK    5  A    between atoms: N_20  and  C_21
REMARK    6  A    between atoms: C_21  and  C_22
REMARK    7  A    between atoms: N_24  and  C_25
REMARK    8  A    between atoms: C_28  and  C_29
REMARK    9  A    between atoms: C_30  and  C_31
REMARK                            x       y       z     vdW  Elec       q    Type
REMARK                         _______ _______ _______ _____ _____    ______ ____
ROOT
ATOM      1  C   UNL     1      -1.186  13.008  20.055  0.00  0.00    +0.000 A 
ATOM      2  N   UNL     1      -2.366  12.748  19.546  0.00  0.00    +0.000 NA
ATOM      3  C   UNL     1      -2.396  11.788  18.503  0.00  0.00    +0.000 A 
ATOM      4  C   UNL     1      -3.552  11.644  17.739  0.00  0.00    +0.000 A 
ATOM      5  C   UNL     1      -3.665  10.587  16.834  0.00  0.00    +0.000 A 
ATOM      6  C   UNL     1      -2.628   9.657  16.701  0.00  0.00    +0.000 A 
ATOM      7  C   UNL     1      -1.462   9.784  17.458  0.00  0.00    +0.000 A 
ATOM      8  C   UNL     1      -1.340  10.855  18.345  0.00  0.00    +0.000 A 
ATOM      9  N   UNL     1      -0.110  11.080  19.057  0.00  0.00    +0.000 N 
ATOM     10  C   UNL     1       0.050  12.437  19.337  0.00  0.00    +0.000 A 
ATOM     11  O   UNL     1       1.038  13.103  19.079  0.00  0.00    +0.000 OA
ENDROOT
BRANCH   1  17
ATOM     12  C   UNL     1      -0.526  14.934  21.573  0.00  0.00    +0.000 A 
ATOM     13  C   UNL     1      -0.568  15.507  22.855  0.00  0.00    +0.000 A 
ATOM     14  C   UNL     1      -1.087  14.818  23.950  0.00  0.00    +0.000 A 
ATOM     15  C   UNL     1      -1.577  13.534  23.788  0.00  0.00    +0.000 A 
ATOM     16  C   UNL     1      -1.542  12.938  22.530  0.00  0.00    +0.000 A 
ATOM     17  C   UNL     1      -1.023  13.620  21.409  0.00  0.00    +0.000 A 
BRANCH  12  20
ATOM     18  C   UNL     1      -0.837  16.481  19.626  0.00  0.00    +0.000 C 
ATOM     19  O   UNL     1      -2.025  16.745  19.792  0.00  0.00    +0.000 OA
ATOM     20  N   UNL     1      -0.066  15.688  20.458  0.00  0.00    +0.000 N 
ATOM     21  H   UNL     1       0.949  15.717  20.339  0.00  0.00    +0.000 HD
BRANCH  18  23
ATOM     22  C   UNL     1       1.381  16.587  18.476  0.00  0.00    +0.000 C 
ATOM     23  C   UNL     1      -0.078  17.025  18.428  0.00  0.00    +0.000 C 
ENDBRANCH  18  23
ENDBRANCH  12  20
ENDBRANCH   1  17
BRANCH   9  24
ATOM     24  C   UNL     1      -0.026  10.310  20.306  0.00  0.00    +0.000 C 
BRANCH  24  25
ATOM     25  C   UNL     1       1.006   9.208  20.368  0.00  0.00    +0.000 C 
ATOM     26  O   UNL     1       1.497   8.910  21.455  0.00  0.00    +0.000 OA
ATOM     27  N   UNL     1       1.433   8.765  19.131  0.00  0.00    +0.000 N 
ATOM     28  H   UNL     1       1.092   9.266  18.315  0.00  0.00    +0.000 HD
BRANCH  27  29
ATOM     29  C   UNL     1       2.307   7.683  18.911  0.00  0.00    +0.000 A 
ATOM     30  C   UNL     1       2.315   6.552  19.725  0.00  0.00    +0.000 A 
ATOM     31  C   UNL     1       3.119   5.461  19.416  0.00  0.00    +0.000 A 
ATOM     32  C   UNL     1       3.949   5.476  18.289  0.00  0.00    +0.000 A 
ATOM     33  C   UNL     1       4.723   4.232  17.962  0.00  0.00    +0.000 C 
ATOM     34  C   UNL     1       4.002   6.637  17.493  0.00  0.00    +0.000 A 
ATOM     35  C   UNL     1       4.934   6.776  16.320  0.00  0.00    +0.000 C 
ATOM     36  C   UNL     1       3.163   7.726  17.806  0.00  0.00    +0.000 A 
ENDBRANCH  27  29
ENDBRANCH  24  25
ENDBRANCH   9  24
TORSDOF 6
ENDMDL
MODEL 6
REMARK VINA RESULT:      -8.5      6.187      9.053
REMARK  Name = 
REMARK  9 active torsions:
REMARK  status: ('A' for Active; 'I' for Inactive)
REMARK    1  A    between atoms: C_1  and  C_2
REMARK    2  A    between atoms: C_2  and  C_3
REMARK    3  A    between atoms: N_5  and  C_6
REMARK    4  A    between atoms: C_11  and  C_12
REMARK    5  A    between atoms: N_20  and  C_21
REMARK    6  A    between atoms: C_21  and  C_22
REMARK    7  A    between atoms: N_24  and  C_25
REMARK    8  A    between atoms: C_28  and  C_29
REMARK    9  A    between atoms: C_30  and  C_31
REMARK                            x       y       z     vdW  Elec       q    Type
REMARK                         _______ _______ _______ _____ _____    ______ ____
ROOT
ATOM      1  C   UNL     1       0.885  13.617  19.601  0.00  0.00    +0.000 A 
ATOM      2  N   UNL     1       0.038  14.341  18.910  0.00  0.00    +0.000 NA
ATOM      3  C   UNL     1       0.319  15.729  18.836  0.00  0.00    +0.000 A 
ATOM      4  C   UNL     1      -0.654  16.599  18.350  0.00  0.00    +0.000 A 
ATOM      5  C   UNL     1      -0.335  17.935  18.100  0.00  0.00    +0.000 A 
ATOM      6  C   UNL     1       0.965  18.404  18.319  0.00  0.00    +0.000 A 
ATOM      7  C   UNL     1       1.954  17.547  18.807  0.00  0.00    +0.000 A 
ATOM      8  C   UNL     1       1.628  16.218  19.079  0.00  0.00    +0.000 A 
ATOM      9  N   UNL     1       2.590  15.338  19.687  0.00  0.00    +0.000 N 
ATOM     10  C   UNL     1       1.946  14.355  20.438  0.00  0.00    +0.000 A 
ATOM     11  O   UNL     1       2.187  14.080  21.602  0.00  0.00    +0.000 OA
ENDROOT
BRANCH   1  17
ATOM     12  C   UNL     1       0.153  11.236  20.095  0.00  0.00    +0.000 A 
ATOM     13  C   UNL     1       0.201   9.878  19.738  0.00  0.00    +0.000 A 
ATOM     14  C   UNL     1       1.053   9.413  18.738  0.00  0.00    +0.000 A 
ATOM     15  C   UNL     1       1.882  10.297  18.071  0.00  0.00    +0.000 A 
ATOM     16  C   UNL     1       1.861  11.648  18.408  0.00  0.00    +0.000 A 
ATOM     17  C   UNL     1       1.003  12.139  19.415  0.00  0.00    +0.000 A 
BRANCH  12  20
ATOM     18  C   UNL     1      -0.832  11.337  22.398  0.00  0.00    +0.000 C 
ATOM     19  O   UNL     1      -0.002  10.644  22.981  0.00  0.00    +0.000 OA
ATOM     20  N   UNL     1      -0.783  11.698  21.062  0.00  0.00    +0.000 N 
ATOM     21  H   UNL     1      -1.404  12.445  20.747  0.00  0.00    +0.000 HD
BRANCH  18  23
ATOM     22  C   UNL     1      -3.023  12.516  22.147  0.00  0.00    +0.000 C 
ATOM     23  C   UNL     1      -2.049  11.877  23.129  0.00  0.00    +0.000 C 
ENDBRANCH  18  23
ENDBRANCH  12  20
ENDBRANCH   1  17
BRANCH   9  24
ATOM     24  C   UNL     1       3.477  14.698  18.704  0.00  0.00    +0.000 C 
BRANCH  24  25
ATOM     25  C   UNL     1       4.963  14.771  18.968  0.00  0.00    +0.000 C 
ATOM     26  O   UNL     1       5.356  15.020  20.106  0.00  0.00    +0.000 OA
ATOM     27  N   UNL     1       5.741  14.727  17.828  0.00  0.00    +0.000 N 
ATOM     28  H   UNL     1       5.258  14.741  16.935  0.00  0.00    +0.000 HD
BRANCH  27  29
ATOM     29  C   UNL     1       7.149  14.675  17.805  0.00  0.00    +0.000 A 
ATOM     30  C   UNL     1       7.939  15.822  17.821  0.00  0.00    +0.000 A 
ATOM     31  C   UNL     1       9.324  15.729  17.901  0.00  0.00    +0.000 A 
ATOM     32  C   UNL     1       9.958  14.482  17.955  0.00  0.00    +0.000 A 
ATOM     33  C   UNL     1      11.449  14.453  18.132  0.00  0.00    +0.000 C 
ATOM     34  C   UNL     1       9.178  13.313  17.873  0.00  0.00    +0.000 A 
ATOM     35  C   UNL     1       9.781  11.935  17.828  0.00  0.00    +0.000 C 
ATOM     36  C   UNL     1       7.773  13.424  17.815  0.00  0.00    +0.000 A 
ENDBRANCH  27  29
ENDBRANCH  24  25
ENDBRANCH   9  24
TORSDOF 6
ENDMDL
MODEL 7
REMARK VINA RESULT:      -8.5      6.193     10.557
REMARK  Name = 
REMARK  9 active torsions:
REMARK  status: ('A' for Active; 'I' for Inactive)
REMARK    1  A    between atoms: C_1  and  C_2
REMARK    2  A    between atoms: C_2  and  C_3
REMARK    3  A    between atoms: N_5  and  C_6
REMARK    4  A    between atoms: C_11  and  C_12
REMARK    5  A    between atoms: N_20  and  C_21
REMARK    6  A    between atoms: C_21  and  C_22
REMARK    7  A    between atoms: N_24  and  C_25
REMARK    8  A    between atoms: C_28  and  C_29
REMARK    9  A    between atoms: C_30  and  C_31
REMARK                            x       y       z     vdW  Elec       q    Type
REMARK                         _______ _______ _______ _____ _____    ______ ____
ROOT
ATOM      1  C   UNL     1      -2.860  13.118  20.578  0.00  0.00    +0.000 A 
ATOM      2  N   UNL     1      -3.732  12.412  19.899  0.00  0.00    +0.000 NA
ATOM      3  C   UNL     1      -3.224  11.699  18.784  0.00  0.00    +0.000 A 
ATOM      4  C   UNL     1      -4.111  11.141  17.867  0.00  0.00    +0.000 A 
ATOM      5  C   UNL     1      -3.639  10.287  16.868  0.00  0.00    +0.000 A 
ATOM      6  C   UNL     1      -2.278   9.972  16.792  0.00  0.00    +0.000 A 
ATOM      7  C   UNL     1      -1.373  10.522  17.703  0.00  0.00    +0.000 A 
ATOM      8  C   UNL     1      -1.842  11.395  18.685  0.00  0.00    +0.000 A 
ATOM      9  N   UNL     1      -0.925  12.067  19.567  0.00  0.00    +0.000 N 
ATOM     10  C   UNL     1      -1.452  13.290  19.980  0.00  0.00    +0.000 A 
ATOM     11  O   UNL     1      -0.884  14.368  19.909  0.00  0.00    +0.000 OA
ENDROOT
BRANCH   1  17
ATOM     12  C   UNL     1      -4.251  13.113  22.702  0.00  0.00    +0.000 A 
ATOM     13  C   UNL     1      -4.330  13.407  24.074  0.00  0.00    +0.000 A 
ATOM     14  C   UNL     1      -3.317  14.100  24.734  0.00  0.00    +0.000 A 
ATOM     15  C   UNL     1      -2.199  14.520  24.036  0.00  0.00    +0.000 A 
ATOM     16  C   UNL     1      -2.097  14.249  22.673  0.00  0.00    +0.000 A 
ATOM     17  C   UNL     1      -3.110  13.545  21.988  0.00  0.00    +0.000 A 
BRANCH  12  20
ATOM     18  C   UNL     1      -6.532  12.758  21.724  0.00  0.00    +0.000 C 
ATOM     19  O   UNL     1      -6.947  13.911  21.809  0.00  0.00    +0.000 OA
ATOM     20  N   UNL     1      -5.260  12.334  22.070  0.00  0.00    +0.000 N 
ATOM     21  H   UNL     1      -4.963  11.408  21.755  0.00  0.00    +0.000 HD
BRANCH  18  23
ATOM     22  C   UNL     1      -7.305  11.513  19.698  0.00  0.00    +0.000 C 
ATOM     23  C   UNL     1      -7.426  11.643  21.211  0.00  0.00    +0.000 C 
ENDBRANCH  18  23
ENDBRANCH  12  20
ENDBRANCH   1  17
BRANCH   9  24
ATOM     24  C   UNL     1      -0.577  11.262  20.747  0.00  0.00    +0.000 C 
BRANCH  24  25
ATOM     25  C   UNL     1      -0.113   9.845  20.500  0.00  0.00    +0.000 C 
ATOM     26  O   UNL     1      -0.721   8.917  21.029  0.00  0.00    +0.000 OA
ATOM     27  N   UNL     1       1.092   9.754  19.832  0.00  0.00    +0.000 N 
ATOM     28  H   UNL     1       1.590  10.621  19.650  0.00  0.00    +0.000 HD
BRANCH  27  29
ATOM     29  C   UNL     1       1.690   8.557  19.390  0.00  0.00    +0.000 A 
ATOM     30  C   UNL     1       2.322   8.452  18.153  0.00  0.00    +0.000 A 
ATOM     31  C   UNL     1       2.990   7.286  17.795  0.00  0.00    +0.000 A 
ATOM     32  C   UNL     1       3.033   6.187  18.662  0.00  0.00    +0.000 A 
ATOM     33  C   UNL     1       3.847   4.993  18.253  0.00  0.00    +0.000 C 
ATOM     34  C   UNL     1       2.343   6.255  19.887  0.00  0.00    +0.000 A 
ATOM     35  C   UNL     1       2.257   5.091  20.837  0.00  0.00    +0.000 C 
ATOM     36  C   UNL     1       1.690   7.452  20.246  0.00  0.00    +0.000 A 
ENDBRANCH  27  29
ENDBRANCH  24  25
ENDBRANCH   9  24
TORSDOF 6
ENDMDL
MODEL 8
REMARK VINA RESULT:      -8.5      4.932      9.921
REMARK  Name = 
REMARK  9 active torsions:
REMARK  status: ('A' for Active; 'I' for Inactive)
REMARK    1  A    between atoms: C_1  and  C_2
REMARK    2  A    between atoms: C_2  and  C_3
REMARK    3  A    between atoms: N_5  and  C_6
REMARK    4  A    between atoms: C_11  and  C_12
REMARK    5  A    between atoms: N_20  and  C_21
REMARK    6  A    between atoms: C_21  and  C_22
REMARK    7  A    between atoms: N_24  and  C_25
REMARK    8  A    between atoms: C_28  and  C_29
REMARK    9  A    between atoms: C_30  and  C_31
REMARK                            x       y       z     vdW  Elec       q    Type
REMARK                         _______ _______ _______ _____ _____    ______ ____
ROOT
ATOM      1  C   UNL     1      -0.341  12.851  19.882  0.00  0.00    +0.000 A 
ATOM      2  N   UNL     1      -0.386  12.677  21.181  0.00  0.00    +0.000 NA
ATOM      3  C   UNL     1      -0.543  11.341  21.626  0.00  0.00    +0.000 A 
ATOM      4  C   UNL     1      -0.858  11.097  22.961  0.00  0.00    +0.000 A 
ATOM      5  C   UNL     1      -0.838   9.791  23.456  0.00  0.00    +0.000 A 
ATOM      6  C   UNL     1      -0.485   8.724  22.623  0.00  0.00    +0.000 A 
ATOM      7  C   UNL     1      -0.166   8.949  21.282  0.00  0.00    +0.000 A 
ATOM      8  C   UNL     1      -0.211  10.251  20.782  0.00  0.00    +0.000 A 
ATOM      9  N   UNL     1       0.001  10.505  19.381  0.00  0.00    +0.000 N 
ATOM     10  C   UNL     1      -0.687  11.650  18.983  0.00  0.00    +0.000 A 
ATOM     11  O   UNL     1      -1.453  11.724  18.037  0.00  0.00    +0.000 OA
ENDROOT
BRANCH   1  17
ATOM     12  C   UNL     1      -0.440  15.306  19.238  0.00  0.00    +0.000 A 
ATOM     13  C   UNL     1       0.248  16.451  18.805  0.00  0.00    +0.000 A 
ATOM     14  C   UNL     1       1.584  16.398  18.412  0.00  0.00    +0.000 A 
ATOM     15  C   UNL     1       2.265  15.194  18.441  0.00  0.00    +0.000 A 
ATOM     16  C   UNL     1       1.607  14.041  18.860  0.00  0.00    +0.000 A 
ATOM     17  C   UNL     1       0.255  14.074  19.264  0.00  0.00    +0.000 A 
BRANCH  12  20
ATOM     18  C   UNL     1      -2.179  15.792  20.977  0.00  0.00    +0.000 C 
ATOM     19  O   UNL     1      -1.439  16.225  21.856  0.00  0.00    +0.000 OA
ATOM     20  N   UNL     1      -1.779  15.401  19.710  0.00  0.00    +0.000 N 
ATOM     21  H   UNL     1      -2.503  15.265  19.002  0.00  0.00    +0.000 HD
BRANCH  18  23
ATOM     22  C   UNL     1      -4.085  14.175  21.063  0.00  0.00    +0.000 C 
ATOM     23  C   UNL     1      -3.670  15.633  21.220  0.00  0.00    +0.000 C 
ENDBRANCH  18  23
ENDBRANCH  12  20
ENDBRANCH   1  17
BRANCH   9  24
ATOM     24  C   UNL     1       1.424  10.646  19.037  0.00  0.00    +0.000 C 
BRANCH  24  25
ATOM     25  C   UNL     1       2.032   9.569  18.169  0.00  0.00    +0.000 C 
ATOM     26  O   UNL     1       2.282   9.821  16.992  0.00  0.00    +0.000 OA
ATOM     27  N   UNL     1       2.077   8.323  18.764  0.00  0.00    +0.000 N 
ATOM     28  H   UNL     1       1.627   8.224  19.670  0.00  0.00    +0.000 HD
BRANCH  27  29
ATOM     29  C   UNL     1       2.685   7.179  18.212  0.00  0.00    +0.000 A 
ATOM     30  C   UNL     1       3.934   7.221  17.596  0.00  0.00    +0.000 A 
ATOM     31  C   UNL     1       4.548   6.054  17.155  0.00  0.00    +0.000 A 
ATOM     32  C   UNL     1       3.922   4.812  17.308  0.00  0.00    +0.000 A 
ATOM     33  C   UNL     1       4.678   3.582  16.894  0.00  0.00    +0.000 C 
ATOM     34  C   UNL     1       2.632   4.759  17.869  0.00  0.00    +0.000 A 
ATOM     35  C   UNL     1       1.847   3.480  17.985  0.00  0.00    +0.000 C 
ATOM     36  C   UNL     1       2.032   5.948  18.332  0.00  0.00    +0.000 A 
ENDBRANCH  27  29
ENDBRANCH  24  25
ENDBRANCH   9  24
TORSDOF 6
ENDMDL
MODEL 9
REMARK VINA RESULT:      -8.4      4.876      9.732
REMARK  Name = 
REMARK  9 active torsions:
REMARK  status: ('A' for Active; 'I' for Inactive)
REMARK    1  A    between atoms: C_1  and  C_2
REMARK    2  A    between atoms: C_2  and  C_3
REMARK    3  A    between atoms: N_5  and  C_6
REMARK    4  A    between atoms: C_11  and  C_12
REMARK    5  A    between atoms: N_20  and  C_21
REMARK    6  A    between atoms: C_21  and  C_22
REMARK    7  A    between atoms: N_24  and  C_25
REMARK    8  A    between atoms: C_28  and  C_29
REMARK    9  A    between atoms: C_30  and  C_31
REMARK                            x       y       z     vdW  Elec       q    Type
REMARK                         _______ _______ _______ _____ _____    ______ ____
ROOT
ATOM      1  C   UNL     1      -1.479  11.756  19.473  0.00  0.00    +0.000 A 
ATOM      2  N   UNL     1      -1.357  13.041  19.702  0.00  0.00    +0.000 NA
ATOM      3  C   UNL     1      -0.179  13.446  20.378  0.00  0.00    +0.000 A 
ATOM      4  C   UNL     1      -0.092  14.741  20.886  0.00  0.00    +0.000 A 
ATOM      5  C   UNL     1       1.121  15.212  21.391  0.00  0.00    +0.000 A 
ATOM      6  C   UNL     1       2.259  14.398  21.375  0.00  0.00    +0.000 A 
ATOM      7  C   UNL     1       2.191  13.098  20.870  0.00  0.00    +0.000 A 
ATOM      8  C   UNL     1       0.972  12.618  20.388  0.00  0.00    +0.000 A 
ATOM      9  N   UNL     1       0.839  11.249  19.966  0.00  0.00    +0.000 N 
ATOM     10  C   UNL     1      -0.470  10.807  20.147  0.00  0.00    +0.000 A 
ATOM     11  O   UNL     1      -0.802   9.793  20.739  0.00  0.00    +0.000 OA
ENDROOT
BRANCH   1  17
ATOM     12  C   UNL     1      -3.707  11.706  18.256  0.00  0.00    +0.000 A 
ATOM     13  C   UNL     1      -4.441  11.286  17.135  0.00  0.00    +0.000 A 
ATOM     14  C   UNL     1      -3.900  10.418  16.188  0.00  0.00    +0.000 A 
ATOM     15  C   UNL     1      -2.609   9.945  16.343  0.00  0.00    +0.000 A 
ATOM     16  C   UNL     1      -1.860  10.339  17.449  0.00  0.00    +0.000 A 
ATOM     17  C   UNL     1      -2.388  11.220  18.416  0.00  0.00    +0.000 A 
BRANCH  12  20
ATOM     18  C   UNL     1      -5.387  12.493  19.943  0.00  0.00    +0.000 C 
ATOM     19  O   UNL     1      -6.035  11.456  20.051  0.00  0.00    +0.000 OA
ATOM     20  N   UNL     1      -4.253  12.655  19.165  0.00  0.00    +0.000 N 
ATOM     21  H   UNL     1      -3.682  13.488  19.321  0.00  0.00    +0.000 HD
BRANCH  18  23
ATOM     22  C   UNL     1      -4.648  14.749  20.728  0.00  0.00    +0.000 C 
ATOM     23  C   UNL     1      -5.799  13.752  20.685  0.00  0.00    +0.000 C 
ENDBRANCH  18  23
ENDBRANCH  12  20
ENDBRANCH   1  17
BRANCH   9  24
ATOM     24  C   UNL     1       1.234  11.045  18.563  0.00  0.00    +0.000 C 
BRANCH  24  25
ATOM     25  C   UNL     1       1.920   9.742  18.224  0.00  0.00    +0.000 C 
ATOM     26  O   UNL     1       2.499   9.636  17.145  0.00  0.00    +0.000 OA
ATOM     27  N   UNL     1       1.660   8.719  19.115  0.00  0.00    +0.000 N 
ATOM     28  H   UNL     1       0.979   8.901  19.846  0.00  0.00    +0.000 HD
BRANCH  27  29
ATOM     29  C   UNL     1       2.255   7.443  19.084  0.00  0.00    +0.000 A 
ATOM     30  C   UNL     1       3.164   7.066  18.098  0.00  0.00    +0.000 A 
ATOM     31  C   UNL     1       3.809   5.836  18.160  0.00  0.00    +0.000 A 
ATOM     32  C   UNL     1       3.551   4.941  19.205  0.00  0.00    +0.000 A 
ATOM     33  C   UNL     1       4.347   3.669  19.261  0.00  0.00    +0.000 C 
ATOM     34  C   UNL     1       2.586   5.279  20.173  0.00  0.00    +0.000 A 
ATOM     35  C   UNL     1       2.179   4.341  21.276  0.00  0.00    +0.000 C 
ATOM     36  C   UNL     1       1.959   6.540  20.110  0.00  0.00    +0.000 A 
ENDBRANCH  27  29
ENDBRANCH  24  25
ENDBRANCH   9  24
TORSDOF 6
ENDMDL
