MODEL 1
REMARK VINA RESULT:      -5.9      0.000      0.000
REMARK  Name = 
REMARK  10 active torsions:
REMARK  status: ('A' for Active; 'I' for Inactive)
REMARK    1  A    between atoms: C_1  and  C_2
REMARK    2  A    between atoms: C_2  and  C_3
REMARK    3  A    between atoms: C_3  and  C_4
REMARK    4  A    between atoms: C_4  and  C_5
REMARK    5  A    between atoms: C_5  and  N_6
REMARK    6  A    between atoms: C_5  and  C_7
REMARK    7  A    between atoms: C_5  and  C_13
REMARK    8  A    between atoms: C_7  and  C_8
REMARK    9  A    between atoms: C_13  and  O_15
REMARK   10  A    between atoms: O_15  and  C_16
REMARK                            x       y       z     vdW  Elec       q    Type
REMARK                         _______ _______ _______ _____ _____    ______ ____
ROOT
ATOM      1  C   UNL     1       5.736   4.629  16.750  0.00  0.00    +0.000 C 
ENDROOT
BRANCH   1   2
ATOM      2  N   UNL     1       4.953   5.870  16.446  0.00  0.00    +0.000 NA
ATOM      3  H   UNL     1       4.871   6.439  17.289  0.00  0.00    +0.000 HD
ATOM      4  H   UNL     1       4.002   5.606  16.185  0.00  0.00    +0.000 HD
ENDBRANCH   1   2
BRANCH   1   5
ATOM      5  C   UNL     1       7.221   5.048  16.946  0.00  0.00    +0.000 C 
ATOM      6  O   UNL     1       8.117   4.303  17.333  0.00  0.00    +0.000 OA
BRANCH   5   7
ATOM      7  O   UNL     1       7.421   6.351  16.577  0.00  0.00    +0.000 OA
ATOM      8  C   UNL     1       7.669   7.234  17.668  0.00  0.00    +0.000 C 
ENDBRANCH   5   7
ENDBRANCH   1   5
BRANCH   1   9
ATOM      9  C   UNL     1       5.638   3.665  15.530  0.00  0.00    +0.000 C 
BRANCH   9  10
ATOM     10  C   UNL     1       5.466   4.346  14.165  0.00  0.00    +0.000 C 
BRANCH  10  12
ATOM     11  C   UNL     1       5.520   3.137  11.967  0.00  0.00    +0.000 C 
ATOM     12  C   UNL     1       6.363   3.726  13.090  0.00  0.00    +0.000 C 
ENDBRANCH  10  12
ENDBRANCH   9  10
ENDBRANCH   1   9
BRANCH   1  13
ATOM     13  C   UNL     1       5.201   4.022  18.070  0.00  0.00    +0.000 C 
BRANCH  13  14
ATOM     14  C   UNL     1       3.860   3.364  17.994  0.00  0.00    +0.000 A 
ATOM     15  C   UNL     1       3.538   2.030  18.125  0.00  0.00    +0.000 A 
ATOM     16  N   UNL     1       2.172   1.980  18.094  0.00  0.00    +0.000 N 
ATOM     17  C   UNL     1       1.721   3.260  17.940  0.00  0.00    +0.000 A 
ATOM     18  N   UNL     1       2.715   4.114  17.861  0.00  0.00    +0.000 NA
ATOM     19  H   UNL     1       1.596   1.156  18.197  0.00  0.00    +0.000 HD
ENDBRANCH  13  14
ENDBRANCH   1  13
TORSDOF 8
ENDMDL
MODEL 2
REMARK VINA RESULT:      -5.9      1.835      4.304
REMARK  Name = 
REMARK  10 active torsions:
REMARK  status: ('A' for Active; 'I' for Inactive)
REMARK    1  A    between atoms: C_1  and  C_2
REMARK    2  A    between atoms: C_2  and  C_3
REMARK    3  A    between atoms: C_3  and  C_4
REMARK    4  A    between atoms: C_4  and  C_5
REMARK    5  A    between atoms: C_5  and  N_6
REMARK    6  A    between atoms: C_5  and  C_7
REMARK    7  A    between atoms: C_5  and  C_13
REMARK    8  A    between atoms: C_7  and  C_8
REMARK    9  A    between atoms: C_13  and  O_15
REMARK   10  A    between atoms: O_15  and  C_16
REMARK                            x       y       z     vdW  Elec       q    Type
REMARK                         _______ _______ _______ _____ _____    ______ ____
ROOT
ATOM      1  C   UNL     1       6.530   6.060  17.716  0.00  0.00    +0.000 C 
ENDROOT
BRANCH   1   2
ATOM      2  N   UNL     1       7.028   5.664  19.073  0.00  0.00    +0.000 NA
ATOM      3  H   UNL     1       6.341   5.062  19.528  0.00  0.00    +0.000 HD
ATOM      4  H   UNL     1       7.107   6.500  19.654  0.00  0.00    +0.000 HD
ENDBRANCH   1   2
BRANCH   1   5
ATOM      5  C   UNL     1       7.251   5.161  16.672  0.00  0.00    +0.000 C 
ATOM      6  O   UNL     1       8.023   4.246  16.945  0.00  0.00    +0.000 OA
BRANCH   5   7
ATOM      7  O   UNL     1       6.872   5.482  15.396  0.00  0.00    +0.000 OA
ATOM      8  C   UNL     1       6.608   4.355  14.565  0.00  0.00    +0.000 C 
ENDBRANCH   5   7
ENDBRANCH   1   5
BRANCH   1   9
ATOM      9  C   UNL     1       6.915   7.547  17.457  0.00  0.00    +0.000 C 
BRANCH   9  10
ATOM     10  C   UNL     1       8.198   8.025  18.150  0.00  0.00    +0.000 C 
BRANCH  10  12
ATOM     11  C   UNL     1       9.217  10.059  19.209  0.00  0.00    +0.000 C 
ATOM     12  C   UNL     1       8.383   9.541  18.044  0.00  0.00    +0.000 C 
ENDBRANCH  10  12
ENDBRANCH   9  10
ENDBRANCH   1   9
BRANCH   1  13
ATOM     13  C   UNL     1       5.006   5.788  17.655  0.00  0.00    +0.000 C 
BRANCH  13  14
ATOM     14  C   UNL     1       4.564   4.429  18.092  0.00  0.00    +0.000 A 
ATOM     15  C   UNL     1       4.176   3.352  17.324  0.00  0.00    +0.000 A 
ATOM     16  N   UNL     1       3.990   2.324  18.206  0.00  0.00    +0.000 N 
ATOM     17  C   UNL     1       4.258   2.805  19.456  0.00  0.00    +0.000 A 
ATOM     18  N   UNL     1       4.590   4.075  19.421  0.00  0.00    +0.000 NA
ATOM     19  H   UNL     1       3.733   1.373  17.979  0.00  0.00    +0.000 HD
ENDBRANCH  13  14
ENDBRANCH   1  13
TORSDOF 8
ENDMDL
MODEL 3
REMARK VINA RESULT:      -5.8      2.239      3.565
REMARK  Name = 
REMARK  10 active torsions:
REMARK  status: ('A' for Active; 'I' for Inactive)
REMARK    1  A    between atoms: C_1  and  C_2
REMARK    2  A    between atoms: C_2  and  C_3
REMARK    3  A    between atoms: C_3  and  C_4
REMARK    4  A    between atoms: C_4  and  C_5
REMARK    5  A    between atoms: C_5  and  N_6
REMARK    6  A    between atoms: C_5  and  C_7
REMARK    7  A    between atoms: C_5  and  C_13
REMARK    8  A    between atoms: C_7  and  C_8
REMARK    9  A    between atoms: C_13  and  O_15
REMARK   10  A    between atoms: O_15  and  C_16
REMARK                            x       y       z     vdW  Elec       q    Type
REMARK                         _______ _______ _______ _____ _____    ______ ____
ROOT
ATOM      1  C   UNL     1       5.594   4.775  17.466  0.00  0.00    +0.000 C 
ENDROOT
BRANCH   1   2
ATOM      2  N   UNL     1       5.935   3.876  18.616  0.00  0.00    +0.000 NA
ATOM      3  H   UNL     1       6.900   3.557  18.528  0.00  0.00    +0.000 HD
ATOM      4  H   UNL     1       5.350   3.041  18.568  0.00  0.00    +0.000 HD
ENDBRANCH   1   2
BRANCH   1   5
ATOM      5  C   UNL     1       6.858   4.885  16.567  0.00  0.00    +0.000 C 
ATOM      6  O   UNL     1       7.960   4.419  16.842  0.00  0.00    +0.000 OA
BRANCH   5   7
ATOM      7  O   UNL     1       6.574   5.525  15.390  0.00  0.00    +0.000 OA
ATOM      8  C   UNL     1       6.994   4.817  14.226  0.00  0.00    +0.000 C 
ENDBRANCH   5   7
ENDBRANCH   1   5
BRANCH   1   9
ATOM      9  C   UNL     1       5.242   6.187  18.022  0.00  0.00    +0.000 C 
BRANCH   9  10
ATOM     10  C   UNL     1       4.136   6.935  17.265  0.00  0.00    +0.000 C 
BRANCH  10  12
ATOM     11  C   UNL     1       2.323   8.602  17.743  0.00  0.00    +0.000 C 
ATOM     12  C   UNL     1       2.948   7.280  18.167  0.00  0.00    +0.000 C 
ENDBRANCH  10  12
ENDBRANCH   9  10
ENDBRANCH   1   9
BRANCH   1  13
ATOM     13  C   UNL     1       4.449   4.119  16.655  0.00  0.00    +0.000 C 
BRANCH  13  14
ATOM     14  C   UNL     1       3.394   3.423  17.454  0.00  0.00    +0.000 A 
ATOM     15  C   UNL     1       2.087   3.798  17.681  0.00  0.00    +0.000 A 
ATOM     16  N   UNL     1       1.524   2.758  18.368  0.00  0.00    +0.000 N 
ATOM     17  C   UNL     1       2.492   1.810  18.539  0.00  0.00    +0.000 A 
ATOM     18  N   UNL     1       3.634   2.189  18.013  0.00  0.00    +0.000 NA
ATOM     19  H   UNL     1       0.561   2.685  18.669  0.00  0.00    +0.000 HD
ENDBRANCH  13  14
ENDBRANCH   1  13
TORSDOF 8
ENDMDL
MODEL 4
REMARK VINA RESULT:      -5.8      1.883      1.989
REMARK  Name = 
REMARK  10 active torsions:
REMARK  status: ('A' for Active; 'I' for Inactive)
REMARK    1  A    between atoms: C_1  and  C_2
REMARK    2  A    between atoms: C_2  and  C_3
REMARK    3  A    between atoms: C_3  and  C_4
REMARK    4  A    between atoms: C_4  and  C_5
REMARK    5  A    between atoms: C_5  and  N_6
REMARK    6  A    between atoms: C_5  and  C_7
REMARK    7  A    between atoms: C_5  and  C_13
REMARK    8  A    between atoms: C_7  and  C_8
REMARK    9  A    between atoms: C_13  and  O_15
REMARK   10  A    between atoms: O_15  and  C_16
REMARK                            x       y       z     vdW  Elec       q    Type
REMARK                         _______ _______ _______ _____ _____    ______ ____
ROOT
ATOM      1  C   UNL     1       6.038   5.475  15.992  0.00  0.00    +0.000 C 
ENDROOT
BRANCH   1   2
ATOM      2  N   UNL     1       5.202   6.636  15.548  0.00  0.00    +0.000 NA
ATOM      3  H   UNL     1       4.353   6.295  15.097  0.00  0.00    +0.000 HD
ATOM      4  H   UNL     1       5.714   7.160  14.837  0.00  0.00    +0.000 HD
ENDBRANCH   1   2
BRANCH   1   5
ATOM      5  C   UNL     1       7.146   6.027  16.932  0.00  0.00    +0.000 C 
ATOM      6  O   UNL     1       7.810   5.349  17.712  0.00  0.00    +0.000 OA
BRANCH   5   7
ATOM      7  O   UNL     1       7.333   7.370  16.742  0.00  0.00    +0.000 OA
ATOM      8  C   UNL     1       7.922   8.039  17.855  0.00  0.00    +0.000 C 
ENDBRANCH   5   7
ENDBRANCH   1   5
BRANCH   1   9
ATOM      9  C   UNL     1       6.708   4.833  14.741  0.00  0.00    +0.000 C 
BRANCH   9  10
ATOM     10  C   UNL     1       5.841   3.824  13.974  0.00  0.00    +0.000 C 
BRANCH  10  12
ATOM     11  C   UNL     1       5.257   2.909  11.713  0.00  0.00    +0.000 C 
ATOM     12  C   UNL     1       6.322   3.621  12.535  0.00  0.00    +0.000 C 
ENDBRANCH  10  12
ENDBRANCH   9  10
ENDBRANCH   1   9
BRANCH   1  13
ATOM     13  C   UNL     1       5.136   4.499  16.788  0.00  0.00    +0.000 C 
BRANCH  13  14
ATOM     14  C   UNL     1       4.367   5.094  17.923  0.00  0.00    +0.000 A 
ATOM     15  C   UNL     1       4.557   4.938  19.279  0.00  0.00    +0.000 A 
ATOM     16  N   UNL     1       3.665   5.788  19.873  0.00  0.00    +0.000 N 
ATOM     17  C   UNL     1       2.972   6.413  18.876  0.00  0.00    +0.000 A 
ATOM     18  N   UNL     1       3.361   6.003  17.690  0.00  0.00    +0.000 NA
ATOM     19  H   UNL     1       3.556   5.952  20.864  0.00  0.00    +0.000 HD
ENDBRANCH  13  14
ENDBRANCH   1  13
TORSDOF 8
ENDMDL
MODEL 5
REMARK VINA RESULT:      -5.7      2.957      5.388
REMARK  Name = 
REMARK  10 active torsions:
REMARK  status: ('A' for Active; 'I' for Inactive)
REMARK    1  A    between atoms: C_1  and  C_2
REMARK    2  A    between atoms: C_2  and  C_3
REMARK    3  A    between atoms: C_3  and  C_4
REMARK    4  A    between atoms: C_4  and  C_5
REMARK    5  A    between atoms: C_5  and  N_6
REMARK    6  A    between atoms: C_5  and  C_7
REMARK    7  A    between atoms: C_5  and  C_13
REMARK    8  A    between atoms: C_7  and  C_8
REMARK    9  A    between atoms: C_13  and  O_15
REMARK   10  A    between atoms: O_15  and  C_16
REMARK                            x       y       z     vdW  Elec       q    Type
REMARK                         _______ _______ _______ _____ _____    ______ ____
ROOT
ATOM      1  C   UNL     1       4.303   3.819  18.067  0.00  0.00    +0.000 C 
ENDROOT
BRANCH   1   2
ATOM      2  N   UNL     1       4.962   3.019  19.149  0.00  0.00    +0.000 NA
ATOM      3  H   UNL     1       4.330   2.283  19.465  0.00  0.00    +0.000 HD
ATOM      4  H   UNL     1       5.124   3.623  19.956  0.00  0.00    +0.000 HD
ENDBRANCH   1   2
BRANCH   1   5
ATOM      5  C   UNL     1       3.667   5.073  18.733  0.00  0.00    +0.000 C 
ATOM      6  O   UNL     1       3.823   5.403  19.905  0.00  0.00    +0.000 OA
BRANCH   5   7
ATOM      7  O   UNL     1       2.949   5.804  17.826  0.00  0.00    +0.000 OA
ATOM      8  C   UNL     1       2.877   7.196  18.126  0.00  0.00    +0.000 C 
ENDBRANCH   5   7
ENDBRANCH   1   5
BRANCH   1   9
ATOM      9  C   UNL     1       3.175   2.959  17.425  0.00  0.00    +0.000 C 
BRANCH   9  10
ATOM     10  C   UNL     1       2.399   2.059  18.396  0.00  0.00    +0.000 C 
BRANCH  10  12
ATOM     11  C   UNL     1       0.949   3.090  20.166  0.00  0.00    +0.000 C 
ATOM     12  C   UNL     1       1.010   2.617  18.719  0.00  0.00    +0.000 C 
ENDBRANCH  10  12
ENDBRANCH   9  10
ENDBRANCH   1   9
BRANCH   1  13
ATOM     13  C   UNL     1       5.391   4.274  17.063  0.00  0.00    +0.000 C 
BRANCH  13  14
ATOM     14  C   UNL     1       6.433   5.202  17.600  0.00  0.00    +0.000 A 
ATOM     15  C   UNL     1       6.693   6.511  17.255  0.00  0.00    +0.000 A 
ATOM     16  N   UNL     1       7.661   6.932  18.125  0.00  0.00    +0.000 N 
ATOM     17  C   UNL     1       7.955   5.882  18.948  0.00  0.00    +0.000 A 
ATOM     18  N   UNL     1       7.243   4.821  18.645  0.00  0.00    +0.000 NA
ATOM     19  H   UNL     1       8.064   7.857  18.176  0.00  0.00    +0.000 HD
ENDBRANCH  13  14
ENDBRANCH   1  13
TORSDOF 8
ENDMDL
MODEL 6
REMARK VINA RESULT:      -5.7      2.017      4.282
REMARK  Name = 
REMARK  10 active torsions:
REMARK  status: ('A' for Active; 'I' for Inactive)
REMARK    1  A    between atoms: C_1  and  C_2
REMARK    2  A    between atoms: C_2  and  C_3
REMARK    3  A    between atoms: C_3  and  C_4
REMARK    4  A    between atoms: C_4  and  C_5
REMARK    5  A    between atoms: C_5  and  N_6
REMARK    6  A    between atoms: C_5  and  C_7
REMARK    7  A    between atoms: C_5  and  C_13
REMARK    8  A    between atoms: C_7  and  C_8
REMARK    9  A    between atoms: C_13  and  O_15
REMARK   10  A    between atoms: O_15  and  C_16
REMARK                            x       y       z     vdW  Elec       q    Type
REMARK                         _______ _______ _______ _____ _____    ______ ____
ROOT
ATOM      1  C   UNL     1       6.547   5.082  16.746  0.00  0.00    +0.000 C 
ENDROOT
BRANCH   1   2
ATOM      2  N   UNL     1       7.724   4.456  17.431  0.00  0.00    +0.000 NA
ATOM      3  H   UNL     1       8.585   4.889  17.097  0.00  0.00    +0.000 HD
ATOM      4  H   UNL     1       7.776   3.472  17.166  0.00  0.00    +0.000 HD
ENDBRANCH   1   2
BRANCH   1   5
ATOM      5  C   UNL     1       6.791   4.985  15.213  0.00  0.00    +0.000 C 
ATOM      6  O   UNL     1       7.787   5.406  14.631  0.00  0.00    +0.000 OA
BRANCH   5   7
ATOM      7  O   UNL     1       5.772   4.316  14.591  0.00  0.00    +0.000 OA
ATOM      8  C   UNL     1       6.136   3.729  13.345  0.00  0.00    +0.000 C 
ENDBRANCH   5   7
ENDBRANCH   1   5
BRANCH   1   9
ATOM      9  C   UNL     1       6.471   6.583  17.155  0.00  0.00    +0.000 C 
BRANCH   9  10
ATOM     10  C   UNL     1       7.714   7.136  17.864  0.00  0.00    +0.000 C 
BRANCH  10  12
ATOM     11  C   UNL     1       8.749   9.245  18.745  0.00  0.00    +0.000 C 
ATOM     12  C   UNL     1       7.885   8.642  17.646  0.00  0.00    +0.000 C 
ENDBRANCH  10  12
ENDBRANCH   9  10
ENDBRANCH   1   9
BRANCH   1  13
ATOM     13  C   UNL     1       5.280   4.270  17.111  0.00  0.00    +0.000 C 
BRANCH  13  14
ATOM     14  C   UNL     1       4.366   4.895  18.117  0.00  0.00    +0.000 A 
ATOM     15  C   UNL     1       4.527   5.016  19.480  0.00  0.00    +0.000 A 
ATOM     16  N   UNL     1       3.468   5.770  19.906  0.00  0.00    +0.000 N 
ATOM     17  C   UNL     1       2.712   6.068  18.808  0.00  0.00    +0.000 A 
ATOM     18  N   UNL     1       3.219   5.541  17.717  0.00  0.00    +0.000 NA
ATOM     19  H   UNL     1       3.290   6.080  20.851  0.00  0.00    +0.000 HD
ENDBRANCH  13  14
ENDBRANCH   1  13
TORSDOF 8
ENDMDL
MODEL 7
REMARK VINA RESULT:      -5.7      2.259      5.076
REMARK  Name = 
REMARK  10 active torsions:
REMARK  status: ('A' for Active; 'I' for Inactive)
REMARK    1  A    between atoms: C_1  and  C_2
REMARK    2  A    between atoms: C_2  and  C_3
REMARK    3  A    between atoms: C_3  and  C_4
REMARK    4  A    between atoms: C_4  and  C_5
REMARK    5  A    between atoms: C_5  and  N_6
REMARK    6  A    between atoms: C_5  and  C_7
REMARK    7  A    between atoms: C_5  and  C_13
REMARK    8  A    between atoms: C_7  and  C_8
REMARK    9  A    between atoms: C_13  and  O_15
REMARK   10  A    between atoms: O_15  and  C_16
REMARK                            x       y       z     vdW  Elec       q    Type
REMARK                         _______ _______ _______ _____ _____    ______ ____
ROOT
ATOM      1  C   UNL     1       4.063   4.363  17.652  0.00  0.00    +0.000 C 
ENDROOT
BRANCH   1   2
ATOM      2  N   UNL     1       4.844   3.155  17.234  0.00  0.00    +0.000 NA
ATOM      3  H   UNL     1       4.583   2.889  16.285  0.00  0.00    +0.000 HD
ATOM      4  H   UNL     1       4.586   2.370  17.833  0.00  0.00    +0.000 HD
ENDBRANCH   1   2
BRANCH   1   5
ATOM      5  C   UNL     1       4.525   4.747  19.087  0.00  0.00    +0.000 C 
ATOM      6  O   UNL     1       3.822   5.299  19.928  0.00  0.00    +0.000 OA
BRANCH   5   7
ATOM      7  O   UNL     1       5.810   4.338  19.319  0.00  0.00    +0.000 OA
ATOM      8  C   UNL     1       6.742   5.405  19.474  0.00  0.00    +0.000 C 
ENDBRANCH   5   7
ENDBRANCH   1   5
BRANCH   1   9
ATOM      9  C   UNL     1       2.550   3.992  17.689  0.00  0.00    +0.000 C 
BRANCH   9  10
ATOM     10  C   UNL     1       2.242   2.503  17.895  0.00  0.00    +0.000 C 
BRANCH  10  12
ATOM     11  C   UNL     1       0.918   3.189  19.912  0.00  0.00    +0.000 C 
ATOM     12  C   UNL     1       1.908   2.176  19.353  0.00  0.00    +0.000 C 
ENDBRANCH  10  12
ENDBRANCH   9  10
ENDBRANCH   1   9
BRANCH   1  13
ATOM     13  C   UNL     1       4.399   5.523  16.683  0.00  0.00    +0.000 C 
BRANCH  13  14
ATOM     14  C   UNL     1       5.564   5.302  15.772  0.00  0.00    +0.000 A 
ATOM     15  C   UNL     1       6.880   5.675  15.938  0.00  0.00    +0.000 A 
ATOM     16  N   UNL     1       7.551   5.127  14.880  0.00  0.00    +0.000 N 
ATOM     17  C   UNL     1       6.635   4.459  14.119  0.00  0.00    +0.000 A 
ATOM     18  N   UNL     1       5.426   4.560  14.622  0.00  0.00    +0.000 NA
ATOM     19  H   UNL     1       8.545   5.176  14.705  0.00  0.00    +0.000 HD
ENDBRANCH  13  14
ENDBRANCH   1  13
TORSDOF 8
ENDMDL
MODEL 8
REMARK VINA RESULT:      -5.7      2.692      5.352
REMARK  Name = 
REMARK  10 active torsions:
REMARK  status: ('A' for Active; 'I' for Inactive)
REMARK    1  A    between atoms: C_1  and  C_2
REMARK    2  A    between atoms: C_2  and  C_3
REMARK    3  A    between atoms: C_3  and  C_4
REMARK    4  A    between atoms: C_4  and  C_5
REMARK    5  A    between atoms: C_5  and  N_6
REMARK    6  A    between atoms: C_5  and  C_7
REMARK    7  A    between atoms: C_5  and  C_13
REMARK    8  A    between atoms: C_7  and  C_8
REMARK    9  A    between atoms: C_13  and  O_15
REMARK   10  A    between atoms: O_15  and  C_16
REMARK                            x       y       z     vdW  Elec       q    Type
REMARK                         _______ _______ _______ _____ _____    ______ ____
ROOT
ATOM      1  C   UNL     1       6.895   6.069  17.724  0.00  0.00    +0.000 C 
ENDROOT
BRANCH   1   2
ATOM      2  N   UNL     1       6.172   6.874  16.688  0.00  0.00    +0.000 NA
ATOM      3  H   UNL     1       6.829   7.491  16.213  0.00  0.00    +0.000 HD
ATOM      4  H   UNL     1       5.494   7.479  17.153  0.00  0.00    +0.000 HD
ENDBRANCH   1   2
BRANCH   1   5
ATOM      5  C   UNL     1       5.847   5.611  18.778  0.00  0.00    +0.000 C 
ATOM      6  O   UNL     1       6.115   5.079  19.852  0.00  0.00    +0.000 OA
BRANCH   5   7
ATOM      7  O   UNL     1       4.576   5.929  18.383  0.00  0.00    +0.000 OA
ATOM      8  C   UNL     1       3.681   4.820  18.353  0.00  0.00    +0.000 C 
ENDBRANCH   5   7
ENDBRANCH   1   5
BRANCH   1   9
ATOM      9  C   UNL     1       7.949   6.981  18.420  0.00  0.00    +0.000 C 
BRANCH   9  10
ATOM     10  C   UNL     1       8.065   8.403  17.854  0.00  0.00    +0.000 C 
BRANCH  10  12
ATOM     11  C   UNL     1       8.939  10.732  18.183  0.00  0.00    +0.000 C 
ATOM     12  C   UNL     1       8.858   9.332  18.777  0.00  0.00    +0.000 C 
ENDBRANCH  10  12
ENDBRANCH   9  10
ENDBRANCH   1   9
BRANCH   1  13
ATOM     13  C   UNL     1       7.504   4.821  17.039  0.00  0.00    +0.000 C 
BRANCH  13  14
ATOM     14  C   UNL     1       7.037   4.544  15.645  0.00  0.00    +0.000 A 
ATOM     15  C   UNL     1       6.006   3.735  15.219  0.00  0.00    +0.000 A 
ATOM     16  N   UNL     1       5.926   3.929  13.868  0.00  0.00    +0.000 N 
ATOM     17  C   UNL     1       6.896   4.827  13.526  0.00  0.00    +0.000 A 
ATOM     18  N   UNL     1       7.593   5.203  14.574  0.00  0.00    +0.000 NA
ATOM     19  H   UNL     1       5.253   3.514  13.238  0.00  0.00    +0.000 HD
ENDBRANCH  13  14
ENDBRANCH   1  13
TORSDOF 8
ENDMDL
MODEL 9
REMARK VINA RESULT:      -5.7      2.098      3.426
REMARK  Name = 
REMARK  10 active torsions:
REMARK  status: ('A' for Active; 'I' for Inactive)
REMARK    1  A    between atoms: C_1  and  C_2
REMARK    2  A    between atoms: C_2  and  C_3
REMARK    3  A    between atoms: C_3  and  C_4
REMARK    4  A    between atoms: C_4  and  C_5
REMARK    5  A    between atoms: C_5  and  N_6
REMARK    6  A    between atoms: C_5  and  C_7
REMARK    7  A    between atoms: C_5  and  C_13
REMARK    8  A    between atoms: C_7  and  C_8
REMARK    9  A    between atoms: C_13  and  O_15
REMARK   10  A    between atoms: O_15  and  C_16
REMARK                            x       y       z     vdW  Elec       q    Type
REMARK                         _______ _______ _______ _____ _____    ______ ____
ROOT
ATOM      1  C   UNL     1       5.418   4.498  17.657  0.00  0.00    +0.000 C 
ENDROOT
BRANCH   1   2
ATOM      2  N   UNL     1       5.707   3.753  18.924  0.00  0.00    +0.000 NA
ATOM      3  H   UNL     1       5.158   2.894  18.950  0.00  0.00    +0.000 HD
ATOM      4  H   UNL     1       5.397   4.315  19.718  0.00  0.00    +0.000 HD
ENDBRANCH   1   2
BRANCH   1   5
ATOM      5  C   UNL     1       6.651   4.334  16.725  0.00  0.00    +0.000 C 
ATOM      6  O   UNL     1       7.819   4.504  17.065  0.00  0.00    +0.000 OA
BRANCH   5   7
ATOM      7  O   UNL     1       6.276   3.916  15.476  0.00  0.00    +0.000 OA
ATOM      8  C   UNL     1       6.756   4.741  14.417  0.00  0.00    +0.000 C 
ENDBRANCH   5   7
ENDBRANCH   1   5
BRANCH   1   9
ATOM      9  C   UNL     1       5.236   6.008  17.996  0.00  0.00    +0.000 C 
BRANCH   9  10
ATOM     10  C   UNL     1       4.461   6.827  16.954  0.00  0.00    +0.000 C 
BRANCH  10  12
ATOM     11  C   UNL     1       2.512   7.053  18.517  0.00  0.00    +0.000 C 
ATOM     12  C   UNL     1       3.472   7.800  17.601  0.00  0.00    +0.000 C 
ENDBRANCH  10  12
ENDBRANCH   9  10
ENDBRANCH   1   9
BRANCH   1  13
ATOM     13  C   UNL     1       4.181   3.855  16.982  0.00  0.00    +0.000 C 
BRANCH  13  14
ATOM     14  C   UNL     1       3.241   3.129  17.890  0.00  0.00    +0.000 A 
ATOM     15  C   UNL     1       2.760   1.841  17.793  0.00  0.00    +0.000 A 
ATOM     16  N   UNL     1       2.037   1.635  18.936  0.00  0.00    +0.000 N 
ATOM     17  C   UNL     1       2.097   2.786  19.669  0.00  0.00    +0.000 A 
ATOM     18  N   UNL     1       2.802   3.710  19.057  0.00  0.00    +0.000 NA
ATOM     19  H   UNL     1       1.570   0.781  19.208  0.00  0.00    +0.000 HD
ENDBRANCH  13  14
ENDBRANCH   1  13
TORSDOF 8
ENDMDL
