MODEL 1
REMARK VINA RESULT:      -8.0      0.000      0.000
REMARK  Name = 
REMARK  5 active torsions:
REMARK  status: ('A' for Active; 'I' for Inactive)
REMARK    1  A    between atoms: C_2  and  C_3
REMARK    2  A    between atoms: C_4  and  C_5
REMARK    3  A    between atoms: C_8  and  N_9
REMARK    4  A    between atoms: C_20  and  C_21
REMARK    5  A    between atoms: C_21  and  C_22
REMARK                            x       y       z     vdW  Elec       q    Type
REMARK                         _______ _______ _______ _____ _____    ______ ____
ROOT
ATOM      1  C   UNL     1       3.109   5.326  18.055  0.00  0.00    +0.000 A 
ATOM      2  C   UNL     1       3.241   6.677  17.921  0.00  0.00    +0.000 A 
ATOM      3  C   UNL     1       4.272   7.234  17.039  0.00  0.00    +0.000 A 
ATOM      4  C   UNL     1       5.086   6.415  16.357  0.00  0.00    +0.000 A 
ATOM      5  N   UNL     1       4.948   5.037  16.507  0.00  0.00    +0.000 N 
ATOM      6  C   UNL     1       5.660   4.002  15.926  0.00  0.00    +0.000 A 
ATOM      7  C   UNL     1       5.102   2.852  16.445  0.00  0.00    +0.000 A 
ATOM      8  N   UNL     1       4.076   3.139  17.308  0.00  0.00    +0.000 NA
ATOM      9  C   UNL     1       3.988   4.452  17.336  0.00  0.00    +0.000 A 
ENDROOT
BRANCH   2  10
ATOM     10  C   UNL     1       2.377   7.606  18.689  0.00  0.00    +0.000 A 
ATOM     11  C   UNL     1       2.223   7.420  20.062  0.00  0.00    +0.000 A 
ATOM     12  C   UNL     1       1.412   8.290  20.794  0.00  0.00    +0.000 A 
ATOM     13  C   UNL     1       0.731   9.363  20.192  0.00  0.00    +0.000 A 
ATOM     14  C   UNL     1       0.935   9.563  18.823  0.00  0.00    +0.000 A 
ATOM     15  C   UNL     1       1.743   8.691  18.074  0.00  0.00    +0.000 A 
BRANCH  13  16
ATOM     16  N   UNL     1      -0.081  10.162  20.986  0.00  0.00    +0.000 N 
ATOM     17  C   UNL     1      -0.900  11.239  20.430  0.00  0.00    +0.000 C 
ATOM     18  C   UNL     1      -1.061  12.318  21.512  0.00  0.00    +0.000 C 
ATOM     19  C   UNL     1      -1.577  11.745  22.836  0.00  0.00    +0.000 C 
ATOM     20  C   UNL     1      -0.776  10.520  23.277  0.00  0.00    +0.000 C 
ATOM     21  C   UNL     1      -0.685   9.497  22.149  0.00  0.00    +0.000 C 
ENDBRANCH  13  16
ENDBRANCH   2  10
BRANCH   1  23
ATOM     22  N   UNL     1       1.134   4.288  19.716  0.00  0.00    +0.000 NA
ATOM     23  C   UNL     1       2.029   4.758  18.963  0.00  0.00    +0.000 C 
ENDBRANCH   1  23
BRANCH   6  24
ATOM     24  C   UNL     1       6.754   4.161  14.909  0.00  0.00    +0.000 C 
BRANCH  24  25
ATOM     25  C   UNL     1       6.355   4.018  13.444  0.00  0.00    +0.000 C 
ATOM     26  F   UNL     1       6.497   2.762  12.970  0.00  0.00    +0.000 F 
ATOM     27  F   UNL     1       5.069   4.386  13.250  0.00  0.00    +0.000 F 
ATOM     28  F   UNL     1       7.125   4.823  12.672  0.00  0.00    +0.000 F 
ENDBRANCH  24  25
ENDBRANCH   6  24
TORSDOF 5
ENDMDL
MODEL 2
REMARK VINA RESULT:      -8.0      0.743      1.511
REMARK  Name = 
REMARK  5 active torsions:
REMARK  status: ('A' for Active; 'I' for Inactive)
REMARK    1  A    between atoms: C_2  and  C_3
REMARK    2  A    between atoms: C_4  and  C_5
REMARK    3  A    between atoms: C_8  and  N_9
REMARK    4  A    between atoms: C_20  and  C_21
REMARK    5  A    between atoms: C_21  and  C_22
REMARK                            x       y       z     vdW  Elec       q    Type
REMARK                         _______ _______ _______ _____ _____    ______ ____
ROOT
ATOM      1  C   UNL     1       2.867   5.575  18.558  0.00  0.00    +0.000 A 
ATOM      2  C   UNL     1       3.003   6.920  18.373  0.00  0.00    +0.000 A 
ATOM      3  C   UNL     1       4.062   7.442  17.503  0.00  0.00    +0.000 A 
ATOM      4  C   UNL     1       4.899   6.597  16.883  0.00  0.00    +0.000 A 
ATOM      5  N   UNL     1       4.757   5.226  17.085  0.00  0.00    +0.000 N 
ATOM      6  C   UNL     1       5.489   4.170  16.570  0.00  0.00    +0.000 A 
ATOM      7  C   UNL     1       4.914   3.041  17.119  0.00  0.00    +0.000 A 
ATOM      8  N   UNL     1       3.861   3.361  17.935  0.00  0.00    +0.000 NA
ATOM      9  C   UNL     1       3.771   4.674  17.905  0.00  0.00    +0.000 A 
ENDROOT
BRANCH   2  10
ATOM     10  C   UNL     1       2.114   7.878  19.073  0.00  0.00    +0.000 A 
ATOM     11  C   UNL     1       1.472   8.876  18.341  0.00  0.00    +0.000 A 
ATOM     12  C   UNL     1       0.632   9.783  18.991  0.00  0.00    +0.000 A 
ATOM     13  C   UNL     1       0.404   9.730  20.378  0.00  0.00    +0.000 A 
ATOM     14  C   UNL     1       1.017   8.693  21.088  0.00  0.00    +0.000 A 
ATOM     15  C   UNL     1       1.871   7.779  20.447  0.00  0.00    +0.000 A 
BRANCH  13  16
ATOM     16  N   UNL     1      -0.421  10.688  20.951  0.00  0.00    +0.000 N 
ATOM     17  C   UNL     1      -0.338  11.045  22.368  0.00  0.00    +0.000 C 
ATOM     18  C   UNL     1      -1.731  11.505  22.822  0.00  0.00    +0.000 C 
ATOM     19  C   UNL     1      -2.305  12.605  21.923  0.00  0.00    +0.000 C 
ATOM     20  C   UNL     1      -2.212  12.236  20.442  0.00  0.00    +0.000 C 
ATOM     21  C   UNL     1      -0.793  11.811  20.078  0.00  0.00    +0.000 C 
ENDBRANCH  13  16
ENDBRANCH   2  10
BRANCH   1  23
ATOM     22  N   UNL     1       0.840   4.602  20.195  0.00  0.00    +0.000 NA
ATOM     23  C   UNL     1       1.759   5.043  19.452  0.00  0.00    +0.000 C 
ENDBRANCH   1  23
BRANCH   6  24
ATOM     24  C   UNL     1       6.615   4.289  15.585  0.00  0.00    +0.000 C 
BRANCH  24  25
ATOM     25  C   UNL     1       6.238   4.272  14.107  0.00  0.00    +0.000 C 
ATOM     26  F   UNL     1       6.268   3.039  13.561  0.00  0.00    +0.000 F 
ATOM     27  F   UNL     1       5.000   4.778  13.914  0.00  0.00    +0.000 F 
ATOM     28  F   UNL     1       7.102   5.041  13.399  0.00  0.00    +0.000 F 
ENDBRANCH  24  25
ENDBRANCH   6  24
TORSDOF 5
ENDMDL
MODEL 3
REMARK VINA RESULT:      -7.9      0.660      1.360
REMARK  Name = 
REMARK  5 active torsions:
REMARK  status: ('A' for Active; 'I' for Inactive)
REMARK    1  A    between atoms: C_2  and  C_3
REMARK    2  A    between atoms: C_4  and  C_5
REMARK    3  A    between atoms: C_8  and  N_9
REMARK    4  A    between atoms: C_20  and  C_21
REMARK    5  A    between atoms: C_21  and  C_22
REMARK                            x       y       z     vdW  Elec       q    Type
REMARK                         _______ _______ _______ _____ _____    ______ ____
ROOT
ATOM      1  C   UNL     1       2.964   5.586  18.410  0.00  0.00    +0.000 A 
ATOM      2  C   UNL     1       3.085   6.926  18.178  0.00  0.00    +0.000 A 
ATOM      3  C   UNL     1       4.144   7.429  17.296  0.00  0.00    +0.000 A 
ATOM      4  C   UNL     1       4.993   6.572  16.710  0.00  0.00    +0.000 A 
ATOM      5  N   UNL     1       4.866   5.208  16.959  0.00  0.00    +0.000 N 
ATOM      6  C   UNL     1       5.611   4.143  16.486  0.00  0.00    +0.000 A 
ATOM      7  C   UNL     1       5.047   3.027  17.070  0.00  0.00    +0.000 A 
ATOM      8  N   UNL     1       3.985   3.364  17.869  0.00  0.00    +0.000 NA
ATOM      9  C   UNL     1       3.881   4.674  17.793  0.00  0.00    +0.000 A 
ENDROOT
BRANCH   2  10
ATOM     10  C   UNL     1       2.182   7.897  18.839  0.00  0.00    +0.000 A 
ATOM     11  C   UNL     1       1.525   8.855  18.069  0.00  0.00    +0.000 A 
ATOM     12  C   UNL     1       0.671   9.774  18.682  0.00  0.00    +0.000 A 
ATOM     13  C   UNL     1       0.444   9.774  20.070  0.00  0.00    +0.000 A 
ATOM     14  C   UNL     1       1.074   8.777  20.821  0.00  0.00    +0.000 A 
ATOM     15  C   UNL     1       1.941   7.851  20.216  0.00  0.00    +0.000 A 
BRANCH  13  16
ATOM     16  N   UNL     1      -0.395  10.742  20.605  0.00  0.00    +0.000 N 
ATOM     17  C   UNL     1      -1.447  11.385  19.817  0.00  0.00    +0.000 C 
ATOM     18  C   UNL     1      -1.664  12.797  20.382  0.00  0.00    +0.000 C 
ATOM     19  C   UNL     1      -1.917  12.790  21.893  0.00  0.00    +0.000 C 
ATOM     20  C   UNL     1      -0.871  11.962  22.641  0.00  0.00    +0.000 C 
ATOM     21  C   UNL     1      -0.737  10.574  22.025  0.00  0.00    +0.000 C 
ENDBRANCH  13  16
ENDBRANCH   2  10
BRANCH   1  23
ATOM     22  N   UNL     1       0.938   4.648  20.067  0.00  0.00    +0.000 NA
ATOM     23  C   UNL     1       1.857   5.074  19.316  0.00  0.00    +0.000 C 
ENDBRANCH   1  23
BRANCH   6  24
ATOM     24  C   UNL     1       6.742   4.239  15.503  0.00  0.00    +0.000 C 
BRANCH  24  25
ATOM     25  C   UNL     1       6.365   4.280  14.025  0.00  0.00    +0.000 C 
ATOM     26  F   UNL     1       7.160   5.086  13.292  0.00  0.00    +0.000 F 
ATOM     27  F   UNL     1       6.412   3.046  13.475  0.00  0.00    +0.000 F 
ATOM     28  F   UNL     1       5.097   4.736  13.882  0.00  0.00    +0.000 F 
ENDBRANCH  24  25
ENDBRANCH   6  24
TORSDOF 5
ENDMDL
MODEL 4
REMARK VINA RESULT:      -7.7      5.773     10.491
REMARK  Name = 
REMARK  5 active torsions:
REMARK  status: ('A' for Active; 'I' for Inactive)
REMARK    1  A    between atoms: C_2  and  C_3
REMARK    2  A    between atoms: C_4  and  C_5
REMARK    3  A    between atoms: C_8  and  N_9
REMARK    4  A    between atoms: C_20  and  C_21
REMARK    5  A    between atoms: C_21  and  C_22
REMARK                            x       y       z     vdW  Elec       q    Type
REMARK                         _______ _______ _______ _____ _____    ______ ____
ROOT
ATOM      1  C   UNL     1      -1.014  10.747  19.483  0.00  0.00    +0.000 A 
ATOM      2  C   UNL     1       0.078  10.300  20.168  0.00  0.00    +0.000 A 
ATOM      3  C   UNL     1       0.382  10.835  21.501  0.00  0.00    +0.000 A 
ATOM      4  C   UNL     1      -0.417  11.760  22.051  0.00  0.00    +0.000 A 
ATOM      5  N   UNL     1      -1.525  12.215  21.340  0.00  0.00    +0.000 N 
ATOM      6  C   UNL     1      -2.481  13.154  21.685  0.00  0.00    +0.000 A 
ATOM      7  C   UNL     1      -3.330  13.212  20.599  0.00  0.00    +0.000 A 
ATOM      8  N   UNL     1      -2.940  12.343  19.612  0.00  0.00    +0.000 NA
ATOM      9  C   UNL     1      -1.859  11.746  20.067  0.00  0.00    +0.000 A 
ENDROOT
BRANCH   2  10
ATOM     10  C   UNL     1       0.996   9.303  19.570  0.00  0.00    +0.000 A 
ATOM     11  C   UNL     1       1.549   9.548  18.314  0.00  0.00    +0.000 A 
ATOM     12  C   UNL     1       2.416   8.615  17.742  0.00  0.00    +0.000 A 
ATOM     13  C   UNL     1       2.759   7.415  18.391  0.00  0.00    +0.000 A 
ATOM     14  C   UNL     1       2.233   7.208  19.670  0.00  0.00    +0.000 A 
ATOM     15  C   UNL     1       1.354   8.137  20.254  0.00  0.00    +0.000 A 
BRANCH  13  16
ATOM     16  N   UNL     1       3.603   6.527  17.739  0.00  0.00    +0.000 N 
ATOM     17  C   UNL     1       4.857   6.954  17.117  0.00  0.00    +0.000 C 
ATOM     18  C   UNL     1       5.146   6.008  15.941  0.00  0.00    +0.000 C 
ATOM     19  C   UNL     1       5.112   4.533  16.355  0.00  0.00    +0.000 C 
ATOM     20  C   UNL     1       3.848   4.192  17.145  0.00  0.00    +0.000 C 
ATOM     21  C   UNL     1       3.652   5.169  18.300  0.00  0.00    +0.000 C 
ENDBRANCH  13  16
ENDBRANCH   2  10
BRANCH   1  23
ATOM     22  N   UNL     1      -1.587   9.708  16.968  0.00  0.00    +0.000 NA
ATOM     23  C   UNL     1      -1.327  10.179  18.108  0.00  0.00    +0.000 C 
ENDBRANCH   1  23
BRANCH   6  24
ATOM     24  C   UNL     1      -2.557  13.877  22.999  0.00  0.00    +0.000 C 
BRANCH  24  25
ATOM     25  C   UNL     1      -3.578  13.361  24.008  0.00  0.00    +0.000 C 
ATOM     26  F   UNL     1      -3.419  13.879  25.244  0.00  0.00    +0.000 F 
ATOM     27  F   UNL     1      -4.840  13.633  23.608  0.00  0.00    +0.000 F 
ATOM     28  F   UNL     1      -3.475  12.014  24.125  0.00  0.00    +0.000 F 
ENDBRANCH  24  25
ENDBRANCH   6  24
TORSDOF 5
ENDMDL
MODEL 5
REMARK VINA RESULT:      -7.7      2.685      4.127
REMARK  Name = 
REMARK  5 active torsions:
REMARK  status: ('A' for Active; 'I' for Inactive)
REMARK    1  A    between atoms: C_2  and  C_3
REMARK    2  A    between atoms: C_4  and  C_5
REMARK    3  A    between atoms: C_8  and  N_9
REMARK    4  A    between atoms: C_20  and  C_21
REMARK    5  A    between atoms: C_21  and  C_22
REMARK                            x       y       z     vdW  Elec       q    Type
REMARK                         _______ _______ _______ _____ _____    ______ ____
ROOT
ATOM      1  C   UNL     1       2.388   7.609  18.914  0.00  0.00    +0.000 A 
ATOM      2  C   UNL     1       1.708   7.503  20.093  0.00  0.00    +0.000 A 
ATOM      3  C   UNL     1       1.709   6.237  20.833  0.00  0.00    +0.000 A 
ATOM      4  C   UNL     1       2.381   5.180  20.355  0.00  0.00    +0.000 A 
ATOM      5  N   UNL     1       3.064   5.295  19.147  0.00  0.00    +0.000 N 
ATOM      6  C   UNL     1       3.814   4.360  18.455  0.00  0.00    +0.000 A 
ATOM      7  C   UNL     1       4.243   5.020  17.321  0.00  0.00    +0.000 A 
ATOM      8  N   UNL     1       3.797   6.315  17.296  0.00  0.00    +0.000 NA
ATOM      9  C   UNL     1       3.095   6.474  18.398  0.00  0.00    +0.000 A 
ENDROOT
BRANCH   2  10
ATOM     10  C   UNL     1       0.930   8.645  20.627  0.00  0.00    +0.000 A 
ATOM     11  C   UNL     1       1.085   9.016  21.962  0.00  0.00    +0.000 A 
ATOM     12  C   UNL     1       0.356  10.092  22.474  0.00  0.00    +0.000 A 
ATOM     13  C   UNL     1      -0.546  10.827  21.685  0.00  0.00    +0.000 A 
ATOM     14  C   UNL     1      -0.655  10.472  20.337  0.00  0.00    +0.000 A 
ATOM     15  C   UNL     1       0.069   9.387  19.811  0.00  0.00    +0.000 A 
BRANCH  13  16
ATOM     16  N   UNL     1      -1.255  11.862  22.280  0.00  0.00    +0.000 N 
ATOM     17  C   UNL     1      -2.192  11.635  23.381  0.00  0.00    +0.000 C 
ATOM     18  C   UNL     1      -3.275  12.722  23.310  0.00  0.00    +0.000 C 
ATOM     19  C   UNL     1      -2.684  14.135  23.261  0.00  0.00    +0.000 C 
ATOM     20  C   UNL     1      -1.593  14.258  22.197  0.00  0.00    +0.000 C 
ATOM     21  C   UNL     1      -0.554  13.152  22.354  0.00  0.00    +0.000 C 
ENDBRANCH  13  16
ENDBRANCH   2  10
BRANCH   1  23
ATOM     22  N   UNL     1       2.395  10.023  17.534  0.00  0.00    +0.000 NA
ATOM     23  C   UNL     1       2.392   8.928  18.160  0.00  0.00    +0.000 C 
ENDBRANCH   1  23
BRANCH   6  24
ATOM     24  C   UNL     1       4.109   2.964  18.919  0.00  0.00    +0.000 C 
BRANCH  24  25
ATOM     25  C   UNL     1       3.123   1.878  18.500  0.00  0.00    +0.000 C 
ATOM     26  F   UNL     1       2.126   1.687  19.389  0.00  0.00    +0.000 F 
ATOM     27  F   UNL     1       2.558   2.167  17.306  0.00  0.00    +0.000 F 
ATOM     28  F   UNL     1       3.766   0.693  18.364  0.00  0.00    +0.000 F 
ENDBRANCH  24  25
ENDBRANCH   6  24
TORSDOF 5
ENDMDL
MODEL 6
REMARK VINA RESULT:      -7.7      2.683      4.226
REMARK  Name = 
REMARK  5 active torsions:
REMARK  status: ('A' for Active; 'I' for Inactive)
REMARK    1  A    between atoms: C_2  and  C_3
REMARK    2  A    between atoms: C_4  and  C_5
REMARK    3  A    between atoms: C_8  and  N_9
REMARK    4  A    between atoms: C_20  and  C_21
REMARK    5  A    between atoms: C_21  and  C_22
REMARK                            x       y       z     vdW  Elec       q    Type
REMARK                         _______ _______ _______ _____ _____    ______ ____
ROOT
ATOM      1  C   UNL     1       2.403   7.600  18.943  0.00  0.00    +0.000 A 
ATOM      2  C   UNL     1       1.758   7.467  20.139  0.00  0.00    +0.000 A 
ATOM      3  C   UNL     1       1.793   6.188  20.856  0.00  0.00    +0.000 A 
ATOM      4  C   UNL     1       2.462   5.147  20.341  0.00  0.00    +0.000 A 
ATOM      5  N   UNL     1       3.109   5.290  19.117  0.00  0.00    +0.000 N 
ATOM      6  C   UNL     1       3.848   4.376  18.387  0.00  0.00    +0.000 A 
ATOM      7  C   UNL     1       4.238   5.059  17.253  0.00  0.00    +0.000 A 
ATOM      8  N   UNL     1       3.779   6.350  17.263  0.00  0.00    +0.000 NA
ATOM      9  C   UNL     1       3.106   6.482  18.388  0.00  0.00    +0.000 A 
ENDROOT
BRANCH   2  10
ATOM     10  C   UNL     1       0.983   8.591  20.714  0.00  0.00    +0.000 A 
ATOM     11  C   UNL     1       0.095   9.297  19.903  0.00  0.00    +0.000 A 
ATOM     12  C   UNL     1      -0.640  10.358  20.437  0.00  0.00    +0.000 A 
ATOM     13  C   UNL     1      -0.518  10.752  21.781  0.00  0.00    +0.000 A 
ATOM     14  C   UNL     1       0.341  10.003  22.592  0.00  0.00    +0.000 A 
ATOM     15  C   UNL     1       1.092   8.938  22.065  0.00  0.00    +0.000 A 
BRANCH  13  16
ATOM     16  N   UNL     1      -1.262  11.837  22.224  0.00  0.00    +0.000 N 
ATOM     17  C   UNL     1      -2.253  11.719  23.294  0.00  0.00    +0.000 C 
ATOM     18  C   UNL     1      -3.337  12.781  23.052  0.00  0.00    +0.000 C 
ATOM     19  C   UNL     1      -2.751  14.186  22.880  0.00  0.00    +0.000 C 
ATOM     20  C   UNL     1      -1.608  14.206  21.865  0.00  0.00    +0.000 C 
ATOM     21  C   UNL     1      -0.573  13.135  22.194  0.00  0.00    +0.000 C 
ENDBRANCH  13  16
ENDBRANCH   2  10
BRANCH   1  23
ATOM     22  N   UNL     1       2.345  10.038  17.606  0.00  0.00    +0.000 NA
ATOM     23  C   UNL     1       2.372   8.932  18.212  0.00  0.00    +0.000 C 
ENDBRANCH   1  23
BRANCH   6  24
ATOM     24  C   UNL     1       4.171   2.974  18.819  0.00  0.00    +0.000 C 
BRANCH  24  25
ATOM     25  C   UNL     1       3.156   1.894  18.457  0.00  0.00    +0.000 C 
ATOM     26  F   UNL     1       2.512   2.132  17.296  0.00  0.00    +0.000 F 
ATOM     27  F   UNL     1       3.746   0.683  18.360  0.00  0.00    +0.000 F 
ATOM     28  F   UNL     1       2.210   1.805  19.424  0.00  0.00    +0.000 F 
ENDBRANCH  24  25
ENDBRANCH   6  24
TORSDOF 5
ENDMDL
MODEL 7
REMARK VINA RESULT:      -7.7      3.743      5.785
REMARK  Name = 
REMARK  5 active torsions:
REMARK  status: ('A' for Active; 'I' for Inactive)
REMARK    1  A    between atoms: C_2  and  C_3
REMARK    2  A    between atoms: C_4  and  C_5
REMARK    3  A    between atoms: C_8  and  N_9
REMARK    4  A    between atoms: C_20  and  C_21
REMARK    5  A    between atoms: C_21  and  C_22
REMARK                            x       y       z     vdW  Elec       q    Type
REMARK                         _______ _______ _______ _____ _____    ______ ____
ROOT
ATOM      1  C   UNL     1       1.059   9.398  20.091  0.00  0.00    +0.000 A 
ATOM      2  C   UNL     1       1.289  10.146  18.973  0.00  0.00    +0.000 A 
ATOM      3  C   UNL     1       1.966   9.552  17.815  0.00  0.00    +0.000 A 
ATOM      4  C   UNL     1       2.356   8.270  17.850  0.00  0.00    +0.000 A 
ATOM      5  N   UNL     1       2.124   7.517  18.998  0.00  0.00    +0.000 N 
ATOM      6  C   UNL     1       2.433   6.197  19.276  0.00  0.00    +0.000 A 
ATOM      7  C   UNL     1       1.983   5.991  20.564  0.00  0.00    +0.000 A 
ATOM      8  N   UNL     1       1.404   7.122  21.079  0.00  0.00    +0.000 NA
ATOM      9  C   UNL     1       1.489   8.031  20.132  0.00  0.00    +0.000 A 
ENDROOT
BRANCH   2  10
ATOM     10  C   UNL     1       0.899  11.574  18.920  0.00  0.00    +0.000 A 
ATOM     11  C   UNL     1       1.854  12.556  19.185  0.00  0.00    +0.000 A 
ATOM     12  C   UNL     1       1.496  13.905  19.137  0.00  0.00    +0.000 A 
ATOM     13  C   UNL     1       0.188  14.322  18.829  0.00  0.00    +0.000 A 
ATOM     14  C   UNL     1      -0.744  13.326  18.520  0.00  0.00    +0.000 A 
ATOM     15  C   UNL     1      -0.398  11.965  18.572  0.00  0.00    +0.000 A 
BRANCH  13  16
ATOM     16  N   UNL     1      -0.092  15.681  18.834  0.00  0.00    +0.000 N 
ATOM     17  C   UNL     1      -1.037  16.281  19.776  0.00  0.00    +0.000 C 
ATOM     18  C   UNL     1      -1.654  17.517  19.105  0.00  0.00    +0.000 C 
ATOM     19  C   UNL     1      -0.592  18.483  18.569  0.00  0.00    +0.000 C 
ATOM     20  C   UNL     1       0.459  17.762  17.724  0.00  0.00    +0.000 C 
ATOM     21  C   UNL     1       1.029  16.562  18.476  0.00  0.00    +0.000 C 
ENDBRANCH  13  16
ENDBRANCH   2  10
BRANCH   1  23
ATOM     22  N   UNL     1      -0.243  10.533  22.270  0.00  0.00    +0.000 NA
ATOM     23  C   UNL     1       0.347  10.018  21.282  0.00  0.00    +0.000 C 
ENDBRANCH   1  23
BRANCH   6  24
ATOM     24  C   UNL     1       3.070   5.232  18.319  0.00  0.00    +0.000 C 
BRANCH  24  25
ATOM     25  C   UNL     1       2.170   4.140  17.746  0.00  0.00    +0.000 C 
ATOM     26  F   UNL     1       2.731   3.468  16.720  0.00  0.00    +0.000 F 
ATOM     27  F   UNL     1       1.834   3.238  18.694  0.00  0.00    +0.000 F 
ATOM     28  F   UNL     1       1.018   4.684  17.283  0.00  0.00    +0.000 F 
ENDBRANCH  24  25
ENDBRANCH   6  24
TORSDOF 5
ENDMDL
MODEL 8
REMARK VINA RESULT:      -7.7      5.826     10.476
REMARK  Name = 
REMARK  5 active torsions:
REMARK  status: ('A' for Active; 'I' for Inactive)
REMARK    1  A    between atoms: C_2  and  C_3
REMARK    2  A    between atoms: C_4  and  C_5
REMARK    3  A    between atoms: C_8  and  N_9
REMARK    4  A    between atoms: C_20  and  C_21
REMARK    5  A    between atoms: C_21  and  C_22
REMARK                            x       y       z     vdW  Elec       q    Type
REMARK                         _______ _______ _______ _____ _____    ______ ____
ROOT
ATOM      1  C   UNL     1      -1.027  10.822  19.490  0.00  0.00    +0.000 A 
ATOM      2  C   UNL     1       0.098  10.386  20.128  0.00  0.00    +0.000 A 
ATOM      3  C   UNL     1       0.450  10.918  21.449  0.00  0.00    +0.000 A 
ATOM      4  C   UNL     1      -0.336  11.832  22.036  0.00  0.00    +0.000 A 
ATOM      5  N   UNL     1      -1.478  12.276  21.374  0.00  0.00    +0.000 N 
ATOM      6  C   UNL     1      -2.429  13.203  21.763  0.00  0.00    +0.000 A 
ATOM      7  C   UNL     1      -3.323  13.255  20.713  0.00  0.00    +0.000 A 
ATOM      8  N   UNL     1      -2.965  12.396  19.707  0.00  0.00    +0.000 NA
ATOM      9  C   UNL     1      -1.859  11.809  20.114  0.00  0.00    +0.000 A 
ENDROOT
BRANCH   2  10
ATOM     10  C   UNL     1       1.002   9.402  19.488  0.00  0.00    +0.000 A 
ATOM     11  C   UNL     1       1.325   8.226  20.164  0.00  0.00    +0.000 A 
ATOM     12  C   UNL     1       2.175   7.293  19.569  0.00  0.00    +0.000 A 
ATOM     13  C   UNL     1       2.731   7.494  18.292  0.00  0.00    +0.000 A 
ATOM     14  C   UNL     1       2.359   8.655  17.608  0.00  0.00    +0.000 A 
ATOM     15  C   UNL     1       1.509   9.606  18.200  0.00  0.00    +0.000 A 
BRANCH  13  16
ATOM     16  N   UNL     1       3.593   6.531  17.785  0.00  0.00    +0.000 N 
ATOM     17  C   UNL     1       4.875   6.876  17.170  0.00  0.00    +0.000 C 
ATOM     18  C   UNL     1       5.203   5.797  16.127  0.00  0.00    +0.000 C 
ATOM     19  C   UNL     1       5.139   4.381  16.709  0.00  0.00    +0.000 C 
ATOM     20  C   UNL     1       3.840   4.142  17.480  0.00  0.00    +0.000 C 
ATOM     21  C   UNL     1       3.605   5.248  18.504  0.00  0.00    +0.000 C 
ENDBRANCH  13  16
ENDBRANCH   2  10
BRANCH   1  23
ATOM     22  N   UNL     1      -1.691   9.787  16.996  0.00  0.00    +0.000 NA
ATOM     23  C   UNL     1      -1.390  10.257  18.127  0.00  0.00    +0.000 C 
ENDBRANCH   1  23
BRANCH   6  24
ATOM     24  C   UNL     1      -2.459  13.920  23.082  0.00  0.00    +0.000 C 
BRANCH  24  25
ATOM     25  C   UNL     1      -3.502  13.452  24.093  0.00  0.00    +0.000 C 
ATOM     26  F   UNL     1      -3.534  12.112  24.248  0.00  0.00    +0.000 F 
ATOM     27  F   UNL     1      -3.284  14.002  25.308  0.00  0.00    +0.000 F 
ATOM     28  F   UNL     1      -4.739  13.836  23.694  0.00  0.00    +0.000 F 
ENDBRANCH  24  25
ENDBRANCH   6  24
TORSDOF 5
ENDMDL
MODEL 9
REMARK VINA RESULT:      -7.6      3.708      5.794
REMARK  Name = 
REMARK  5 active torsions:
REMARK  status: ('A' for Active; 'I' for Inactive)
REMARK    1  A    between atoms: C_2  and  C_3
REMARK    2  A    between atoms: C_4  and  C_5
REMARK    3  A    between atoms: C_8  and  N_9
REMARK    4  A    between atoms: C_20  and  C_21
REMARK    5  A    between atoms: C_21  and  C_22
REMARK                            x       y       z     vdW  Elec       q    Type
REMARK                         _______ _______ _______ _____ _____    ______ ____
ROOT
ATOM      1  C   UNL     1       1.099   9.465  20.130  0.00  0.00    +0.000 A 
ATOM      2  C   UNL     1       1.287  10.256  19.034  0.00  0.00    +0.000 A 
ATOM      3  C   UNL     1       1.923   9.709  17.830  0.00  0.00    +0.000 A 
ATOM      4  C   UNL     1       2.317   8.428  17.802  0.00  0.00    +0.000 A 
ATOM      5  N   UNL     1       2.128   7.631  18.929  0.00  0.00    +0.000 N 
ATOM      6  C   UNL     1       2.450   6.303  19.145  0.00  0.00    +0.000 A 
ATOM      7  C   UNL     1       2.046   6.046  20.440  0.00  0.00    +0.000 A 
ATOM      8  N   UNL     1       1.484   7.155  21.018  0.00  0.00    +0.000 NA
ATOM      9  C   UNL     1       1.533   8.100  20.103  0.00  0.00    +0.000 A 
ENDROOT
BRANCH   2  10
ATOM     10  C   UNL     1       0.892  11.684  19.049  0.00  0.00    +0.000 A 
ATOM     11  C   UNL     1      -0.372  12.050  18.589  0.00  0.00    +0.000 A 
ATOM     12  C   UNL     1      -0.754  13.394  18.601  0.00  0.00    +0.000 A 
ATOM     13  C   UNL     1       0.100  14.410  19.063  0.00  0.00    +0.000 A 
ATOM     14  C   UNL     1       1.345  14.021  19.565  0.00  0.00    +0.000 A 
ATOM     15  C   UNL     1       1.744  12.673  19.553  0.00  0.00    +0.000 A 
BRANCH  13  16
ATOM     16  N   UNL     1      -0.345  15.724  19.011  0.00  0.00    +0.000 N 
ATOM     17  C   UNL     1      -1.073  16.347  20.118  0.00  0.00    +0.000 C 
ATOM     18  C   UNL     1      -2.004  17.417  19.528  0.00  0.00    +0.000 C 
ATOM     19  C   UNL     1      -1.261  18.404  18.621  0.00  0.00    +0.000 C 
ATOM     20  C   UNL     1      -0.390  17.684  17.591  0.00  0.00    +0.000 C 
ATOM     21  C   UNL     1       0.513  16.657  18.266  0.00  0.00    +0.000 C 
ENDBRANCH  13  16
ENDBRANCH   2  10
BRANCH   1  23
ATOM     22  N   UNL     1      -0.128  10.512  22.396  0.00  0.00    +0.000 NA
ATOM     23  C   UNL     1       0.429  10.038  21.368  0.00  0.00    +0.000 C 
ENDBRANCH   1  23
BRANCH   6  24
ATOM     24  C   UNL     1       3.053   5.376  18.129  0.00  0.00    +0.000 C 
BRANCH  24  25
ATOM     25  C   UNL     1       2.257   4.120  17.789  0.00  0.00    +0.000 C 
ATOM     26  F   UNL     1       2.191   3.236  18.806  0.00  0.00    +0.000 F 
ATOM     27  F   UNL     1       0.991   4.427  17.429  0.00  0.00    +0.000 F 
ATOM     28  F   UNL     1       2.828   3.478  16.741  0.00  0.00    +0.000 F 
ENDBRANCH  24  25
ENDBRANCH   6  24
TORSDOF 5
ENDMDL
