MODEL 1
REMARK VINA RESULT:      -6.5      0.000      0.000
REMARK  Name = 
REMARK  6 active torsions:
REMARK  status: ('A' for Active; 'I' for Inactive)
REMARK    1  A    between atoms: C_2  and  O_3
REMARK    2  A    between atoms: C_2  and  C_4
REMARK    3  A    between atoms: C_4  and  N_5
REMARK    4  A    between atoms: N_5  and  S_6
REMARK    5  A    between atoms: S_6  and  C_9
REMARK    6  A    between atoms: C_9  and  C_10
REMARK                            x       y       z     vdW  Elec       q    Type
REMARK                         _______ _______ _______ _____ _____    ______ ____
ROOT
ATOM      1  S   UNL     1       5.794   4.591  18.948  0.00  0.00    +0.000 S 
ATOM      2  O   UNL     1       5.321   3.301  19.394  0.00  0.00    +0.000 OA
ATOM      3  O   UNL     1       6.640   5.431  19.770  0.00  0.00    +0.000 OA
ENDROOT
BRANCH   1   4
ATOM      4  N   UNL     1       6.700   4.319  17.522  0.00  0.00    +0.000 NA
ATOM      5  H   UNL     1       7.399   5.054  17.366  0.00  0.00    +0.000 HD
BRANCH   4   6
ATOM      6  C   UNL     1       5.850   4.072  16.316  0.00  0.00    +0.000 C 
BRANCH   6   8
ATOM      7  O   UNL     1       7.477   5.241  14.951  0.00  0.00    +0.000 OA
ATOM      8  C   UNL     1       6.654   4.344  15.062  0.00  0.00    +0.000 C 
BRANCH   8   9
ATOM      9  O   UNL     1       6.350   3.490  14.053  0.00  0.00    +0.000 OA
ATOM     10  H   UNL     1       6.145   2.603  14.425  0.00  0.00    +0.000 HD
ENDBRANCH   8   9
ENDBRANCH   6   8
ENDBRANCH   4   6
ENDBRANCH   1   4
BRANCH   1  11
ATOM     11  C   UNL     1       4.405   5.574  18.332  0.00  0.00    +0.000 C 
BRANCH  11  12
ATOM     12  C   UNL     1       3.129   4.954  18.840  0.00  0.00    +0.000 A 
ATOM     13  C   UNL     1       2.701   5.174  20.159  0.00  0.00    +0.000 A 
ATOM     14  C   UNL     1       1.568   4.526  20.651  0.00  0.00    +0.000 A 
ATOM     15  C   UNL     1       0.849   3.656  19.833  0.00  0.00    +0.000 A 
ATOM     16  C   UNL     1       1.253   3.445  18.518  0.00  0.00    +0.000 A 
ATOM     17  C   UNL     1       2.384   4.093  18.021  0.00  0.00    +0.000 A 
ENDBRANCH  11  12
ENDBRANCH   1  11
TORSDOF 6
ENDMDL
MODEL 2
REMARK VINA RESULT:      -6.5      0.938      1.057
REMARK  Name = 
REMARK  6 active torsions:
REMARK  status: ('A' for Active; 'I' for Inactive)
REMARK    1  A    between atoms: C_2  and  O_3
REMARK    2  A    between atoms: C_2  and  C_4
REMARK    3  A    between atoms: C_4  and  N_5
REMARK    4  A    between atoms: N_5  and  S_6
REMARK    5  A    between atoms: S_6  and  C_9
REMARK    6  A    between atoms: C_9  and  C_10
REMARK                            x       y       z     vdW  Elec       q    Type
REMARK                         _______ _______ _______ _____ _____    ______ ____
ROOT
ATOM      1  S   UNL     1       5.567   4.417  18.961  0.00  0.00    +0.000 S 
ATOM      2  O   UNL     1       5.178   3.212  19.658  0.00  0.00    +0.000 OA
ATOM      3  O   UNL     1       6.720   5.199  19.354  0.00  0.00    +0.000 OA
ENDROOT
BRANCH   1   4
ATOM      4  N   UNL     1       5.871   3.972  17.337  0.00  0.00    +0.000 NA
ATOM      5  H   UNL     1       5.814   2.957  17.201  0.00  0.00    +0.000 HD
BRANCH   4   6
ATOM      6  C   UNL     1       7.137   4.552  16.789  0.00  0.00    +0.000 C 
BRANCH   6   8
ATOM      7  O   UNL     1       5.783   6.053  15.450  0.00  0.00    +0.000 OA
ATOM      8  C   UNL     1       6.820   5.422  15.590  0.00  0.00    +0.000 C 
BRANCH   8   9
ATOM      9  O   UNL     1       7.813   5.415  14.666  0.00  0.00    +0.000 OA
ATOM     10  H   UNL     1       7.714   4.629  14.084  0.00  0.00    +0.000 HD
ENDBRANCH   8   9
ENDBRANCH   6   8
ENDBRANCH   4   6
ENDBRANCH   1   4
BRANCH   1  11
ATOM     11  C   UNL     1       4.138   5.515  18.792  0.00  0.00    +0.000 C 
BRANCH  11  12
ATOM     12  C   UNL     1       2.895   4.716  19.083  0.00  0.00    +0.000 A 
ATOM     13  C   UNL     1       2.320   4.727  20.363  0.00  0.00    +0.000 A 
ATOM     14  C   UNL     1       1.222   3.915  20.652  0.00  0.00    +0.000 A 
ATOM     15  C   UNL     1       0.684   3.090  19.667  0.00  0.00    +0.000 A 
ATOM     16  C   UNL     1       1.234   3.084  18.387  0.00  0.00    +0.000 A 
ATOM     17  C   UNL     1       2.330   3.896  18.094  0.00  0.00    +0.000 A 
ENDBRANCH  11  12
ENDBRANCH   1  11
TORSDOF 6
ENDMDL
MODEL 3
REMARK VINA RESULT:      -6.4      0.533      1.340
REMARK  Name = 
REMARK  6 active torsions:
REMARK  status: ('A' for Active; 'I' for Inactive)
REMARK    1  A    between atoms: C_2  and  O_3
REMARK    2  A    between atoms: C_2  and  C_4
REMARK    3  A    between atoms: C_4  and  N_5
REMARK    4  A    between atoms: N_5  and  S_6
REMARK    5  A    between atoms: S_6  and  C_9
REMARK    6  A    between atoms: C_9  and  C_10
REMARK                            x       y       z     vdW  Elec       q    Type
REMARK                         _______ _______ _______ _____ _____    ______ ____
ROOT
ATOM      1  S   UNL     1       5.499   4.515  18.711  0.00  0.00    +0.000 S 
ATOM      2  O   UNL     1       5.292   3.289  19.447  0.00  0.00    +0.000 OA
ATOM      3  O   UNL     1       6.171   5.660  19.288  0.00  0.00    +0.000 OA
ENDROOT
BRANCH   1   4
ATOM      4  N   UNL     1       6.427   4.112  17.331  0.00  0.00    +0.000 NA
ATOM      5  H   UNL     1       7.311   4.631  17.299  0.00  0.00    +0.000 HD
BRANCH   4   6
ATOM      6  C   UNL     1       5.660   4.208  16.050  0.00  0.00    +0.000 C 
BRANCH   6   8
ATOM      7  O   UNL     1       7.495   5.221  14.832  0.00  0.00    +0.000 OA
ATOM      8  C   UNL     1       6.623   4.368  14.891  0.00  0.00    +0.000 C 
BRANCH   8   9
ATOM      9  O   UNL     1       6.402   3.465  13.904  0.00  0.00    +0.000 OA
ATOM     10  H   UNL     1       5.495   3.587  13.544  0.00  0.00    +0.000 HD
ENDBRANCH   8   9
ENDBRANCH   6   8
ENDBRANCH   4   6
ENDBRANCH   1   4
BRANCH   1  11
ATOM     11  C   UNL     1       3.938   5.057  17.972  0.00  0.00    +0.000 C 
BRANCH  11  12
ATOM     12  C   UNL     1       2.812   4.360  18.689  0.00  0.00    +0.000 A 
ATOM     13  C   UNL     1       2.150   3.273  18.097  0.00  0.00    +0.000 A 
ATOM     14  C   UNL     1       1.049   2.689  18.725  0.00  0.00    +0.000 A 
ATOM     15  C   UNL     1       0.601   3.179  19.950  0.00  0.00    +0.000 A 
ATOM     16  C   UNL     1       1.261   4.245  20.557  0.00  0.00    +0.000 A 
ATOM     17  C   UNL     1       2.364   4.830  19.933  0.00  0.00    +0.000 A 
ENDBRANCH  11  12
ENDBRANCH   1  11
TORSDOF 6
ENDMDL
MODEL 4
REMARK VINA RESULT:      -6.3      0.756      1.670
REMARK  Name = 
REMARK  6 active torsions:
REMARK  status: ('A' for Active; 'I' for Inactive)
REMARK    1  A    between atoms: C_2  and  O_3
REMARK    2  A    between atoms: C_2  and  C_4
REMARK    3  A    between atoms: C_4  and  N_5
REMARK    4  A    between atoms: N_5  and  S_6
REMARK    5  A    between atoms: S_6  and  C_9
REMARK    6  A    between atoms: C_9  and  C_10
REMARK                            x       y       z     vdW  Elec       q    Type
REMARK                         _______ _______ _______ _____ _____    ______ ____
ROOT
ATOM      1  S   UNL     1       5.554   4.492  18.975  0.00  0.00    +0.000 S 
ATOM      2  O   UNL     1       5.247   3.255  19.655  0.00  0.00    +0.000 OA
ATOM      3  O   UNL     1       6.317   5.550  19.602  0.00  0.00    +0.000 OA
ENDROOT
BRANCH   1   4
ATOM      4  N   UNL     1       6.448   4.077  17.575  0.00  0.00    +0.000 NA
ATOM      5  H   UNL     1       7.430   4.363  17.649  0.00  0.00    +0.000 HD
BRANCH   4   6
ATOM      6  C   UNL     1       5.811   4.543  16.304  0.00  0.00    +0.000 C 
BRANCH   6   8
ATOM      7  O   UNL     1       7.005   5.224  14.306  0.00  0.00    +0.000 OA
ATOM      8  C   UNL     1       6.807   5.358  15.505  0.00  0.00    +0.000 C 
BRANCH   8   9
ATOM      9  O   UNL     1       7.481   6.252  16.270  0.00  0.00    +0.000 OA
ATOM     10  H   UNL     1       7.277   6.092  17.219  0.00  0.00    +0.000 HD
ENDBRANCH   8   9
ENDBRANCH   6   8
ENDBRANCH   4   6
ENDBRANCH   1   4
BRANCH   1  11
ATOM     11  C   UNL     1       4.044   5.193  18.265  0.00  0.00    +0.000 C 
BRANCH  11  12
ATOM     12  C   UNL     1       2.868   4.434  18.821  0.00  0.00    +0.000 A 
ATOM     13  C   UNL     1       2.267   3.402  18.084  0.00  0.00    +0.000 A 
ATOM     14  C   UNL     1       1.122   2.764  18.564  0.00  0.00    +0.000 A 
ATOM     15  C   UNL     1       0.569   3.145  19.785  0.00  0.00    +0.000 A 
ATOM     16  C   UNL     1       1.167   4.154  20.535  0.00  0.00    +0.000 A 
ATOM     17  C   UNL     1       2.314   4.793  20.059  0.00  0.00    +0.000 A 
ENDBRANCH  11  12
ENDBRANCH   1  11
TORSDOF 6
ENDMDL
MODEL 5
REMARK VINA RESULT:      -6.3      2.195      2.599
REMARK  Name = 
REMARK  6 active torsions:
REMARK  status: ('A' for Active; 'I' for Inactive)
REMARK    1  A    between atoms: C_2  and  O_3
REMARK    2  A    between atoms: C_2  and  C_4
REMARK    3  A    between atoms: C_4  and  N_5
REMARK    4  A    between atoms: N_5  and  S_6
REMARK    5  A    between atoms: S_6  and  C_9
REMARK    6  A    between atoms: C_9  and  C_10
REMARK                            x       y       z     vdW  Elec       q    Type
REMARK                         _______ _______ _______ _____ _____    ______ ____
ROOT
ATOM      1  S   UNL     1       4.517   3.919  17.351  0.00  0.00    +0.000 S 
ATOM      2  O   UNL     1       3.699   5.046  17.740  0.00  0.00    +0.000 OA
ATOM      3  O   UNL     1       5.044   3.772  16.011  0.00  0.00    +0.000 OA
ENDROOT
BRANCH   1   4
ATOM      4  N   UNL     1       5.895   3.936  18.366  0.00  0.00    +0.000 NA
ATOM      5  H   UNL     1       5.708   3.499  19.274  0.00  0.00    +0.000 HD
BRANCH   4   6
ATOM      6  C   UNL     1       6.517   5.291  18.501  0.00  0.00    +0.000 C 
BRANCH   6   8
ATOM      7  O   UNL     1       7.583   6.670  16.816  0.00  0.00    +0.000 OA
ATOM      8  C   UNL     1       7.405   5.564  17.304  0.00  0.00    +0.000 C 
BRANCH   8   9
ATOM      9  O   UNL     1       7.977   4.437  16.813  0.00  0.00    +0.000 OA
ATOM     10  H   UNL     1       7.312   3.713  16.795  0.00  0.00    +0.000 HD
ENDBRANCH   8   9
ENDBRANCH   6   8
ENDBRANCH   4   6
ENDBRANCH   1   4
BRANCH   1  11
ATOM     11  C   UNL     1       3.706   2.377  17.839  0.00  0.00    +0.000 C 
BRANCH  11  12
ATOM     12  C   UNL     1       2.857   2.655  19.051  0.00  0.00    +0.000 A 
ATOM     13  C   UNL     1       3.407   2.595  20.341  0.00  0.00    +0.000 A 
ATOM     14  C   UNL     1       2.595   2.765  21.464  0.00  0.00    +0.000 A 
ATOM     15  C   UNL     1       1.230   3.000  21.311  0.00  0.00    +0.000 A 
ATOM     16  C   UNL     1       0.676   3.081  20.037  0.00  0.00    +0.000 A 
ATOM     17  C   UNL     1       1.485   2.914  18.911  0.00  0.00    +0.000 A 
ENDBRANCH  11  12
ENDBRANCH   1  11
TORSDOF 6
ENDMDL
MODEL 6
REMARK VINA RESULT:      -6.2      1.653      1.917
REMARK  Name = 
REMARK  6 active torsions:
REMARK  status: ('A' for Active; 'I' for Inactive)
REMARK    1  A    between atoms: C_2  and  O_3
REMARK    2  A    between atoms: C_2  and  C_4
REMARK    3  A    between atoms: C_4  and  N_5
REMARK    4  A    between atoms: N_5  and  S_6
REMARK    5  A    between atoms: S_6  and  C_9
REMARK    6  A    between atoms: C_9  and  C_10
REMARK                            x       y       z     vdW  Elec       q    Type
REMARK                         _______ _______ _______ _____ _____    ______ ____
ROOT
ATOM      1  S   UNL     1       4.904   4.076  17.825  0.00  0.00    +0.000 S 
ATOM      2  O   UNL     1       5.914   4.091  18.858  0.00  0.00    +0.000 OA
ATOM      3  O   UNL     1       4.048   5.214  17.564  0.00  0.00    +0.000 OA
ENDROOT
BRANCH   1   4
ATOM      4  N   UNL     1       5.716   3.790  16.346  0.00  0.00    +0.000 NA
ATOM      5  H   UNL     1       6.174   2.872  16.332  0.00  0.00    +0.000 HD
BRANCH   4   6
ATOM      6  C   UNL     1       6.641   4.897  15.951  0.00  0.00    +0.000 C 
BRANCH   6   8
ATOM      7  O   UNL     1       7.768   5.507  13.893  0.00  0.00    +0.000 OA
ATOM      8  C   UNL     1       7.036   4.738  14.498  0.00  0.00    +0.000 C 
BRANCH   8   9
ATOM      9  O   UNL     1       6.470   3.647  13.922  0.00  0.00    +0.000 OA
ATOM     10  H   UNL     1       6.914   3.461  13.065  0.00  0.00    +0.000 HD
ENDBRANCH   8   9
ENDBRANCH   6   8
ENDBRANCH   4   6
ENDBRANCH   1   4
BRANCH   1  11
ATOM     11  C   UNL     1       3.881   2.593  17.989  0.00  0.00    +0.000 C 
BRANCH  11  12
ATOM     12  C   UNL     1       2.942   2.795  19.149  0.00  0.00    +0.000 A 
ATOM     13  C   UNL     1       3.373   2.575  20.467  0.00  0.00    +0.000 A 
ATOM     14  C   UNL     1       2.475   2.676  21.530  0.00  0.00    +0.000 A 
ATOM     15  C   UNL     1       1.141   3.002  21.291  0.00  0.00    +0.000 A 
ATOM     16  C   UNL     1       0.706   3.241  19.990  0.00  0.00    +0.000 A 
ATOM     17  C   UNL     1       1.602   3.143  18.924  0.00  0.00    +0.000 A 
ENDBRANCH  11  12
ENDBRANCH   1  11
TORSDOF 6
ENDMDL
MODEL 7
REMARK VINA RESULT:      -6.2      1.577      1.726
REMARK  Name = 
REMARK  6 active torsions:
REMARK  status: ('A' for Active; 'I' for Inactive)
REMARK    1  A    between atoms: C_2  and  O_3
REMARK    2  A    between atoms: C_2  and  C_4
REMARK    3  A    between atoms: C_4  and  N_5
REMARK    4  A    between atoms: N_5  and  S_6
REMARK    5  A    between atoms: S_6  and  C_9
REMARK    6  A    between atoms: C_9  and  C_10
REMARK                            x       y       z     vdW  Elec       q    Type
REMARK                         _______ _______ _______ _____ _____    ______ ____
ROOT
ATOM      1  S   UNL     1       4.507   5.864  17.852  0.00  0.00    +0.000 S 
ATOM      2  O   UNL     1       4.882   4.990  18.940  0.00  0.00    +0.000 OA
ATOM      3  O   UNL     1       5.195   7.110  17.588  0.00  0.00    +0.000 OA
ENDROOT
BRANCH   1   4
ATOM      4  N   UNL     1       4.675   4.957  16.410  0.00  0.00    +0.000 NA
ATOM      5  H   UNL     1       3.781   4.562  16.099  0.00  0.00    +0.000 HD
BRANCH   4   6
ATOM      6  C   UNL     1       5.761   3.930  16.478  0.00  0.00    +0.000 C 
BRANCH   6   8
ATOM      7  O   UNL     1       7.311   5.396  15.327  0.00  0.00    +0.000 OA
ATOM      8  C   UNL     1       7.101   4.587  16.218  0.00  0.00    +0.000 C 
BRANCH   8   9
ATOM      9  O   UNL     1       8.062   4.167  17.078  0.00  0.00    +0.000 OA
ATOM     10  H   UNL     1       7.983   4.659  17.925  0.00  0.00    +0.000 HD
ENDBRANCH   8   9
ENDBRANCH   6   8
ENDBRANCH   4   6
ENDBRANCH   1   4
BRANCH   1  11
ATOM     11  C   UNL     1       2.725   6.172  17.900  0.00  0.00    +0.000 C 
BRANCH  11  12
ATOM     12  C   UNL     1       2.074   5.046  18.661  0.00  0.00    +0.000 A 
ATOM     13  C   UNL     1       1.948   5.104  20.057  0.00  0.00    +0.000 A 
ATOM     14  C   UNL     1       1.427   4.020  20.766  0.00  0.00    +0.000 A 
ATOM     15  C   UNL     1       1.021   2.872  20.088  0.00  0.00    +0.000 A 
ATOM     16  C   UNL     1       1.123   2.810  18.701  0.00  0.00    +0.000 A 
ATOM     17  C   UNL     1       1.642   3.893  17.989  0.00  0.00    +0.000 A 
ENDBRANCH  11  12
ENDBRANCH   1  11
TORSDOF 6
ENDMDL
MODEL 8
REMARK VINA RESULT:      -6.2      2.050      2.837
REMARK  Name = 
REMARK  6 active torsions:
REMARK  status: ('A' for Active; 'I' for Inactive)
REMARK    1  A    between atoms: C_2  and  O_3
REMARK    2  A    between atoms: C_2  and  C_4
REMARK    3  A    between atoms: C_4  and  N_5
REMARK    4  A    between atoms: N_5  and  S_6
REMARK    5  A    between atoms: S_6  and  C_9
REMARK    6  A    between atoms: C_9  and  C_10
REMARK                            x       y       z     vdW  Elec       q    Type
REMARK                         _______ _______ _______ _____ _____    ______ ____
ROOT
ATOM      1  S   UNL     1       4.714   4.502  17.641  0.00  0.00    +0.000 S 
ATOM      2  O   UNL     1       4.123   5.430  18.577  0.00  0.00    +0.000 OA
ATOM      3  O   UNL     1       4.949   4.846  16.255  0.00  0.00    +0.000 OA
ENDROOT
BRANCH   1   4
ATOM      4  N   UNL     1       6.257   4.094  18.259  0.00  0.00    +0.000 NA
ATOM      5  H   UNL     1       6.339   4.308  19.258  0.00  0.00    +0.000 HD
BRANCH   4   6
ATOM      6  C   UNL     1       7.387   4.662  17.459  0.00  0.00    +0.000 C 
BRANCH   6   8
ATOM      7  O   UNL     1       7.989   6.531  18.881  0.00  0.00    +0.000 OA
ATOM      8  C   UNL     1       7.571   6.125  17.807  0.00  0.00    +0.000 C 
BRANCH   8   9
ATOM      9  O   UNL     1       7.204   6.950  16.795  0.00  0.00    +0.000 OA
ATOM     10  H   UNL     1       7.507   7.865  16.991  0.00  0.00    +0.000 HD
ENDBRANCH   8   9
ENDBRANCH   6   8
ENDBRANCH   4   6
ENDBRANCH   1   4
BRANCH   1  11
ATOM     11  C   UNL     1       3.844   2.917  17.718  0.00  0.00    +0.000 C 
BRANCH  11  12
ATOM     12  C   UNL     1       2.952   2.929  18.932  0.00  0.00    +0.000 A 
ATOM     13  C   UNL     1       1.605   3.307  18.827  0.00  0.00    +0.000 A 
ATOM     14  C   UNL     1       0.807   3.404  19.968  0.00  0.00    +0.000 A 
ATOM     15  C   UNL     1       1.343   3.119  21.222  0.00  0.00    +0.000 A 
ATOM     16  C   UNL     1       2.674   2.725  21.337  0.00  0.00    +0.000 A 
ATOM     17  C   UNL     1       3.474   2.625  20.198  0.00  0.00    +0.000 A 
ENDBRANCH  11  12
ENDBRANCH   1  11
TORSDOF 6
ENDMDL
MODEL 9
REMARK VINA RESULT:      -6.2      1.523      1.873
REMARK  Name = 
REMARK  6 active torsions:
REMARK  status: ('A' for Active; 'I' for Inactive)
REMARK    1  A    between atoms: C_2  and  O_3
REMARK    2  A    between atoms: C_2  and  C_4
REMARK    3  A    between atoms: C_4  and  N_5
REMARK    4  A    between atoms: N_5  and  S_6
REMARK    5  A    between atoms: S_6  and  C_9
REMARK    6  A    between atoms: C_9  and  C_10
REMARK                            x       y       z     vdW  Elec       q    Type
REMARK                         _______ _______ _______ _____ _____    ______ ____
ROOT
ATOM      1  S   UNL     1       5.151   4.852  18.524  0.00  0.00    +0.000 S 
ATOM      2  O   UNL     1       6.292   4.490  19.333  0.00  0.00    +0.000 OA
ATOM      3  O   UNL     1       4.231   5.901  18.909  0.00  0.00    +0.000 OA
ENDROOT
BRANCH   1   4
ATOM      4  N   UNL     1       5.759   5.339  17.001  0.00  0.00    +0.000 NA
ATOM      5  H   UNL     1       5.019   5.396  16.293  0.00  0.00    +0.000 HD
BRANCH   4   6
ATOM      6  C   UNL     1       6.928   4.526  16.540  0.00  0.00    +0.000 C 
BRANCH   6   8
ATOM      7  O   UNL     1       7.595   5.420  14.388  0.00  0.00    +0.000 OA
ATOM      8  C   UNL     1       7.008   4.561  15.028  0.00  0.00    +0.000 C 
BRANCH   8   9
ATOM      9  O   UNL     1       6.336   3.535  14.449  0.00  0.00    +0.000 OA
ATOM     10  H   UNL     1       5.381   3.761  14.387  0.00  0.00    +0.000 HD
ENDBRANCH   8   9
ENDBRANCH   6   8
ENDBRANCH   4   6
ENDBRANCH   1   4
BRANCH   1  11
ATOM     11  C   UNL     1       4.207   3.367  18.098  0.00  0.00    +0.000 C 
BRANCH  11  12
ATOM     12  C   UNL     1       3.157   3.157  19.157  0.00  0.00    +0.000 A 
ATOM     13  C   UNL     1       1.813   3.472  18.906  0.00  0.00    +0.000 A 
ATOM     14  C   UNL     1       0.859   3.362  19.919  0.00  0.00    +0.000 A 
ATOM     15  C   UNL     1       1.236   2.932  21.190  0.00  0.00    +0.000 A 
ATOM     16  C   UNL     1       2.563   2.598  21.447  0.00  0.00    +0.000 A 
ATOM     17  C   UNL     1       3.519   2.705  20.435  0.00  0.00    +0.000 A 
ENDBRANCH  11  12
ENDBRANCH   1  11
TORSDOF 6
ENDMDL
