MODEL 1
REMARK VINA RESULT:      -9.0      0.000      0.000
REMARK  Name = 
REMARK  5 active torsions:
REMARK  status: ('A' for Active; 'I' for Inactive)
REMARK    1  A    between atoms: C_2  and  C_3
REMARK    2  A    between atoms: C_3  and  C_4
REMARK    3  A    between atoms: C_17  and  O_18
REMARK    4  A    between atoms: C_17  and  C_19
REMARK    5  A    between atoms: C_19  and  C_20
REMARK                            x       y       z     vdW  Elec       q    Type
REMARK                         _______ _______ _______ _____ _____    ______ ____
ROOT
ATOM      1  N   UNL     1       1.517   3.666  19.117  0.00  0.00    +0.000 NA
ATOM      2  C   UNL     1       2.554   4.310  19.566  0.00  0.00    +0.000 C 
ATOM      3  N   UNL     1       3.821   4.012  19.084  0.00  0.00    +0.000 N 
ATOM      4  C   UNL     1       4.010   3.008  18.033  0.00  0.00    +0.000 C 
ATOM      5  C   UNL     1       4.263   3.718  16.704  0.00  0.00    +0.000 C 
ATOM      6  C   UNL     1       5.464   4.679  16.792  0.00  0.00    +0.000 C 
ATOM      7  C   UNL     1       5.341   5.595  18.034  0.00  0.00    +0.000 C 
ATOM      8  C   UNL     1       5.025   4.809  19.307  0.00  0.00    +0.000 C 
ATOM      9  H   UNL     1       0.667   3.964  19.606  0.00  0.00    +0.000 HD
ENDROOT
BRANCH   6  10
ATOM     10  O   UNL     1       6.669   3.915  16.955  0.00  0.00    +0.000 OA
ATOM     11  H   UNL     1       6.425   3.078  17.393  0.00  0.00    +0.000 HD
ENDBRANCH   6  10
BRANCH   2  12
ATOM     12  C   UNL     1       2.329   5.364  20.660  0.00  0.00    +0.000 C 
BRANCH  12  13
ATOM     13  C   UNL     1       1.975   6.744  20.142  0.00  0.00    +0.000 A 
ATOM     14  C   UNL     1       2.304   7.087  18.823  0.00  0.00    +0.000 A 
ATOM     15  C   UNL     1       1.994   8.352  18.314  0.00  0.00    +0.000 A 
ATOM     16  C   UNL     1       1.349   9.310  19.110  0.00  0.00    +0.000 A 
ATOM     17  C   UNL     1       1.001  10.575  18.607  0.00  0.00    +0.000 A 
ATOM     18  C   UNL     1       0.342  11.505  19.413  0.00  0.00    +0.000 A 
ATOM     19  C   UNL     1       0.034  11.188  20.732  0.00  0.00    +0.000 A 
ATOM     20  C   UNL     1       0.383   9.939  21.248  0.00  0.00    +0.000 A 
ATOM     21  C   UNL     1       1.034   8.987  20.449  0.00  0.00    +0.000 A 
ATOM     22  C   UNL     1       1.366   7.716  20.950  0.00  0.00    +0.000 A 
ENDBRANCH  12  13
ENDBRANCH   2  12
BRANCH   6  23
ATOM     23  C   UNL     1       5.597   5.578  15.532  0.00  0.00    +0.000 C 
BRANCH  23  24
ATOM     24  C   UNL     1       6.099   4.902  14.274  0.00  0.00    +0.000 A 
ATOM     25  C   UNL     1       5.335   3.911  13.640  0.00  0.00    +0.000 A 
ATOM     26  C   UNL     1       5.783   3.318  12.458  0.00  0.00    +0.000 A 
ATOM     27  C   UNL     1       6.995   3.709  11.895  0.00  0.00    +0.000 A 
ATOM     28  C   UNL     1       7.767   4.688  12.518  0.00  0.00    +0.000 A 
ATOM     29  C   UNL     1       7.323   5.279  13.703  0.00  0.00    +0.000 A 
ENDBRANCH  23  24
ENDBRANCH   6  23
TORSDOF 5
ENDMDL
MODEL 2
REMARK VINA RESULT:      -8.6      0.689      1.525
REMARK  Name = 
REMARK  5 active torsions:
REMARK  status: ('A' for Active; 'I' for Inactive)
REMARK    1  A    between atoms: C_2  and  C_3
REMARK    2  A    between atoms: C_3  and  C_4
REMARK    3  A    between atoms: C_17  and  O_18
REMARK    4  A    between atoms: C_17  and  C_19
REMARK    5  A    between atoms: C_19  and  C_20
REMARK                            x       y       z     vdW  Elec       q    Type
REMARK                         _______ _______ _______ _____ _____    ______ ____
ROOT
ATOM      1  N   UNL     1       1.244   3.455  19.178  0.00  0.00    +0.000 NA
ATOM      2  C   UNL     1       2.339   3.955  19.672  0.00  0.00    +0.000 C 
ATOM      3  N   UNL     1       3.568   3.619  19.123  0.00  0.00    +0.000 N 
ATOM      4  C   UNL     1       3.655   2.738  17.955  0.00  0.00    +0.000 C 
ATOM      5  C   UNL     1       3.941   3.582  16.714  0.00  0.00    +0.000 C 
ATOM      6  C   UNL     1       5.218   4.426  16.882  0.00  0.00    +0.000 C 
ATOM      7  C   UNL     1       5.194   5.192  18.228  0.00  0.00    +0.000 C 
ATOM      8  C   UNL     1       4.837   4.284  19.406  0.00  0.00    +0.000 C 
ATOM      9  H   UNL     1       0.430   3.758  19.724  0.00  0.00    +0.000 HD
ENDROOT
BRANCH   6  10
ATOM     10  O   UNL     1       6.359   3.555  16.919  0.00  0.00    +0.000 OA
ATOM     11  H   UNL     1       6.212   2.856  16.254  0.00  0.00    +0.000 HD
ENDBRANCH   6  10
BRANCH   2  12
ATOM     12  C   UNL     1       2.221   4.884  20.890  0.00  0.00    +0.000 C 
BRANCH  12  13
ATOM     13  C   UNL     1       1.843   6.314  20.558  0.00  0.00    +0.000 A 
ATOM     14  C   UNL     1       1.002   7.021  21.429  0.00  0.00    +0.000 A 
ATOM     15  C   UNL     1       0.632   8.341  21.152  0.00  0.00    +0.000 A 
ATOM     16  C   UNL     1       1.090   8.989  19.996  0.00  0.00    +0.000 A 
ATOM     17  C   UNL     1       0.755  10.324  19.716  0.00  0.00    +0.000 A 
ATOM     18  C   UNL     1       1.238  10.955  18.568  0.00  0.00    +0.000 A 
ATOM     19  C   UNL     1       2.051  10.256  17.681  0.00  0.00    +0.000 A 
ATOM     20  C   UNL     1       2.384   8.926  17.940  0.00  0.00    +0.000 A 
ATOM     21  C   UNL     1       1.917   8.280  19.096  0.00  0.00    +0.000 A 
ATOM     22  C   UNL     1       2.267   6.949  19.382  0.00  0.00    +0.000 A 
ENDBRANCH  12  13
ENDBRANCH   2  12
BRANCH   6  23
ATOM     23  C   UNL     1       5.402   5.458  15.736  0.00  0.00    +0.000 C 
BRANCH  23  24
ATOM     24  C   UNL     1       6.023   4.938  14.457  0.00  0.00    +0.000 A 
ATOM     25  C   UNL     1       5.358   3.982  13.675  0.00  0.00    +0.000 A 
ATOM     26  C   UNL     1       5.916   3.534  12.475  0.00  0.00    +0.000 A 
ATOM     27  C   UNL     1       7.140   4.037  12.043  0.00  0.00    +0.000 A 
ATOM     28  C   UNL     1       7.815   4.982  12.814  0.00  0.00    +0.000 A 
ATOM     29  C   UNL     1       7.261   5.427  14.016  0.00  0.00    +0.000 A 
ENDBRANCH  23  24
ENDBRANCH   6  23
TORSDOF 5
ENDMDL
MODEL 3
REMARK VINA RESULT:      -8.4      5.512      8.115
REMARK  Name = 
REMARK  5 active torsions:
REMARK  status: ('A' for Active; 'I' for Inactive)
REMARK    1  A    between atoms: C_2  and  C_3
REMARK    2  A    between atoms: C_3  and  C_4
REMARK    3  A    between atoms: C_17  and  O_18
REMARK    4  A    between atoms: C_17  and  C_19
REMARK    5  A    between atoms: C_19  and  C_20
REMARK                            x       y       z     vdW  Elec       q    Type
REMARK                         _______ _______ _______ _____ _____    ______ ____
ROOT
ATOM      1  N   UNL     1       8.575   7.360  19.205  0.00  0.00    +0.000 NA
ATOM      2  C   UNL     1       7.852   7.604  18.152  0.00  0.00    +0.000 C 
ATOM      3  N   UNL     1       6.976   6.641  17.670  0.00  0.00    +0.000 N 
ATOM      4  C   UNL     1       6.814   5.358  18.360  0.00  0.00    +0.000 C 
ATOM      5  C   UNL     1       5.505   5.376  19.147  0.00  0.00    +0.000 C 
ATOM      6  C   UNL     1       4.299   5.687  18.240  0.00  0.00    +0.000 C 
ATOM      7  C   UNL     1       4.580   6.935  17.368  0.00  0.00    +0.000 C 
ATOM      8  C   UNL     1       5.937   6.862  16.668  0.00  0.00    +0.000 C 
ATOM      9  H   UNL     1       9.204   8.146  19.401  0.00  0.00    +0.000 HD
ENDROOT
BRANCH   6  10
ATOM     10  O   UNL     1       4.090   4.588  17.341  0.00  0.00    +0.000 OA
ATOM     11  H   UNL     1       4.060   4.954  16.437  0.00  0.00    +0.000 HD
ENDBRANCH   6  10
BRANCH   2  12
ATOM     12  C   UNL     1       8.032   8.960  17.453  0.00  0.00    +0.000 C 
BRANCH  12  13
ATOM     13  C   UNL     1       8.944   9.927  18.180  0.00  0.00    +0.000 A 
ATOM     14  C   UNL     1       8.944   9.950  19.582  0.00  0.00    +0.000 A 
ATOM     15  C   UNL     1       9.771  10.831  20.284  0.00  0.00    +0.000 A 
ATOM     16  C   UNL     1      10.621  11.716  19.604  0.00  0.00    +0.000 A 
ATOM     17  C   UNL     1      11.483  12.587  20.292  0.00  0.00    +0.000 A 
ATOM     18  C   UNL     1      12.333  13.447  19.593  0.00  0.00    +0.000 A 
ATOM     19  C   UNL     1      12.325  13.454  18.202  0.00  0.00    +0.000 A 
ATOM     20  C   UNL     1      11.466  12.602  17.506  0.00  0.00    +0.000 A 
ATOM     21  C   UNL     1      10.613  11.723  18.192  0.00  0.00    +0.000 A 
ATOM     22  C   UNL     1       9.764  10.841  17.501  0.00  0.00    +0.000 A 
ENDBRANCH  12  13
ENDBRANCH   2  12
BRANCH   6  23
ATOM     23  C   UNL     1       2.998   5.938  19.050  0.00  0.00    +0.000 C 
BRANCH  23  24
ATOM     24  C   UNL     1       2.354   4.722  19.681  0.00  0.00    +0.000 A 
ATOM     25  C   UNL     1       2.487   4.473  21.055  0.00  0.00    +0.000 A 
ATOM     26  C   UNL     1       1.858   3.372  21.641  0.00  0.00    +0.000 A 
ATOM     27  C   UNL     1       1.090   2.510  20.862  0.00  0.00    +0.000 A 
ATOM     28  C   UNL     1       0.956   2.741  19.494  0.00  0.00    +0.000 A 
ATOM     29  C   UNL     1       1.587   3.839  18.906  0.00  0.00    +0.000 A 
ENDBRANCH  23  24
ENDBRANCH   6  23
TORSDOF 5
ENDMDL
MODEL 4
REMARK VINA RESULT:      -8.1      4.364      9.427
REMARK  Name = 
REMARK  5 active torsions:
REMARK  status: ('A' for Active; 'I' for Inactive)
REMARK    1  A    between atoms: C_2  and  C_3
REMARK    2  A    between atoms: C_3  and  C_4
REMARK    3  A    between atoms: C_17  and  O_18
REMARK    4  A    between atoms: C_17  and  C_19
REMARK    5  A    between atoms: C_19  and  C_20
REMARK                            x       y       z     vdW  Elec       q    Type
REMARK                         _______ _______ _______ _____ _____    ______ ____
ROOT
ATOM      1  N   UNL     1      -0.518   8.695  21.463  0.00  0.00    +0.000 NA
ATOM      2  C   UNL     1       0.441   9.044  20.657  0.00  0.00    +0.000 C 
ATOM      3  N   UNL     1       0.209   9.987  19.665  0.00  0.00    +0.000 N 
ATOM      4  C   UNL     1      -1.098  10.638  19.536  0.00  0.00    +0.000 C 
ATOM      5  C   UNL     1      -1.008  12.054  20.105  0.00  0.00    +0.000 C 
ATOM      6  C   UNL     1       0.102  12.873  19.420  0.00  0.00    +0.000 C 
ATOM      7  C   UNL     1       1.428  12.074  19.385  0.00  0.00    +0.000 C 
ATOM      8  C   UNL     1       1.235  10.649  18.864  0.00  0.00    +0.000 C 
ATOM      9  H   UNL     1      -0.203   7.956  22.100  0.00  0.00    +0.000 HD
ENDROOT
BRANCH   6  10
ATOM     10  O   UNL     1      -0.269  13.123  18.056  0.00  0.00    +0.000 OA
ATOM     11  H   UNL     1       0.546  13.084  17.521  0.00  0.00    +0.000 HD
ENDBRANCH   6  10
BRANCH   2  12
ATOM     12  C   UNL     1       1.804   8.355  20.818  0.00  0.00    +0.000 C 
BRANCH  12  13
ATOM     13  C   UNL     1       1.968   7.085  20.008  0.00  0.00    +0.000 A 
ATOM     14  C   UNL     1       2.496   7.161  18.711  0.00  0.00    +0.000 A 
ATOM     15  C   UNL     1       2.659   6.009  17.936  0.00  0.00    +0.000 A 
ATOM     16  C   UNL     1       2.297   4.749  18.434  0.00  0.00    +0.000 A 
ATOM     17  C   UNL     1       2.482   3.577  17.683  0.00  0.00    +0.000 A 
ATOM     18  C   UNL     1       2.131   2.331  18.207  0.00  0.00    +0.000 A 
ATOM     19  C   UNL     1       1.581   2.243  19.483  0.00  0.00    +0.000 A 
ATOM     20  C   UNL     1       1.381   3.401  20.236  0.00  0.00    +0.000 A 
ATOM     21  C   UNL     1       1.740   4.660  19.730  0.00  0.00    +0.000 A 
ATOM     22  C   UNL     1       1.569   5.829  20.490  0.00  0.00    +0.000 A 
ENDBRANCH  12  13
ENDBRANCH   2  12
BRANCH   6  23
ATOM     23  C   UNL     1       0.365  14.227  20.133  0.00  0.00    +0.000 C 
BRANCH  23  24
ATOM     24  C   UNL     1       0.582  15.427  19.237  0.00  0.00    +0.000 A 
ATOM     25  C   UNL     1       1.867  15.760  18.784  0.00  0.00    +0.000 A 
ATOM     26  C   UNL     1       2.058  16.845  17.925  0.00  0.00    +0.000 A 
ATOM     27  C   UNL     1       0.969  17.607  17.508  0.00  0.00    +0.000 A 
ATOM     28  C   UNL     1      -0.312  17.292  17.957  0.00  0.00    +0.000 A 
ATOM     29  C   UNL     1      -0.504  16.210  18.819  0.00  0.00    +0.000 A 
ENDBRANCH  23  24
ENDBRANCH   6  23
TORSDOF 5
ENDMDL
MODEL 5
REMARK VINA RESULT:      -8.0      5.256      7.720
REMARK  Name = 
REMARK  5 active torsions:
REMARK  status: ('A' for Active; 'I' for Inactive)
REMARK    1  A    between atoms: C_2  and  C_3
REMARK    2  A    between atoms: C_3  and  C_4
REMARK    3  A    between atoms: C_17  and  O_18
REMARK    4  A    between atoms: C_17  and  C_19
REMARK    5  A    between atoms: C_19  and  C_20
REMARK                            x       y       z     vdW  Elec       q    Type
REMARK                         _______ _______ _______ _____ _____    ______ ____
ROOT
ATOM      1  N   UNL     1       8.258   7.090  19.323  0.00  0.00    +0.000 NA
ATOM      2  C   UNL     1       7.852   7.276  18.101  0.00  0.00    +0.000 C 
ATOM      3  N   UNL     1       7.536   6.189  17.299  0.00  0.00    +0.000 N 
ATOM      4  C   UNL     1       7.607   4.821  17.823  0.00  0.00    +0.000 C 
ATOM      5  C   UNL     1       6.192   4.326  18.116  0.00  0.00    +0.000 C 
ATOM      6  C   UNL     1       5.290   4.409  16.871  0.00  0.00    +0.000 C 
ATOM      7  C   UNL     1       5.393   5.808  16.214  0.00  0.00    +0.000 C 
ATOM      8  C   UNL     1       6.843   6.251  16.016  0.00  0.00    +0.000 C 
ATOM      9  H   UNL     1       8.498   7.984  19.764  0.00  0.00    +0.000 HD
ENDROOT
BRANCH   6  10
ATOM     10  O   UNL     1       5.742   3.457  15.896  0.00  0.00    +0.000 OA
ATOM     11  H   UNL     1       6.696   3.318  16.047  0.00  0.00    +0.000 HD
ENDBRANCH   6  10
BRANCH   2  12
ATOM     12  C   UNL     1       7.777   8.719  17.579  0.00  0.00    +0.000 C 
BRANCH  12  13
ATOM     13  C   UNL     1       8.733   9.683  18.252  0.00  0.00    +0.000 A 
ATOM     14  C   UNL     1       8.810   9.710  19.652  0.00  0.00    +0.000 A 
ATOM     15  C   UNL     1       9.679  10.588  20.304  0.00  0.00    +0.000 A 
ATOM     16  C   UNL     1      10.496  11.466  19.576  0.00  0.00    +0.000 A 
ATOM     17  C   UNL     1      11.399  12.334  20.213  0.00  0.00    +0.000 A 
ATOM     18  C   UNL     1      12.215  13.186  19.466  0.00  0.00    +0.000 A 
ATOM     19  C   UNL     1      12.130  13.190  18.077  0.00  0.00    +0.000 A 
ATOM     20  C   UNL     1      11.230  12.341  17.432  0.00  0.00    +0.000 A 
ATOM     21  C   UNL     1      10.411  11.469  18.166  0.00  0.00    +0.000 A 
ATOM     22  C   UNL     1       9.521  10.590  17.526  0.00  0.00    +0.000 A 
ENDBRANCH  12  13
ENDBRANCH   2  12
BRANCH   6  23
ATOM     23  C   UNL     1       3.798   4.132  17.200  0.00  0.00    +0.000 C 
BRANCH  23  24
ATOM     24  C   UNL     1       3.208   4.908  18.357  0.00  0.00    +0.000 A 
ATOM     25  C   UNL     1       2.978   6.287  18.251  0.00  0.00    +0.000 A 
ATOM     26  C   UNL     1       2.397   6.993  19.307  0.00  0.00    +0.000 A 
ATOM     27  C   UNL     1       2.039   6.330  20.478  0.00  0.00    +0.000 A 
ATOM     28  C   UNL     1       2.269   4.960  20.600  0.00  0.00    +0.000 A 
ATOM     29  C   UNL     1       2.853   4.254  19.546  0.00  0.00    +0.000 A 
ENDBRANCH  23  24
ENDBRANCH   6  23
TORSDOF 5
ENDMDL
MODEL 6
REMARK VINA RESULT:      -7.9      4.369      8.701
REMARK  Name = 
REMARK  5 active torsions:
REMARK  status: ('A' for Active; 'I' for Inactive)
REMARK    1  A    between atoms: C_2  and  C_3
REMARK    2  A    between atoms: C_3  and  C_4
REMARK    3  A    between atoms: C_17  and  O_18
REMARK    4  A    between atoms: C_17  and  C_19
REMARK    5  A    between atoms: C_19  and  C_20
REMARK                            x       y       z     vdW  Elec       q    Type
REMARK                         _______ _______ _______ _____ _____    ______ ____
ROOT
ATOM      1  N   UNL     1      -0.389   8.813  21.656  0.00  0.00    +0.000 NA
ATOM      2  C   UNL     1       0.516   9.000  20.740  0.00  0.00    +0.000 C 
ATOM      3  N   UNL     1       0.247   9.820  19.653  0.00  0.00    +0.000 N 
ATOM      4  C   UNL     1      -1.034  10.523  19.539  0.00  0.00    +0.000 C 
ATOM      5  C   UNL     1      -0.831  11.992  19.906  0.00  0.00    +0.000 C 
ATOM      6  C   UNL     1       0.256  12.651  19.037  0.00  0.00    +0.000 C 
ATOM      7  C   UNL     1       1.536  11.780  19.008  0.00  0.00    +0.000 C 
ATOM      8  C   UNL     1       1.233  10.314  18.696  0.00  0.00    +0.000 C 
ATOM      9  H   UNL     1      -0.057   8.145  22.360  0.00  0.00    +0.000 HD
ENDROOT
BRANCH   6  10
ATOM     10  O   UNL     1      -0.215  12.746  17.684  0.00  0.00    +0.000 OA
ATOM     11  H   UNL     1       0.017  13.635  17.356  0.00  0.00    +0.000 HD
ENDBRANCH   6  10
BRANCH   2  12
ATOM     12  C   UNL     1       1.854   8.260  20.887  0.00  0.00    +0.000 C 
BRANCH  12  13
ATOM     13  C   UNL     1       1.969   6.995  20.062  0.00  0.00    +0.000 A 
ATOM     14  C   UNL     1       2.518   7.062  18.774  0.00  0.00    +0.000 A 
ATOM     15  C   UNL     1       2.637   5.914  17.985  0.00  0.00    +0.000 A 
ATOM     16  C   UNL     1       2.208   4.666  18.461  0.00  0.00    +0.000 A 
ATOM     17  C   UNL     1       2.346   3.496  17.696  0.00  0.00    +0.000 A 
ATOM     18  C   UNL     1       1.928   2.262  18.199  0.00  0.00    +0.000 A 
ATOM     19  C   UNL     1       1.356   2.184  19.464  0.00  0.00    +0.000 A 
ATOM     20  C   UNL     1       1.201   3.340  20.231  0.00  0.00    +0.000 A 
ATOM     21  C   UNL     1       1.628   4.587  19.747  0.00  0.00    +0.000 A 
ATOM     22  C   UNL     1       1.502   5.753  20.521  0.00  0.00    +0.000 A 
ENDBRANCH  12  13
ENDBRANCH   2  12
BRANCH   6  23
ATOM     23  C   UNL     1       0.640  14.069  19.542  0.00  0.00    +0.000 C 
BRANCH  23  24
ATOM     24  C   UNL     1       2.090  14.471  19.379  0.00  0.00    +0.000 A 
ATOM     25  C   UNL     1       2.573  14.926  18.143  0.00  0.00    +0.000 A 
ATOM     26  C   UNL     1       3.902  15.334  18.007  0.00  0.00    +0.000 A 
ATOM     27  C   UNL     1       4.761  15.294  19.103  0.00  0.00    +0.000 A 
ATOM     28  C   UNL     1       4.296  14.836  20.334  0.00  0.00    +0.000 A 
ATOM     29  C   UNL     1       2.969  14.424  20.471  0.00  0.00    +0.000 A 
ENDBRANCH  23  24
ENDBRANCH   6  23
TORSDOF 5
ENDMDL
MODEL 7
REMARK VINA RESULT:      -7.8      1.324      2.403
REMARK  Name = 
REMARK  5 active torsions:
REMARK  status: ('A' for Active; 'I' for Inactive)
REMARK    1  A    between atoms: C_2  and  C_3
REMARK    2  A    between atoms: C_3  and  C_4
REMARK    3  A    between atoms: C_17  and  O_18
REMARK    4  A    between atoms: C_17  and  C_19
REMARK    5  A    between atoms: C_19  and  C_20
REMARK                            x       y       z     vdW  Elec       q    Type
REMARK                         _______ _______ _______ _____ _____    ______ ____
ROOT
ATOM      1  N   UNL     1       2.361   5.995  19.491  0.00  0.00    +0.000 NA
ATOM      2  C   UNL     1       2.966   6.725  18.600  0.00  0.00    +0.000 C 
ATOM      3  N   UNL     1       4.310   6.517  18.325  0.00  0.00    +0.000 N 
ATOM      4  C   UNL     1       5.057   5.447  18.991  0.00  0.00    +0.000 C 
ATOM      5  C   UNL     1       5.236   4.282  18.018  0.00  0.00    +0.000 C 
ATOM      6  C   UNL     1       5.925   4.729  16.715  0.00  0.00    +0.000 C 
ATOM      7  C   UNL     1       5.239   5.992  16.139  0.00  0.00    +0.000 C 
ATOM      8  C   UNL     1       5.043   7.080  17.195  0.00  0.00    +0.000 C 
ATOM      9  H   UNL     1       1.391   6.305  19.614  0.00  0.00    +0.000 HD
ENDROOT
BRANCH   6  10
ATOM     10  O   UNL     1       7.286   5.088  17.002  0.00  0.00    +0.000 OA
ATOM     11  H   UNL     1       7.489   5.892  16.487  0.00  0.00    +0.000 HD
ENDBRANCH   6  10
BRANCH   2  12
ATOM     12  C   UNL     1       2.157   7.834  17.909  0.00  0.00    +0.000 C 
BRANCH  12  13
ATOM     13  C   UNL     1       1.526   8.837  18.853  0.00  0.00    +0.000 A 
ATOM     14  C   UNL     1       1.398  10.173  18.450  0.00  0.00    +0.000 A 
ATOM     15  C   UNL     1       0.822  11.124  19.297  0.00  0.00    +0.000 A 
ATOM     16  C   UNL     1       0.361  10.767  20.572  0.00  0.00    +0.000 A 
ATOM     17  C   UNL     1      -0.249  11.701  21.427  0.00  0.00    +0.000 A 
ATOM     18  C   UNL     1      -0.717  11.318  22.685  0.00  0.00    +0.000 A 
ATOM     19  C   UNL     1      -0.572  10.001  23.109  0.00  0.00    +0.000 A 
ATOM     20  C   UNL     1       0.042   9.064  22.276  0.00  0.00    +0.000 A 
ATOM     21  C   UNL     1       0.507   9.429  21.003  0.00  0.00    +0.000 A 
ATOM     22  C   UNL     1       1.101   8.488  20.145  0.00  0.00    +0.000 A 
ENDBRANCH  12  13
ENDBRANCH   2  12
BRANCH   6  23
ATOM     23  C   UNL     1       5.909   3.622  15.626  0.00  0.00    +0.000 C 
BRANCH  23  24
ATOM     24  C   UNL     1       6.403   4.023  14.253  0.00  0.00    +0.000 A 
ATOM     25  C   UNL     1       7.427   4.970  14.107  0.00  0.00    +0.000 A 
ATOM     26  C   UNL     1       7.906   5.308  12.840  0.00  0.00    +0.000 A 
ATOM     27  C   UNL     1       7.371   4.702  11.706  0.00  0.00    +0.000 A 
ATOM     28  C   UNL     1       6.348   3.765  11.835  0.00  0.00    +0.000 A 
ATOM     29  C   UNL     1       5.864   3.429  13.101  0.00  0.00    +0.000 A 
ENDBRANCH  23  24
ENDBRANCH   6  23
TORSDOF 5
ENDMDL
MODEL 8
REMARK VINA RESULT:      -7.7      1.897      2.528
REMARK  Name = 
REMARK  5 active torsions:
REMARK  status: ('A' for Active; 'I' for Inactive)
REMARK    1  A    between atoms: C_2  and  C_3
REMARK    2  A    between atoms: C_3  and  C_4
REMARK    3  A    between atoms: C_17  and  O_18
REMARK    4  A    between atoms: C_17  and  C_19
REMARK    5  A    between atoms: C_19  and  C_20
REMARK                            x       y       z     vdW  Elec       q    Type
REMARK                         _______ _______ _______ _____ _____    ______ ____
ROOT
ATOM      1  N   UNL     1       0.153   4.124  20.088  0.00  0.00    +0.000 NA
ATOM      2  C   UNL     1       1.395   4.148  20.474  0.00  0.00    +0.000 C 
ATOM      3  N   UNL     1       2.231   3.075  20.199  0.00  0.00    +0.000 N 
ATOM      4  C   UNL     1       1.748   1.922  19.433  0.00  0.00    +0.000 C 
ATOM      5  C   UNL     1       2.289   2.009  18.006  0.00  0.00    +0.000 C 
ATOM      6  C   UNL     1       3.826   2.100  17.984  0.00  0.00    +0.000 C 
ATOM      7  C   UNL     1       4.323   3.193  18.962  0.00  0.00    +0.000 C 
ATOM      8  C   UNL     1       3.684   3.068  20.346  0.00  0.00    +0.000 C 
ATOM      9  H   UNL     1      -0.341   4.962  20.411  0.00  0.00    +0.000 HD
ENDROOT
BRANCH   6  10
ATOM     10  O   UNL     1       4.379   0.854  18.436  0.00  0.00    +0.000 OA
ATOM     11  H   UNL     1       3.642   0.218  18.505  0.00  0.00    +0.000 HD
ENDBRANCH   6  10
BRANCH   2  12
ATOM     12  C   UNL     1       1.880   5.372  21.266  0.00  0.00    +0.000 C 
BRANCH  12  13
ATOM     13  C   UNL     1       1.787   6.685  20.516  0.00  0.00    +0.000 A 
ATOM     14  C   UNL     1       2.384   6.798  19.253  0.00  0.00    +0.000 A 
ATOM     15  C   UNL     1       2.319   7.996  18.535  0.00  0.00    +0.000 A 
ATOM     16  C   UNL     1       1.656   9.115  19.060  0.00  0.00    +0.000 A 
ATOM     17  C   UNL     1       1.553  10.317  18.341  0.00  0.00    +0.000 A 
ATOM     18  C   UNL     1       0.872  11.412  18.877  0.00  0.00    +0.000 A 
ATOM     19  C   UNL     1       0.297  11.323  20.141  0.00  0.00    +0.000 A 
ATOM     20  C   UNL     1       0.401  10.138  20.871  0.00  0.00    +0.000 A 
ATOM     21  C   UNL     1       1.071   9.024  20.343  0.00  0.00    +0.000 A 
ATOM     22  C   UNL     1       1.159   7.817  21.058  0.00  0.00    +0.000 A 
ENDBRANCH  12  13
ENDBRANCH   2  12
BRANCH   6  23
ATOM     23  C   UNL     1       4.381   2.420  16.569  0.00  0.00    +0.000 C 
BRANCH  23  24
ATOM     24  C   UNL     1       5.014   3.783  16.388  0.00  0.00    +0.000 A 
ATOM     25  C   UNL     1       4.275   4.953  16.615  0.00  0.00    +0.000 A 
ATOM     26  C   UNL     1       4.875   6.207  16.485  0.00  0.00    +0.000 A 
ATOM     27  C   UNL     1       6.217   6.307  16.129  0.00  0.00    +0.000 A 
ATOM     28  C   UNL     1       6.962   5.152  15.893  0.00  0.00    +0.000 A 
ATOM     29  C   UNL     1       6.363   3.897  16.018  0.00  0.00    +0.000 A 
ENDBRANCH  23  24
ENDBRANCH   6  23
TORSDOF 5
ENDMDL
MODEL 9
REMARK VINA RESULT:      -7.7      2.436      7.153
REMARK  Name = 
REMARK  5 active torsions:
REMARK  status: ('A' for Active; 'I' for Inactive)
REMARK    1  A    between atoms: C_2  and  C_3
REMARK    2  A    between atoms: C_3  and  C_4
REMARK    3  A    between atoms: C_17  and  O_18
REMARK    4  A    between atoms: C_17  and  C_19
REMARK    5  A    between atoms: C_19  and  C_20
REMARK                            x       y       z     vdW  Elec       q    Type
REMARK                         _______ _______ _______ _____ _____    ______ ____
ROOT
ATOM      1  N   UNL     1       4.370   1.419  19.226  0.00  0.00    +0.000 NA
ATOM      2  C   UNL     1       3.746   2.242  18.434  0.00  0.00    +0.000 C 
ATOM      3  N   UNL     1       2.519   2.772  18.808  0.00  0.00    +0.000 N 
ATOM      4  C   UNL     1       1.928   2.457  20.111  0.00  0.00    +0.000 C 
ATOM      5  C   UNL     1       2.117   3.650  21.047  0.00  0.00    +0.000 C 
ATOM      6  C   UNL     1       1.521   4.940  20.452  0.00  0.00    +0.000 C 
ATOM      7  C   UNL     1       2.002   5.142  18.994  0.00  0.00    +0.000 C 
ATOM      8  C   UNL     1       1.835   3.880  18.147  0.00  0.00    +0.000 C 
ATOM      9  H   UNL     1       5.231   1.079  18.786  0.00  0.00    +0.000 HD
ENDROOT
BRANCH   6  10
ATOM     10  O   UNL     1       0.091   4.821  20.407  0.00  0.00    +0.000 OA
ATOM     11  H   UNL     1      -0.120   3.870  20.346  0.00  0.00    +0.000 HD
ENDBRANCH   6  10
BRANCH   2  12
ATOM     12  C   UNL     1       4.391   2.565  17.078  0.00  0.00    +0.000 C 
BRANCH  12  13
ATOM     13  C   UNL     1       5.119   3.893  17.026  0.00  0.00    +0.000 A 
ATOM     14  C   UNL     1       4.868   4.772  15.964  0.00  0.00    +0.000 A 
ATOM     15  C   UNL     1       5.524   6.005  15.885  0.00  0.00    +0.000 A 
ATOM     16  C   UNL     1       6.450   6.391  16.865  0.00  0.00    +0.000 A 
ATOM     17  C   UNL     1       7.096   7.638  16.820  0.00  0.00    +0.000 A 
ATOM     18  C   UNL     1       8.000   8.009  17.817  0.00  0.00    +0.000 A 
ATOM     19  C   UNL     1       8.279   7.135  18.863  0.00  0.00    +0.000 A 
ATOM     20  C   UNL     1       7.653   5.888  18.915  0.00  0.00    +0.000 A 
ATOM     21  C   UNL     1       6.732   5.504  17.928  0.00  0.00    +0.000 A 
ATOM     22  C   UNL     1       6.075   4.263  17.984  0.00  0.00    +0.000 A 
ENDBRANCH  12  13
ENDBRANCH   2  12
BRANCH   6  23
ATOM     23  C   UNL     1       1.902   6.202  21.273  0.00  0.00    +0.000 C 
BRANCH  23  24
ATOM     24  C   UNL     1       1.331   7.517  20.788  0.00  0.00    +0.000 A 
ATOM     25  C   UNL     1       0.307   8.159  21.500  0.00  0.00    +0.000 A 
ATOM     26  C   UNL     1      -0.189   9.392  21.071  0.00  0.00    +0.000 A 
ATOM     27  C   UNL     1       0.332   9.997  19.930  0.00  0.00    +0.000 A 
ATOM     28  C   UNL     1       1.343   9.366  19.208  0.00  0.00    +0.000 A 
ATOM     29  C   UNL     1       1.838   8.131  19.634  0.00  0.00    +0.000 A 
ENDBRANCH  23  24
ENDBRANCH   6  23
TORSDOF 5
ENDMDL
