MODEL 1
REMARK VINA RESULT:      -6.7      0.000      0.000
REMARK  Name = 
REMARK  4 active torsions:
REMARK  status: ('A' for Active; 'I' for Inactive)
REMARK    1  A    between atoms: C_2  and  C_3
REMARK    2  A    between atoms: C_3  and  O_4
REMARK    3  A    between atoms: C_17  and  C_18
REMARK    4  A    between atoms: C_22  and  C_23
REMARK                            x       y       z     vdW  Elec       q    Type
REMARK                         _______ _______ _______ _____ _____    ______ ____
ROOT
ATOM      1  C   UNL     1       6.948   5.053  15.115  0.00  0.00    +0.000 C 
ATOM      2  C   UNL     1       6.285   3.749  14.610  0.00  0.00    +0.000 C 
ATOM      3  C   UNL     1       4.927   3.761  15.168  0.00  0.00    +0.000 C 
ATOM      4  C   UNL     1       4.909   4.846  16.216  0.00  0.00    +0.000 C 
ATOM      5  C   UNL     1       4.638   4.575  17.661  0.00  0.00    +0.000 C 
ATOM      6  C   UNL     1       4.537   3.099  17.936  0.00  0.00    +0.000 C 
ATOM      7  C   UNL     1       4.462   2.875  19.413  0.00  0.00    +0.000 C 
ATOM      8  C   UNL     1       3.259   3.558  19.975  0.00  0.00    +0.000 C 
ATOM      9  C   UNL     1       2.458   2.739  20.698  0.00  0.00    +0.000 C 
ATOM     10  C   UNL     1       1.349   2.333  19.774  0.00  0.00    +0.000 C 
ATOM     11  O   UNL     1       1.045   1.170  19.564  0.00  0.00    +0.000 OA
ATOM     12  C   UNL     1       0.598   3.503  19.239  0.00  0.00    +0.000 C 
ATOM     13  C   UNL     1       1.208   4.711  19.164  0.00  0.00    +0.000 C 
ATOM     14  C   UNL     1       2.742   4.925  19.375  0.00  0.00    +0.000 C 
ATOM     15  C   UNL     1       3.100   5.973  20.431  0.00  0.00    +0.000 C 
ATOM     16  C   UNL     1       3.366   5.373  17.941  0.00  0.00    +0.000 C 
ATOM     17  C   UNL     1       3.751   6.914  17.445  0.00  0.00    +0.000 C 
ATOM     18  C   UNL     1       4.733   7.085  15.988  0.00  0.00    +0.000 C 
ATOM     19  C   UNL     1       5.926   5.996  15.981  0.00  0.00    +0.000 C 
ATOM     20  C   UNL     1       6.860   6.675  17.055  0.00  0.00    +0.000 C 
ENDROOT
BRANCH   1  22
ATOM     21  C   UNL     1       8.101   5.474  12.802  0.00  0.00    +0.000 C 
ATOM     22  C   UNL     1       7.755   5.486  13.960  0.00  0.00    +0.000 C 
ENDBRANCH   1  22
BRANCH   1  23
ATOM     23  O   UNL     1       7.892   4.538  16.115  0.00  0.00    +0.000 OA
ATOM     24  H   UNL     1       8.801   4.765  15.857  0.00  0.00    +0.000 HD
ENDBRANCH   1  23
TORSDOF 2
ENDMDL
MODEL 2
REMARK VINA RESULT:      -5.8      8.673     10.921
REMARK  Name = 
REMARK  4 active torsions:
REMARK  status: ('A' for Active; 'I' for Inactive)
REMARK    1  A    between atoms: C_2  and  C_3
REMARK    2  A    between atoms: C_3  and  O_4
REMARK    3  A    between atoms: C_17  and  C_18
REMARK    4  A    between atoms: C_22  and  C_23
REMARK                            x       y       z     vdW  Elec       q    Type
REMARK                         _______ _______ _______ _____ _____    ______ ____
ROOT
ATOM      1  C   UNL     1       1.097  10.579  18.681  0.00  0.00    +0.000 C 
ATOM      2  C   UNL     1       1.846  11.927  18.538  0.00  0.00    +0.000 C 
ATOM      3  C   UNL     1       1.630  12.629  19.809  0.00  0.00    +0.000 C 
ATOM      4  C   UNL     1       0.537  11.879  20.528  0.00  0.00    +0.000 C 
ATOM      5  C   UNL     1      -0.776  12.500  20.883  0.00  0.00    +0.000 C 
ATOM      6  C   UNL     1      -0.904  13.885  20.311  0.00  0.00    +0.000 C 
ATOM      7  C   UNL     1      -2.298  14.382  20.527  0.00  0.00    +0.000 C 
ATOM      8  C   UNL     1      -2.606  14.429  21.987  0.00  0.00    +0.000 C 
ATOM      9  C   UNL     1      -3.051  15.637  22.409  0.00  0.00    +0.000 C 
ATOM     10  C   UNL     1      -1.859  16.324  23.007  0.00  0.00    +0.000 C 
ATOM     11  O   UNL     1      -1.494  17.440  22.673  0.00  0.00    +0.000 OA
ATOM     12  C   UNL     1      -1.251  15.543  24.119  0.00  0.00    +0.000 C 
ATOM     13  C   UNL     1      -1.418  14.199  24.161  0.00  0.00    +0.000 C 
ATOM     14  C   UNL     1      -2.007  13.359  22.982  0.00  0.00    +0.000 C 
ATOM     15  C   UNL     1      -3.195  12.472  23.361  0.00  0.00    +0.000 C 
ATOM     16  C   UNL     1      -0.803  12.426  22.409  0.00  0.00    +0.000 C 
ATOM     17  C   UNL     1      -0.534  10.815  22.730  0.00  0.00    +0.000 C 
ATOM     18  C   UNL     1       0.628   9.959  21.713  0.00  0.00    +0.000 C 
ATOM     19  C   UNL     1       0.432  10.373  20.164  0.00  0.00    +0.000 C 
ATOM     20  C   UNL     1      -0.883   9.553  19.875  0.00  0.00    +0.000 C 
ENDROOT
BRANCH   1  22
ATOM     21  C   UNL     1       2.414   8.531  17.719  0.00  0.00    +0.000 C 
ATOM     22  C   UNL     1       1.988   9.628  17.993  0.00  0.00    +0.000 C 
ENDBRANCH   1  22
BRANCH   1  23
ATOM     23  O   UNL     1      -0.057  10.785  17.797  0.00  0.00    +0.000 OA
ATOM     24  H   UNL     1       0.163  10.497  16.896  0.00  0.00    +0.000 HD
ENDBRANCH   1  23
TORSDOF 2
ENDMDL
MODEL 3
REMARK VINA RESULT:      -5.8      9.444     11.551
REMARK  Name = 
REMARK  4 active torsions:
REMARK  status: ('A' for Active; 'I' for Inactive)
REMARK    1  A    between atoms: C_2  and  C_3
REMARK    2  A    between atoms: C_3  and  O_4
REMARK    3  A    between atoms: C_17  and  C_18
REMARK    4  A    between atoms: C_22  and  C_23
REMARK                            x       y       z     vdW  Elec       q    Type
REMARK                         _______ _______ _______ _____ _____    ______ ____
ROOT
ATOM      1  C   UNL     1       0.199  13.026  20.542  0.00  0.00    +0.000 C 
ATOM      2  C   UNL     1      -0.323  12.493  21.898  0.00  0.00    +0.000 C 
ATOM      3  C   UNL     1      -1.464  11.631  21.565  0.00  0.00    +0.000 C 
ATOM      4  C   UNL     1      -1.800  11.911  20.122  0.00  0.00    +0.000 C 
ATOM      5  C   UNL     1      -3.119  12.467  19.688  0.00  0.00    +0.000 C 
ATOM      6  C   UNL     1      -3.978  12.833  20.867  0.00  0.00    +0.000 C 
ATOM      7  C   UNL     1      -5.194  13.558  20.386  0.00  0.00    +0.000 C 
ATOM      8  C   UNL     1      -5.981  12.687  19.463  0.00  0.00    +0.000 C 
ATOM      9  C   UNL     1      -7.281  12.551  19.820  0.00  0.00    +0.000 C 
ATOM     10  C   UNL     1      -7.369  11.243  20.549  0.00  0.00    +0.000 C 
ATOM     11  O   UNL     1      -7.855  11.131  21.663  0.00  0.00    +0.000 OA
ATOM     12  C   UNL     1      -6.906  10.097  19.719  0.00  0.00    +0.000 C 
ATOM     13  C   UNL     1      -6.026  10.315  18.710  0.00  0.00    +0.000 C 
ATOM     14  C   UNL     1      -5.262  11.662  18.499  0.00  0.00    +0.000 C 
ATOM     15  C   UNL     1      -5.415  12.269  17.103  0.00  0.00    +0.000 C 
ATOM     16  C   UNL     1      -3.687  11.371  18.789  0.00  0.00    +0.000 C 
ATOM     17  C   UNL     1      -2.485  11.118  17.666  0.00  0.00    +0.000 C 
ATOM     18  C   UNL     1      -0.813  11.174  18.230  0.00  0.00    +0.000 C 
ATOM     19  C   UNL     1      -0.606  12.402  19.259  0.00  0.00    +0.000 C 
ATOM     20  C   UNL     1      -0.610  13.580  18.210  0.00  0.00    +0.000 C 
ENDROOT
BRANCH   1  22
ATOM     21  C   UNL     1       2.759  13.536  20.743  0.00  0.00    +0.000 C 
ATOM     22  C   UNL     1       1.661  13.031  20.726  0.00  0.00    +0.000 C 
ENDBRANCH   1  22
BRANCH   1  23
ATOM     23  O   UNL     1      -0.233  14.428  20.588  0.00  0.00    +0.000 OA
ATOM     24  H   UNL     1      -0.846  14.608  19.857  0.00  0.00    +0.000 HD
ENDBRANCH   1  23
TORSDOF 2
ENDMDL
MODEL 4
REMARK VINA RESULT:      -5.8      9.810     12.778
REMARK  Name = 
REMARK  4 active torsions:
REMARK  status: ('A' for Active; 'I' for Inactive)
REMARK    1  A    between atoms: C_2  and  C_3
REMARK    2  A    between atoms: C_3  and  O_4
REMARK    3  A    between atoms: C_17  and  C_18
REMARK    4  A    between atoms: C_22  and  C_23
REMARK                            x       y       z     vdW  Elec       q    Type
REMARK                         _______ _______ _______ _____ _____    ______ ____
ROOT
ATOM      1  C   UNL     1       9.478  11.279  19.229  0.00  0.00    +0.000 C 
ATOM      2  C   UNL     1       9.297  11.343  20.765  0.00  0.00    +0.000 C 
ATOM      3  C   UNL     1       8.831  12.707  21.046  0.00  0.00    +0.000 C 
ATOM      4  C   UNL     1       9.049  13.499  19.781  0.00  0.00    +0.000 C 
ATOM      5  C   UNL     1       9.960  14.683  19.711  0.00  0.00    +0.000 C 
ATOM      6  C   UNL     1      10.715  14.876  20.998  0.00  0.00    +0.000 C 
ATOM      7  C   UNL     1      11.745  15.943  20.811  0.00  0.00    +0.000 C 
ATOM      8  C   UNL     1      11.088  17.231  20.435  0.00  0.00    +0.000 C 
ATOM      9  C   UNL     1      11.431  18.269  21.236  0.00  0.00    +0.000 C 
ATOM     10  C   UNL     1      10.313  18.405  22.227  0.00  0.00    +0.000 C 
ATOM     11  O   UNL     1      10.489  18.422  23.434  0.00  0.00    +0.000 OA
ATOM     12  C   UNL     1       8.995  18.629  21.571  0.00  0.00    +0.000 C 
ATOM     13  C   UNL     1       8.799  18.197  20.301  0.00  0.00    +0.000 C 
ATOM     14  C   UNL     1       9.785  17.251  19.542  0.00  0.00    +0.000 C 
ATOM     15  C   UNL     1      10.254  17.777  18.183  0.00  0.00    +0.000 C 
ATOM     16  C   UNL     1       9.023  15.829  19.334  0.00  0.00    +0.000 C 
ATOM     17  C   UNL     1       8.266  15.282  17.955  0.00  0.00    +0.000 C 
ATOM     18  C   UNL     1       7.827  13.574  17.885  0.00  0.00    +0.000 C 
ATOM     19  C   UNL     1       9.021  12.660  18.475  0.00  0.00    +0.000 C 
ATOM     20  C   UNL     1      10.012  12.767  17.253  0.00  0.00    +0.000 C 
ENDROOT
BRANCH   1  22
ATOM     21  C   UNL     1       8.517   9.077  18.189  0.00  0.00    +0.000 C 
ATOM     22  C   UNL     1       9.019   9.919  18.895  0.00  0.00    +0.000 C 
ENDBRANCH   1  22
BRANCH   1  23
ATOM     23  O   UNL     1      10.940  11.270  19.102  0.00  0.00    +0.000 OA
ATOM     24  H   UNL     1      11.287  10.400  19.359  0.00  0.00    +0.000 HD
ENDBRANCH   1  23
TORSDOF 2
ENDMDL
MODEL 5
REMARK VINA RESULT:      -5.7      8.802     10.762
REMARK  Name = 
REMARK  4 active torsions:
REMARK  status: ('A' for Active; 'I' for Inactive)
REMARK    1  A    between atoms: C_2  and  C_3
REMARK    2  A    between atoms: C_3  and  O_4
REMARK    3  A    between atoms: C_17  and  C_18
REMARK    4  A    between atoms: C_22  and  C_23
REMARK                            x       y       z     vdW  Elec       q    Type
REMARK                         _______ _______ _______ _____ _____    ______ ____
ROOT
ATOM      1  C   UNL     1       0.834  10.642  19.188  0.00  0.00    +0.000 C 
ATOM      2  C   UNL     1       0.746   9.719  20.429  0.00  0.00    +0.000 C 
ATOM      3  C   UNL     1      -0.606   9.916  20.966  0.00  0.00    +0.000 C 
ATOM      4  C   UNL     1      -1.162  11.137  20.276  0.00  0.00    +0.000 C 
ATOM      5  C   UNL     1      -1.555  12.378  21.013  0.00  0.00    +0.000 C 
ATOM      6  C   UNL     1      -1.190  12.293  22.470  0.00  0.00    +0.000 C 
ATOM      7  C   UNL     1      -1.422  13.622  23.115  0.00  0.00    +0.000 C 
ATOM      8  C   UNL     1      -2.860  14.007  22.996  0.00  0.00    +0.000 C 
ATOM      9  C   UNL     1      -3.440  14.316  24.180  0.00  0.00    +0.000 C 
ATOM     10  C   UNL     1      -4.179  13.083  24.607  0.00  0.00    +0.000 C 
ATOM     11  O   UNL     1      -4.029  12.559  25.700  0.00  0.00    +0.000 OA
ATOM     12  C   UNL     1      -5.186  12.646  23.601  0.00  0.00    +0.000 C 
ATOM     13  C   UNL     1      -5.021  12.987  22.299  0.00  0.00    +0.000 C 
ATOM     14  C   UNL     1      -3.708  13.608  21.723  0.00  0.00    +0.000 C 
ATOM     15  C   UNL     1      -3.905  14.921  20.961  0.00  0.00    +0.000 C 
ATOM     16  C   UNL     1      -3.050  12.503  20.727  0.00  0.00    +0.000 C 
ATOM     17  C   UNL     1      -3.138  12.462  19.065  0.00  0.00    +0.000 C 
ATOM     18  C   UNL     1      -2.052  11.363  18.213  0.00  0.00    +0.000 C 
ATOM     19  C   UNL     1      -0.574  11.413  18.865  0.00  0.00    +0.000 C 
ATOM     20  C   UNL     1      -0.116  12.804  18.281  0.00  0.00    +0.000 C 
ENDROOT
BRANCH   1  22
ATOM     21  C   UNL     1       2.056   8.816  17.763  0.00  0.00    +0.000 C 
ATOM     22  C   UNL     1       1.621   9.841  18.233  0.00  0.00    +0.000 C 
ENDBRANCH   1  22
BRANCH   1  23
ATOM     23  O   UNL     1       1.722  11.706  19.673  0.00  0.00    +0.000 OA
ATOM     24  H   UNL     1       1.805  11.650  20.639  0.00  0.00    +0.000 HD
ENDBRANCH   1  23
TORSDOF 2
ENDMDL
MODEL 6
REMARK VINA RESULT:      -5.7      9.284     11.355
REMARK  Name = 
REMARK  4 active torsions:
REMARK  status: ('A' for Active; 'I' for Inactive)
REMARK    1  A    between atoms: C_2  and  C_3
REMARK    2  A    between atoms: C_3  and  O_4
REMARK    3  A    between atoms: C_17  and  C_18
REMARK    4  A    between atoms: C_22  and  C_23
REMARK                            x       y       z     vdW  Elec       q    Type
REMARK                         _______ _______ _______ _____ _____    ______ ____
ROOT
ATOM      1  C   UNL     1      10.247  13.694  17.787  0.00  0.00    +0.000 C 
ATOM      2  C   UNL     1      10.272  15.221  18.042  0.00  0.00    +0.000 C 
ATOM      3  C   UNL     1      10.095  15.376  19.492  0.00  0.00    +0.000 C 
ATOM      4  C   UNL     1       9.654  14.031  20.012  0.00  0.00    +0.000 C 
ATOM      5  C   UNL     1       8.336  13.812  20.683  0.00  0.00    +0.000 C 
ATOM      6  C   UNL     1       7.480  15.048  20.634  0.00  0.00    +0.000 C 
ATOM      7  C   UNL     1       6.111  14.721  21.140  0.00  0.00    +0.000 C 
ATOM      8  C   UNL     1       6.186  14.238  22.550  0.00  0.00    +0.000 C 
ATOM      9  C   UNL     1       5.380  14.917  23.401  0.00  0.00    +0.000 C 
ATOM     10  C   UNL     1       6.261  15.924  24.080  0.00  0.00    +0.000 C 
ATOM     11  O   UNL     1       6.008  17.118  24.115  0.00  0.00    +0.000 OA
ATOM     12  C   UNL     1       7.404  15.290  24.794  0.00  0.00    +0.000 C 
ATOM     13  C   UNL     1       7.855  14.078  24.390  0.00  0.00    +0.000 C 
ATOM     14  C   UNL     1       7.418  13.389  23.057  0.00  0.00    +0.000 C 
ATOM     15  C   UNL     1       6.870  11.969  23.222  0.00  0.00    +0.000 C 
ATOM     16  C   UNL     1       8.724  13.350  22.086  0.00  0.00    +0.000 C 
ATOM     17  C   UNL     1       9.738  12.059  21.810  0.00  0.00    +0.000 C 
ATOM     18  C   UNL     1      10.863  12.176  20.455  0.00  0.00    +0.000 C 
ATOM     19  C   UNL     1      10.129  12.818  19.167  0.00  0.00    +0.000 C 
ATOM     20  C   UNL     1       9.276  11.562  18.742  0.00  0.00    +0.000 C 
ENDROOT
BRANCH   1  22
ATOM     21  C   UNL     1      12.333  13.171  16.294  0.00  0.00    +0.000 C 
ATOM     22  C   UNL     1      11.261  13.515  16.733  0.00  0.00    +0.000 C 
ENDBRANCH   1  22
BRANCH   1  23
ATOM     23  O   UNL     1       8.939  13.523  17.143  0.00  0.00    +0.000 OA
ATOM     24  H   UNL     1       9.042  13.553  16.177  0.00  0.00    +0.000 HD
ENDBRANCH   1  23
TORSDOF 2
ENDMDL
MODEL 7
REMARK VINA RESULT:      -5.7      3.471      6.346
REMARK  Name = 
REMARK  4 active torsions:
REMARK  status: ('A' for Active; 'I' for Inactive)
REMARK    1  A    between atoms: C_2  and  C_3
REMARK    2  A    between atoms: C_3  and  O_4
REMARK    3  A    between atoms: C_17  and  C_18
REMARK    4  A    between atoms: C_22  and  C_23
REMARK                            x       y       z     vdW  Elec       q    Type
REMARK                         _______ _______ _______ _____ _____    ______ ____
ROOT
ATOM      1  C   UNL     1       0.588   9.831  20.163  0.00  0.00    +0.000 C 
ATOM      2  C   UNL     1       1.007   9.436  21.601  0.00  0.00    +0.000 C 
ATOM      3  C   UNL     1       2.024   8.390  21.437  0.00  0.00    +0.000 C 
ATOM      4  C   UNL     1       1.960   7.960  19.992  0.00  0.00    +0.000 C 
ATOM      5  C   UNL     1       1.611   6.567  19.574  0.00  0.00    +0.000 C 
ATOM      6  C   UNL     1       1.202   5.724  20.751  0.00  0.00    +0.000 C 
ATOM      7  C   UNL     1       0.680   4.411  20.261  0.00  0.00    +0.000 C 
ATOM      8  C   UNL     1       1.740   3.692  19.493  0.00  0.00    +0.000 C 
ATOM      9  C   UNL     1       1.974   2.434  19.938  0.00  0.00    +0.000 C 
ATOM     10  C   UNL     1       3.185   2.531  20.817  0.00  0.00    +0.000 C 
ATOM     11  O   UNL     1       3.214   2.112  21.963  0.00  0.00    +0.000 OA
ATOM     12  C   UNL     1       4.365   3.089  20.100  0.00  0.00    +0.000 C 
ATOM     13  C   UNL     1       4.176   3.890  19.024  0.00  0.00    +0.000 C 
ATOM     14  C   UNL     1       2.788   4.482  18.614  0.00  0.00    +0.000 C 
ATOM     15  C   UNL     1       2.376   4.197  17.168  0.00  0.00    +0.000 C 
ATOM     16  C   UNL     1       2.865   6.091  18.843  0.00  0.00    +0.000 C 
ATOM     17  C   UNL     1       3.118   7.264  17.689  0.00  0.00    +0.000 C 
ATOM     18  C   UNL     1       2.808   8.941  18.144  0.00  0.00    +0.000 C 
ATOM     19  C   UNL     1       1.449   9.049  19.010  0.00  0.00    +0.000 C 
ATOM     20  C   UNL     1       0.416   8.859  17.834  0.00  0.00    +0.000 C 
ENDROOT
BRANCH   1  22
ATOM     21  C   UNL     1       0.544  12.380  20.760  0.00  0.00    +0.000 C 
ATOM     22  C   UNL     1       0.398  11.289  20.260  0.00  0.00    +0.000 C 
ENDBRANCH   1  22
BRANCH   1  23
ATOM     23  O   UNL     1      -0.753   9.240  20.072  0.00  0.00    +0.000 OA
ATOM     24  H   UNL     1      -1.422   9.943  20.069  0.00  0.00    +0.000 HD
ENDBRANCH   1  23
TORSDOF 2
ENDMDL
MODEL 8
REMARK VINA RESULT:      -5.7      9.480     11.622
REMARK  Name = 
REMARK  4 active torsions:
REMARK  status: ('A' for Active; 'I' for Inactive)
REMARK    1  A    between atoms: C_2  and  C_3
REMARK    2  A    between atoms: C_3  and  O_4
REMARK    3  A    between atoms: C_17  and  C_18
REMARK    4  A    between atoms: C_22  and  C_23
REMARK                            x       y       z     vdW  Elec       q    Type
REMARK                         _______ _______ _______ _____ _____    ______ ____
ROOT
ATOM      1  C   UNL     1      10.581  14.019  18.033  0.00  0.00    +0.000 C 
ATOM      2  C   UNL     1      11.130  15.300  18.707  0.00  0.00    +0.000 C 
ATOM      3  C   UNL     1      11.040  15.049  20.151  0.00  0.00    +0.000 C 
ATOM      4  C   UNL     1      10.176  13.824  20.316  0.00  0.00    +0.000 C 
ATOM      5  C   UNL     1       8.873  13.842  21.049  0.00  0.00    +0.000 C 
ATOM      6  C   UNL     1       8.489  15.238  21.457  0.00  0.00    +0.000 C 
ATOM      7  C   UNL     1       7.099  15.227  22.008  0.00  0.00    +0.000 C 
ATOM      8  C   UNL     1       7.027  14.335  23.203  0.00  0.00    +0.000 C 
ATOM      9  C   UNL     1       6.515  14.938  24.303  0.00  0.00    +0.000 C 
ATOM     10  C   UNL     1       7.697  15.349  25.130  0.00  0.00    +0.000 C 
ATOM     11  O   UNL     1       7.867  16.488  25.533  0.00  0.00    +0.000 OA
ATOM     12  C   UNL     1       8.566  14.195  25.492  0.00  0.00    +0.000 C 
ATOM     13  C   UNL     1       8.571  13.090  24.708  0.00  0.00    +0.000 C 
ATOM     14  C   UNL     1       7.904  13.023  23.296  0.00  0.00    +0.000 C 
ATOM     15  C   UNL     1       6.907  11.876  23.114  0.00  0.00    +0.000 C 
ATOM     16  C   UNL     1       9.102  12.871  22.205  0.00  0.00    +0.000 C 
ATOM     17  C   UNL     1       9.611  11.475  21.453  0.00  0.00    +0.000 C 
ATOM     18  C   UNL     1      10.686  11.639  20.063  0.00  0.00    +0.000 C 
ATOM     19  C   UNL     1      10.195  12.846  19.109  0.00  0.00    +0.000 C 
ATOM     20  C   UNL     1       8.957  12.125  18.449  0.00  0.00    +0.000 C 
ENDROOT
BRANCH   1  22
ATOM     21  C   UNL     1      12.327  13.332  16.206  0.00  0.00    +0.000 C 
ATOM     22  C   UNL     1      11.457  13.860  16.858  0.00  0.00    +0.000 C 
ENDBRANCH   1  22
BRANCH   1  23
ATOM     23  O   UNL     1       9.283  14.483  17.527  0.00  0.00    +0.000 OA
ATOM     24  H   UNL     1       8.571  14.156  18.101  0.00  0.00    +0.000 HD
ENDBRANCH   1  23
TORSDOF 2
ENDMDL
MODEL 9
REMARK VINA RESULT:      -5.6      9.516     11.694
REMARK  Name = 
REMARK  4 active torsions:
REMARK  status: ('A' for Active; 'I' for Inactive)
REMARK    1  A    between atoms: C_2  and  C_3
REMARK    2  A    between atoms: C_3  and  O_4
REMARK    3  A    between atoms: C_17  and  C_18
REMARK    4  A    between atoms: C_22  and  C_23
REMARK                            x       y       z     vdW  Elec       q    Type
REMARK                         _______ _______ _______ _____ _____    ______ ____
ROOT
ATOM      1  C   UNL     1      -3.635  10.658  15.996  0.00  0.00    +0.000 C 
ATOM      2  C   UNL     1      -2.383   9.957  16.576  0.00  0.00    +0.000 C 
ATOM      3  C   UNL     1      -2.540  10.024  18.035  0.00  0.00    +0.000 C 
ATOM      4  C   UNL     1      -3.654  11.007  18.296  0.00  0.00    +0.000 C 
ATOM      5  C   UNL     1      -3.455  12.276  19.062  0.00  0.00    +0.000 C 
ATOM      6  C   UNL     1      -2.004  12.497  19.395  0.00  0.00    +0.000 C 
ATOM      7  C   UNL     1      -1.836  13.862  19.983  0.00  0.00    +0.000 C 
ATOM      8  C   UNL     1      -2.645  13.987  21.231  0.00  0.00    +0.000 C 
ATOM      9  C   UNL     1      -1.928  14.396  22.305  0.00  0.00    +0.000 C 
ATOM     10  C   UNL     1      -1.599  13.151  23.074  0.00  0.00    +0.000 C 
ATOM     11  O   UNL     1      -0.463  12.849  23.402  0.00  0.00    +0.000 OA
ATOM     12  C   UNL     1      -2.816  12.396  23.482  0.00  0.00    +0.000 C 
ATOM     13  C   UNL     1      -3.959  12.534  22.766  0.00  0.00    +0.000 C 
ATOM     14  C   UNL     1      -4.035  13.250  21.379  0.00  0.00    +0.000 C 
ATOM     15  C   UNL     1      -5.078  14.367  21.294  0.00  0.00    +0.000 C 
ATOM     16  C   UNL     1      -4.377  12.111  20.268  0.00  0.00    +0.000 C 
ATOM     17  C   UNL     1      -5.859  11.777  19.589  0.00  0.00    +0.000 C 
ATOM     18  C   UNL     1      -5.891  10.736  18.163  0.00  0.00    +0.000 C 
ATOM     19  C   UNL     1      -4.696  11.130  17.151  0.00  0.00    +0.000 C 
ATOM     20  C   UNL     1      -5.318  12.457  16.570  0.00  0.00    +0.000 C 
ENDROOT
BRANCH   1  22
ATOM     21  C   UNL     1      -4.117   9.651  13.628  0.00  0.00    +0.000 C 
ATOM     22  C   UNL     1      -3.953   9.844  14.809  0.00  0.00    +0.000 C 
ENDBRANCH   1  22
BRANCH   1  23
ATOM     23  O   UNL     1      -3.065  11.917  15.498  0.00  0.00    +0.000 OA
ATOM     24  H   UNL     1      -2.156  11.767  15.189  0.00  0.00    +0.000 HD
ENDBRANCH   1  23
TORSDOF 2
ENDMDL
