MODEL 1
REMARK VINA RESULT:      -7.8      0.000      0.000
REMARK  Name = 
REMARK  9 active torsions:
REMARK  status: ('A' for Active; 'I' for Inactive)
REMARK    1  A    between atoms: C_1  and  C_2
REMARK    2  A    between atoms: C_2  and  CA_3
REMARK    3  A    between atoms: CA_3  and  C_4
REMARK    4  A    between atoms: CA_3  and  N_6
REMARK    5  A    between atoms: C_4  and  O_5
REMARK    6  A    between atoms: N_10  and  C_11
REMARK    7  A    between atoms: C_11  and  C_12
REMARK    8  A    between atoms: C_15  and  C_16
REMARK    9  A    between atoms: N_27  and  C_28
REMARK                            x       y       z     vdW  Elec       q    Type
REMARK                         _______ _______ _______ _____ _____    ______ ____
ROOT
ATOM      1  N   UNL     1      -2.878  10.626  18.025  0.00  0.00    +0.000 N 
ATOM      2  C   UNL     1      -2.004  11.198  18.940  0.00  0.00    +0.000 A 
ATOM      3  N   UNL     1      -1.003  10.380  19.342  0.00  0.00    +0.000 NA
ATOM      4  C   UNL     1      -0.092  10.820  20.253  0.00  0.00    +0.000 A 
ATOM      5  N   UNL     1       1.016  10.054  20.625  0.00  0.00    +0.000 N 
ATOM      6  C   UNL     1      -0.269  12.109  20.782  0.00  0.00    +0.000 A 
ATOM      7  N   UNL     1       0.441  12.821  21.726  0.00  0.00    +0.000 NA
ATOM      8  C   UNL     1      -0.190  13.971  21.818  0.00  0.00    +0.000 A 
ATOM      9  N   UNL     1      -1.272  14.033  20.974  0.00  0.00    +0.000 N 
ATOM     10  C   UNL     1      -1.338  12.841  20.303  0.00  0.00    +0.000 A 
ATOM     11  N   UNL     1      -2.228  12.450  19.379  0.00  0.00    +0.000 NA
ATOM     12  H   UNL     1      -2.475   9.734  17.763  0.00  0.00    +0.000 HD
ATOM     13  H   UNL     1       1.482  10.490  21.419  0.00  0.00    +0.000 HD
ENDROOT
BRANCH   9  14
ATOM     14  C   UNL     1      -2.149  15.172  20.850  0.00  0.00    +0.000 C 
ATOM     15  C   UNL     1      -3.437  15.071  21.661  0.00  0.00    +0.000 C 
ATOM     16  C   UNL     1      -3.966  16.498  21.678  0.00  0.00    +0.000 C 
ATOM     17  C   UNL     1      -2.742  17.408  21.579  0.00  0.00    +0.000 C 
ATOM     18  C   UNL     1      -1.544  16.507  21.286  0.00  0.00    +0.000 C 
ENDBRANCH   9  14
BRANCH   1  19
ATOM     19  CA  UNL     1      -3.357  11.474  16.924  0.00  0.00    +0.000 C 
BRANCH  19  21
ATOM     20  C   UNL     1      -5.521  10.798  18.138  0.00  0.00    +0.000 C 
ATOM     21  C   UNL     1      -4.886  11.630  17.034  0.00  0.00    +0.000 C 
ENDBRANCH  19  21
BRANCH  19  22
ATOM     22  C   UNL     1      -3.042  10.799  15.565  0.00  0.00    +0.000 C 
BRANCH  22  23
ATOM     23  O   UNL     1      -2.730   9.418  15.704  0.00  0.00    +0.000 OA
ATOM     24  H   UNL     1      -3.323   9.046  16.381  0.00  0.00    +0.000 HD
ENDBRANCH  22  23
ENDBRANCH  19  22
ENDBRANCH   1  19
BRANCH   5  25
ATOM     25  C   UNL     1       0.788   8.633  20.788  0.00  0.00    +0.000 C 
BRANCH  25  26
ATOM     26  C   UNL     1       1.726   7.889  19.863  0.00  0.00    +0.000 A 
ATOM     27  C   UNL     1       2.281   6.655  20.225  0.00  0.00    +0.000 A 
ATOM     28  C   UNL     1       3.145   5.978  19.351  0.00  0.00    +0.000 A 
ATOM     29  C   UNL     1       3.477   6.503  18.090  0.00  0.00    +0.000 A 
ATOM     30  C   UNL     1       2.962   7.772  17.770  0.00  0.00    +0.000 A 
ATOM     31  C   UNL     1       2.102   8.452  18.641  0.00  0.00    +0.000 A 
BRANCH  29  32
ATOM     32  C   UNL     1       4.311   5.733  17.137  0.00  0.00    +0.000 A 
ATOM     33  C   UNL     1       5.025   6.345  16.103  0.00  0.00    +0.000 A 
ATOM     34  C   UNL     1       5.755   5.563  15.212  0.00  0.00    +0.000 A 
ATOM     35  C   UNL     1       5.759   4.184  15.366  0.00  0.00    +0.000 A 
ATOM     36  C   UNL     1       5.031   3.647  16.412  0.00  0.00    +0.000 A 
ATOM     37  N   UNL     1       4.311   4.383  17.289  0.00  0.00    +0.000 NA
ENDBRANCH  29  32
ENDBRANCH  25  26
ENDBRANCH   5  25
TORSDOF 8
ENDMDL
MODEL 2
REMARK VINA RESULT:      -7.8      4.571      7.763
REMARK  Name = 
REMARK  9 active torsions:
REMARK  status: ('A' for Active; 'I' for Inactive)
REMARK    1  A    between atoms: C_1  and  C_2
REMARK    2  A    between atoms: C_2  and  CA_3
REMARK    3  A    between atoms: CA_3  and  C_4
REMARK    4  A    between atoms: CA_3  and  N_6
REMARK    5  A    between atoms: C_4  and  O_5
REMARK    6  A    between atoms: N_10  and  C_11
REMARK    7  A    between atoms: C_11  and  C_12
REMARK    8  A    between atoms: C_15  and  C_16
REMARK    9  A    between atoms: N_27  and  C_28
REMARK                            x       y       z     vdW  Elec       q    Type
REMARK                         _______ _______ _______ _____ _____    ______ ____
ROOT
ATOM      1  N   UNL     1       3.062   4.693  20.690  0.00  0.00    +0.000 N 
ATOM      2  C   UNL     1       2.979   5.761  19.807  0.00  0.00    +0.000 A 
ATOM      3  N   UNL     1       3.860   5.705  18.781  0.00  0.00    +0.000 NA
ATOM      4  C   UNL     1       3.890   6.706  17.858  0.00  0.00    +0.000 A 
ATOM      5  N   UNL     1       4.709   6.648  16.727  0.00  0.00    +0.000 N 
ATOM      6  C   UNL     1       3.022   7.793  18.047  0.00  0.00    +0.000 A 
ATOM      7  N   UNL     1       2.836   8.956  17.328  0.00  0.00    +0.000 NA
ATOM      8  C   UNL     1       1.892   9.600  17.979  0.00  0.00    +0.000 A 
ATOM      9  N   UNL     1       1.460   8.904  19.081  0.00  0.00    +0.000 N 
ATOM     10  C   UNL     1       2.180   7.740  19.140  0.00  0.00    +0.000 A 
ATOM     11  N   UNL     1       2.102   6.753  20.044  0.00  0.00    +0.000 NA
ATOM     12  H   UNL     1       3.704   4.027  20.276  0.00  0.00    +0.000 HD
ATOM     13  H   UNL     1       4.698   7.549  16.250  0.00  0.00    +0.000 HD
ENDROOT
BRANCH   9  14
ATOM     14  C   UNL     1       0.428   9.356  19.982  0.00  0.00    +0.000 C 
ATOM     15  C   UNL     1       0.942   9.903  21.310  0.00  0.00    +0.000 C 
ATOM     16  C   UNL     1      -0.255  10.650  21.881  0.00  0.00    +0.000 C 
ATOM     17  C   UNL     1      -1.069  11.132  20.680  0.00  0.00    +0.000 C 
ATOM     18  C   UNL     1      -0.461  10.477  19.442  0.00  0.00    +0.000 C 
ENDBRANCH   9  14
BRANCH   1  19
ATOM     19  CA  UNL     1       1.801   4.144  21.211  0.00  0.00    +0.000 C 
BRANCH  19  21
ATOM     20  C   UNL     1       3.416   2.149  21.371  0.00  0.00    +0.000 C 
ATOM     21  C   UNL     1       2.045   2.709  21.719  0.00  0.00    +0.000 C 
ENDBRANCH  19  21
BRANCH  19  22
ATOM     22  C   UNL     1       0.748   4.077  20.076  0.00  0.00    +0.000 C 
BRANCH  22  23
ATOM     23  O   UNL     1       0.377   2.740  19.760  0.00  0.00    +0.000 OA
ATOM     24  H   UNL     1      -0.527   2.596  20.093  0.00  0.00    +0.000 HD
ENDBRANCH  22  23
ENDBRANCH  19  22
ENDBRANCH   1  19
BRANCH   5  25
ATOM     25  C   UNL     1       6.038   6.105  16.923  0.00  0.00    +0.000 C 
BRANCH  25  26
ATOM     26  C   UNL     1       6.928   7.203  17.460  0.00  0.00    +0.000 A 
ATOM     27  C   UNL     1       6.861   8.509  16.959  0.00  0.00    +0.000 A 
ATOM     28  C   UNL     1       7.692   9.515  17.475  0.00  0.00    +0.000 A 
ATOM     29  C   UNL     1       8.611   9.254  18.507  0.00  0.00    +0.000 A 
ATOM     30  C   UNL     1       8.710   7.924  18.953  0.00  0.00    +0.000 A 
ATOM     31  C   UNL     1       7.884   6.917  18.440  0.00  0.00    +0.000 A 
BRANCH  29  32
ATOM     32  C   UNL     1       9.412  10.345  19.109  0.00  0.00    +0.000 A 
ATOM     33  C   UNL     1       9.333  10.670  20.467  0.00  0.00    +0.000 A 
ATOM     34  C   UNL     1      10.078  11.735  20.966  0.00  0.00    +0.000 A 
ATOM     35  C   UNL     1      10.886  12.460  20.103  0.00  0.00    +0.000 A 
ATOM     36  C   UNL     1      10.915  12.084  18.772  0.00  0.00    +0.000 A 
ATOM     37  N   UNL     1      10.200  11.056  18.262  0.00  0.00    +0.000 NA
ENDBRANCH  29  32
ENDBRANCH  25  26
ENDBRANCH   5  25
TORSDOF 8
ENDMDL
MODEL 3
REMARK VINA RESULT:      -7.7      0.841      1.348
REMARK  Name = 
REMARK  9 active torsions:
REMARK  status: ('A' for Active; 'I' for Inactive)
REMARK    1  A    between atoms: C_1  and  C_2
REMARK    2  A    between atoms: C_2  and  CA_3
REMARK    3  A    between atoms: CA_3  and  C_4
REMARK    4  A    between atoms: CA_3  and  N_6
REMARK    5  A    between atoms: C_4  and  O_5
REMARK    6  A    between atoms: N_10  and  C_11
REMARK    7  A    between atoms: C_11  and  C_12
REMARK    8  A    between atoms: C_15  and  C_16
REMARK    9  A    between atoms: N_27  and  C_28
REMARK                            x       y       z     vdW  Elec       q    Type
REMARK                         _______ _______ _______ _____ _____    ______ ____
ROOT
ATOM      1  N   UNL     1      -2.531  10.046  17.847  0.00  0.00    +0.000 N 
ATOM      2  C   UNL     1      -1.706  10.664  18.778  0.00  0.00    +0.000 A 
ATOM      3  N   UNL     1      -0.674   9.897  19.203  0.00  0.00    +0.000 NA
ATOM      4  C   UNL     1       0.194  10.385  20.132  0.00  0.00    +0.000 A 
ATOM      5  N   UNL     1       1.330   9.675  20.530  0.00  0.00    +0.000 N 
ATOM      6  C   UNL     1      -0.057  11.665  20.651  0.00  0.00    +0.000 A 
ATOM      7  N   UNL     1       0.597  12.414  21.608  0.00  0.00    +0.000 NA
ATOM      8  C   UNL     1      -0.091  13.532  21.681  0.00  0.00    +0.000 A 
ATOM      9  N   UNL     1      -1.157  13.538  20.815  0.00  0.00    +0.000 N 
ATOM     10  C   UNL     1      -1.150  12.342  20.147  0.00  0.00    +0.000 A 
ATOM     11  N   UNL     1      -2.000  11.905  19.207  0.00  0.00    +0.000 NA
ATOM     12  H   UNL     1      -2.079   9.175  17.597  0.00  0.00    +0.000 HD
ATOM     13  H   UNL     1       1.758  10.136  21.332  0.00  0.00    +0.000 HD
ENDROOT
BRANCH   9  14
ATOM     14  C   UNL     1      -2.086  14.632  20.668  0.00  0.00    +0.000 C 
ATOM     15  C   UNL     1      -3.461  14.382  21.279  0.00  0.00    +0.000 C 
ATOM     16  C   UNL     1      -4.085  15.769  21.345  0.00  0.00    +0.000 C 
ATOM     17  C   UNL     1      -2.924  16.752  21.496  0.00  0.00    +0.000 C 
ATOM     18  C   UNL     1      -1.638  15.953  21.296  0.00  0.00    +0.000 C 
ENDBRANCH   9  14
BRANCH   1  19
ATOM     19  CA  UNL     1      -3.027  10.866  16.733  0.00  0.00    +0.000 C 
BRANCH  19  21
ATOM     20  C   UNL     1      -5.114  11.997  17.723  0.00  0.00    +0.000 C 
ATOM     21  C   UNL     1      -4.567  10.924  16.794  0.00  0.00    +0.000 C 
ENDBRANCH  19  21
BRANCH  19  22
ATOM     22  C   UNL     1      -2.627  10.218  15.383  0.00  0.00    +0.000 C 
BRANCH  22  23
ATOM     23  O   UNL     1      -3.703  10.197  14.452  0.00  0.00    +0.000 OA
ATOM     24  H   UNL     1      -4.533  10.266  14.956  0.00  0.00    +0.000 HD
ENDBRANCH  22  23
ENDBRANCH  19  22
ENDBRANCH   1  19
BRANCH   5  25
ATOM     25  C   UNL     1       1.170   8.245  20.694  0.00  0.00    +0.000 C 
BRANCH  25  26
ATOM     26  C   UNL     1       2.048   7.546  19.681  0.00  0.00    +0.000 A 
ATOM     27  C   UNL     1       2.442   8.179  18.495  0.00  0.00    +0.000 A 
ATOM     28  C   UNL     1       3.262   7.515  17.570  0.00  0.00    +0.000 A 
ATOM     29  C   UNL     1       3.719   6.205  17.798  0.00  0.00    +0.000 A 
ATOM     30  C   UNL     1       3.261   5.562  18.962  0.00  0.00    +0.000 A 
ATOM     31  C   UNL     1       2.441   6.220  19.886  0.00  0.00    +0.000 A 
BRANCH  29  32
ATOM     32  C   UNL     1       4.663   5.552  16.862  0.00  0.00    +0.000 A 
ATOM     33  C   UNL     1       4.711   4.165  16.693  0.00  0.00    +0.000 A 
ATOM     34  C   UNL     1       5.652   3.607  15.831  0.00  0.00    +0.000 A 
ATOM     35  C   UNL     1       6.528   4.441  15.153  0.00  0.00    +0.000 A 
ATOM     36  C   UNL     1       6.423   5.803  15.367  0.00  0.00    +0.000 A 
ATOM     37  N   UNL     1       5.522   6.370  16.201  0.00  0.00    +0.000 NA
ENDBRANCH  29  32
ENDBRANCH  25  26
ENDBRANCH   5  25
TORSDOF 8
ENDMDL
MODEL 4
REMARK VINA RESULT:      -7.6      0.637      1.052
REMARK  Name = 
REMARK  9 active torsions:
REMARK  status: ('A' for Active; 'I' for Inactive)
REMARK    1  A    between atoms: C_1  and  C_2
REMARK    2  A    between atoms: C_2  and  CA_3
REMARK    3  A    between atoms: CA_3  and  C_4
REMARK    4  A    between atoms: CA_3  and  N_6
REMARK    5  A    between atoms: C_4  and  O_5
REMARK    6  A    between atoms: N_10  and  C_11
REMARK    7  A    between atoms: C_11  and  C_12
REMARK    8  A    between atoms: C_15  and  C_16
REMARK    9  A    between atoms: N_27  and  C_28
REMARK                            x       y       z     vdW  Elec       q    Type
REMARK                         _______ _______ _______ _____ _____    ______ ____
ROOT
ATOM      1  N   UNL     1      -2.954  10.592  17.976  0.00  0.00    +0.000 N 
ATOM      2  C   UNL     1      -2.037  11.140  18.863  0.00  0.00    +0.000 A 
ATOM      3  N   UNL     1      -1.024  10.308  19.203  0.00  0.00    +0.000 NA
ATOM      4  C   UNL     1      -0.072  10.725  20.082  0.00  0.00    +0.000 A 
ATOM      5  N   UNL     1       1.046   9.944  20.389  0.00  0.00    +0.000 N 
ATOM      6  C   UNL     1      -0.217  12.003  20.643  0.00  0.00    +0.000 A 
ATOM      7  N   UNL     1       0.540  12.691  21.570  0.00  0.00    +0.000 NA
ATOM      8  C   UNL     1      -0.079  13.843  21.713  0.00  0.00    +0.000 A 
ATOM      9  N   UNL     1      -1.196  13.929  20.920  0.00  0.00    +0.000 N 
ATOM     10  C   UNL     1      -1.300  12.751  20.227  0.00  0.00    +0.000 A 
ATOM     11  N   UNL     1      -2.233  12.384  19.336  0.00  0.00    +0.000 NA
ATOM     12  H   UNL     1      -2.569   9.704  17.678  0.00  0.00    +0.000 HD
ATOM     13  H   UNL     1       1.550  10.361  21.170  0.00  0.00    +0.000 HD
ENDROOT
BRANCH   9  14
ATOM     14  C   UNL     1      -2.070  15.075  20.858  0.00  0.00    +0.000 C 
ATOM     15  C   UNL     1      -2.475  15.638  22.217  0.00  0.00    +0.000 C 
ATOM     16  C   UNL     1      -3.034  17.014  21.886  0.00  0.00    +0.000 C 
ATOM     17  C   UNL     1      -2.308  17.477  20.623  0.00  0.00    +0.000 C 
ATOM     18  C   UNL     1      -1.503  16.284  20.113  0.00  0.00    +0.000 C 
ENDBRANCH   9  14
BRANCH   1  19
ATOM     19  CA  UNL     1      -3.475  11.465  16.914  0.00  0.00    +0.000 C 
BRANCH  19  21
ATOM     20  C   UNL     1      -5.683  10.874  18.094  0.00  0.00    +0.000 C 
ATOM     21  C   UNL     1      -4.911  11.896  17.273  0.00  0.00    +0.000 C 
ENDBRANCH  19  21
BRANCH  19  22
ATOM     22  C   UNL     1      -3.530  10.690  15.574  0.00  0.00    +0.000 C 
BRANCH  22  23
ATOM     23  O   UNL     1      -2.577   9.634  15.519  0.00  0.00    +0.000 OA
ATOM     24  H   UNL     1      -2.604   9.165  16.372  0.00  0.00    +0.000 HD
ENDBRANCH  22  23
ENDBRANCH  19  22
ENDBRANCH   1  19
BRANCH   5  25
ATOM     25  C   UNL     1       0.817   8.521  20.532  0.00  0.00    +0.000 C 
BRANCH  25  26
ATOM     26  C   UNL     1       1.829   7.785  19.684  0.00  0.00    +0.000 A 
ATOM     27  C   UNL     1       2.271   8.303  18.460  0.00  0.00    +0.000 A 
ATOM     28  C   UNL     1       3.216   7.608  17.690  0.00  0.00    +0.000 A 
ATOM     29  C   UNL     1       3.753   6.380  18.116  0.00  0.00    +0.000 A 
ATOM     30  C   UNL     1       3.251   5.844  19.315  0.00  0.00    +0.000 A 
ATOM     31  C   UNL     1       2.306   6.534  20.085  0.00  0.00    +0.000 A 
BRANCH  29  32
ATOM     32  C   UNL     1       4.821   5.705  17.342  0.00  0.00    +0.000 A 
ATOM     33  C   UNL     1       6.113   6.227  17.236  0.00  0.00    +0.000 A 
ATOM     34  C   UNL     1       7.062   5.570  16.457  0.00  0.00    +0.000 A 
ATOM     35  C   UNL     1       6.705   4.404  15.796  0.00  0.00    +0.000 A 
ATOM     36  C   UNL     1       5.410   3.944  15.946  0.00  0.00    +0.000 A 
ATOM     37  N   UNL     1       4.469   4.565  16.693  0.00  0.00    +0.000 NA
ENDBRANCH  29  32
ENDBRANCH  25  26
ENDBRANCH   5  25
TORSDOF 8
ENDMDL
MODEL 5
REMARK VINA RESULT:      -7.5      2.726      4.817
REMARK  Name = 
REMARK  9 active torsions:
REMARK  status: ('A' for Active; 'I' for Inactive)
REMARK    1  A    between atoms: C_1  and  C_2
REMARK    2  A    between atoms: C_2  and  CA_3
REMARK    3  A    between atoms: CA_3  and  C_4
REMARK    4  A    between atoms: CA_3  and  N_6
REMARK    5  A    between atoms: C_4  and  O_5
REMARK    6  A    between atoms: N_10  and  C_11
REMARK    7  A    between atoms: C_11  and  C_12
REMARK    8  A    between atoms: C_15  and  C_16
REMARK    9  A    between atoms: N_27  and  C_28
REMARK                            x       y       z     vdW  Elec       q    Type
REMARK                         _______ _______ _______ _____ _____    ______ ____
ROOT
ATOM      1  N   UNL     1      -2.973  13.259  22.237  0.00  0.00    +0.000 N 
ATOM      2  C   UNL     1      -3.139  12.665  20.992  0.00  0.00    +0.000 A 
ATOM      3  N   UNL     1      -2.098  11.893  20.600  0.00  0.00    +0.000 NA
ATOM      4  C   UNL     1      -2.133  11.273  19.388  0.00  0.00    +0.000 A 
ATOM      5  N   UNL     1      -1.133  10.388  18.979  0.00  0.00    +0.000 N 
ATOM      6  C   UNL     1      -3.247  11.511  18.566  0.00  0.00    +0.000 A 
ATOM      7  N   UNL     1      -3.562  11.072  17.297  0.00  0.00    +0.000 NA
ATOM      8  C   UNL     1      -4.731  11.618  17.038  0.00  0.00    +0.000 A 
ATOM      9  N   UNL     1      -5.182  12.386  18.084  0.00  0.00    +0.000 N 
ATOM     10  C   UNL     1      -4.237  12.329  19.073  0.00  0.00    +0.000 A 
ATOM     11  N   UNL     1      -4.248  12.923  20.276  0.00  0.00    +0.000 NA
ATOM     12  H   UNL     1      -2.132  12.859  22.635  0.00  0.00    +0.000 HD
ATOM     13  H   UNL     1      -1.264  10.154  17.995  0.00  0.00    +0.000 HD
ENDROOT
BRANCH   9  14
ATOM     14  C   UNL     1      -6.436  13.101  18.093  0.00  0.00    +0.000 C 
ATOM     15  C   UNL     1      -6.428  14.381  18.922  0.00  0.00    +0.000 C 
ATOM     16  C   UNL     1      -7.676  15.119  18.459  0.00  0.00    +0.000 C 
ATOM     17  C   UNL     1      -7.909  14.693  17.009  0.00  0.00    +0.000 C 
ATOM     18  C   UNL     1      -6.934  13.554  16.720  0.00  0.00    +0.000 C 
ENDBRANCH   9  14
BRANCH   1  19
ATOM     19  CA  UNL     1      -4.147  13.320  23.120  0.00  0.00    +0.000 C 
BRANCH  19  21
ATOM     20  C   UNL     1      -3.679  15.342  24.638  0.00  0.00    +0.000 C 
ATOM     21  C   UNL     1      -4.455  14.794  23.450  0.00  0.00    +0.000 C 
ENDBRANCH  19  21
BRANCH  19  22
ATOM     22  C   UNL     1      -3.844  12.585  24.450  0.00  0.00    +0.000 C 
BRANCH  22  23
ATOM     23  O   UNL     1      -4.964  11.851  24.931  0.00  0.00    +0.000 OA
ATOM     24  H   UNL     1      -5.007  11.015  24.433  0.00  0.00    +0.000 HD
ENDBRANCH  22  23
ENDBRANCH  19  22
ENDBRANCH   1  19
BRANCH   5  25
ATOM     25  C   UNL     1       0.227  10.753  19.317  0.00  0.00    +0.000 C 
BRANCH  25  26
ATOM     26  C   UNL     1       1.125   9.569  19.037  0.00  0.00    +0.000 A 
ATOM     27  C   UNL     1       1.752   9.406  17.795  0.00  0.00    +0.000 A 
ATOM     28  C   UNL     1       2.587   8.304  17.557  0.00  0.00    +0.000 A 
ATOM     29  C   UNL     1       2.827   7.334  18.547  0.00  0.00    +0.000 A 
ATOM     30  C   UNL     1       2.138   7.479  19.764  0.00  0.00    +0.000 A 
ATOM     31  C   UNL     1       1.303   8.577  20.005  0.00  0.00    +0.000 A 
BRANCH  29  32
ATOM     32  C   UNL     1       3.786   6.229  18.315  0.00  0.00    +0.000 A 
ATOM     33  C   UNL     1       4.354   5.981  17.062  0.00  0.00    +0.000 A 
ATOM     34  C   UNL     1       5.215   4.899  16.897  0.00  0.00    +0.000 A 
ATOM     35  C   UNL     1       5.493   4.082  17.983  0.00  0.00    +0.000 A 
ATOM     36  C   UNL     1       4.897   4.387  19.193  0.00  0.00    +0.000 A 
ATOM     37  N   UNL     1       4.054   5.429  19.379  0.00  0.00    +0.000 NA
ENDBRANCH  29  32
ENDBRANCH  25  26
ENDBRANCH   5  25
TORSDOF 8
ENDMDL
MODEL 6
REMARK VINA RESULT:      -7.4      1.887      2.414
REMARK  Name = 
REMARK  9 active torsions:
REMARK  status: ('A' for Active; 'I' for Inactive)
REMARK    1  A    between atoms: C_1  and  C_2
REMARK    2  A    between atoms: C_2  and  CA_3
REMARK    3  A    between atoms: CA_3  and  C_4
REMARK    4  A    between atoms: CA_3  and  N_6
REMARK    5  A    between atoms: C_4  and  O_5
REMARK    6  A    between atoms: N_10  and  C_11
REMARK    7  A    between atoms: C_11  and  C_12
REMARK    8  A    between atoms: C_15  and  C_16
REMARK    9  A    between atoms: N_27  and  C_28
REMARK                            x       y       z     vdW  Elec       q    Type
REMARK                         _______ _______ _______ _____ _____    ______ ____
ROOT
ATOM      1  N   UNL     1      -2.834  11.111  18.524  0.00  0.00    +0.000 N 
ATOM      2  C   UNL     1      -1.649  11.722  18.915  0.00  0.00    +0.000 A 
ATOM      3  N   UNL     1      -0.748  10.881  19.476  0.00  0.00    +0.000 NA
ATOM      4  C   UNL     1       0.445  11.365  19.919  0.00  0.00    +0.000 A 
ATOM      5  N   UNL     1       1.448  10.526  20.413  0.00  0.00    +0.000 N 
ATOM      6  C   UNL     1       0.667  12.748  19.816  0.00  0.00    +0.000 A 
ATOM      7  N   UNL     1       1.732  13.538  20.196  0.00  0.00    +0.000 NA
ATOM      8  C   UNL     1       1.379  14.758  19.852  0.00  0.00    +0.000 A 
ATOM      9  N   UNL     1       0.137  14.787  19.266  0.00  0.00    +0.000 N 
ATOM     10  C   UNL     1      -0.335  13.502  19.238  0.00  0.00    +0.000 A 
ATOM     11  N   UNL     1      -1.504  13.050  18.760  0.00  0.00    +0.000 NA
ATOM     12  H   UNL     1      -2.694  10.115  18.638  0.00  0.00    +0.000 HD
ATOM     13  H   UNL     1       2.190  11.088  20.828  0.00  0.00    +0.000 HD
ENDROOT
BRANCH   9  14
ATOM     14  C   UNL     1      -0.509  15.982  18.778  0.00  0.00    +0.000 C 
ATOM     15  C   UNL     1      -1.305  16.746  19.832  0.00  0.00    +0.000 C 
ATOM     16  C   UNL     1      -1.536  18.108  19.193  0.00  0.00    +0.000 C 
ATOM     17  C   UNL     1      -0.353  18.344  18.254  0.00  0.00    +0.000 C 
ATOM     18  C   UNL     1       0.430  17.035  18.190  0.00  0.00    +0.000 C 
ENDBRANCH   9  14
BRANCH   1  19
ATOM     19  CA  UNL     1      -3.431  11.544  17.253  0.00  0.00    +0.000 C 
BRANCH  19  21
ATOM     20  C   UNL     1      -5.842  12.434  17.364  0.00  0.00    +0.000 C 
ATOM     21  C   UNL     1      -4.937  11.215  17.263  0.00  0.00    +0.000 C 
ENDBRANCH  19  21
BRANCH  19  22
ATOM     22  C   UNL     1      -2.781  10.772  16.076  0.00  0.00    +0.000 C 
BRANCH  22  23
ATOM     23  O   UNL     1      -3.277  11.194  14.811  0.00  0.00    +0.000 OA
ATOM     24  H   UNL     1      -3.952  10.551  14.527  0.00  0.00    +0.000 HD
ENDBRANCH  22  23
ENDBRANCH  19  22
ENDBRANCH   1  19
BRANCH   5  25
ATOM     25  C   UNL     1       1.012   9.425  21.246  0.00  0.00    +0.000 C 
BRANCH  25  26
ATOM     26  C   UNL     1       1.458   8.131  20.601  0.00  0.00    +0.000 A 
ATOM     27  C   UNL     1       2.053   8.115  19.332  0.00  0.00    +0.000 A 
ATOM     28  C   UNL     1       2.465   6.905  18.754  0.00  0.00    +0.000 A 
ATOM     29  C   UNL     1       2.303   5.677  19.420  0.00  0.00    +0.000 A 
ATOM     30  C   UNL     1       1.646   5.706  20.663  0.00  0.00    +0.000 A 
ATOM     31  C   UNL     1       1.232   6.910  21.242  0.00  0.00    +0.000 A 
BRANCH  29  32
ATOM     32  C   UNL     1       2.831   4.420  18.840  0.00  0.00    +0.000 A 
ATOM     33  C   UNL     1       3.382   4.360  17.557  0.00  0.00    +0.000 A 
ATOM     34  C   UNL     1       3.821   3.140  17.050  0.00  0.00    +0.000 A 
ATOM     35  C   UNL     1       3.700   1.999  17.830  0.00  0.00    +0.000 A 
ATOM     36  C   UNL     1       3.146   2.132  19.090  0.00  0.00    +0.000 A 
ATOM     37  N   UNL     1       2.709   3.304  19.604  0.00  0.00    +0.000 NA
ENDBRANCH  29  32
ENDBRANCH  25  26
ENDBRANCH   5  25
TORSDOF 8
ENDMDL
MODEL 7
REMARK VINA RESULT:      -7.4      0.818      1.367
REMARK  Name = 
REMARK  9 active torsions:
REMARK  status: ('A' for Active; 'I' for Inactive)
REMARK    1  A    between atoms: C_1  and  C_2
REMARK    2  A    between atoms: C_2  and  CA_3
REMARK    3  A    between atoms: CA_3  and  C_4
REMARK    4  A    between atoms: CA_3  and  N_6
REMARK    5  A    between atoms: C_4  and  O_5
REMARK    6  A    between atoms: N_10  and  C_11
REMARK    7  A    between atoms: C_11  and  C_12
REMARK    8  A    between atoms: C_15  and  C_16
REMARK    9  A    between atoms: N_27  and  C_28
REMARK                            x       y       z     vdW  Elec       q    Type
REMARK                         _______ _______ _______ _____ _____    ______ ____
ROOT
ATOM      1  N   UNL     1      -3.279  10.996  18.697  0.00  0.00    +0.000 N 
ATOM      2  C   UNL     1      -2.240  11.587  19.403  0.00  0.00    +0.000 A 
ATOM      3  N   UNL     1      -1.205  10.756  19.671  0.00  0.00    +0.000 NA
ATOM      4  C   UNL     1      -0.134  11.214  20.376  0.00  0.00    +0.000 A 
ATOM      5  N   UNL     1       1.002  10.429  20.594  0.00  0.00    +0.000 N 
ATOM      6  C   UNL     1      -0.178  12.537  20.844  0.00  0.00    +0.000 A 
ATOM      7  N   UNL     1       0.709  13.275  21.600  0.00  0.00    +0.000 NA
ATOM      8  C   UNL     1       0.136  14.452  21.728  0.00  0.00    +0.000 A 
ATOM      9  N   UNL     1      -1.078  14.506  21.088  0.00  0.00    +0.000 N 
ATOM     10  C   UNL     1      -1.295  13.280  20.517  0.00  0.00    +0.000 A 
ATOM     11  N   UNL     1      -2.348  12.870  19.793  0.00  0.00    +0.000 NA
ATOM     12  H   UNL     1      -2.954  10.076  18.424  0.00  0.00    +0.000 HD
ATOM     13  H   UNL     1       1.615  10.893  21.262  0.00  0.00    +0.000 HD
ENDROOT
BRANCH   9  14
ATOM     14  C   UNL     1      -1.931  15.669  21.049  0.00  0.00    +0.000 C 
ATOM     15  C   UNL     1      -1.728  16.563  19.830  0.00  0.00    +0.000 C 
ATOM     16  C   UNL     1      -2.965  17.450  19.823  0.00  0.00    +0.000 C 
ATOM     17  C   UNL     1      -4.081  16.630  20.471  0.00  0.00    +0.000 C 
ATOM     18  C   UNL     1      -3.431  15.372  21.043  0.00  0.00    +0.000 C 
ENDBRANCH   9  14
BRANCH   1  19
ATOM     19  CA  UNL     1      -3.925  11.795  17.646  0.00  0.00    +0.000 C 
BRANCH  19  21
ATOM     20  C   UNL     1      -6.183  12.989  17.341  0.00  0.00    +0.000 C 
ATOM     21  C   UNL     1      -5.454  11.753  17.845  0.00  0.00    +0.000 C 
ENDBRANCH  19  21
BRANCH  19  22
ATOM     22  C   UNL     1      -3.608  11.192  16.254  0.00  0.00    +0.000 C 
BRANCH  22  23
ATOM     23  O   UNL     1      -2.253  11.398  15.870  0.00  0.00    +0.000 OA
ATOM     24  H   UNL     1      -2.246  12.051  15.148  0.00  0.00    +0.000 HD
ENDBRANCH  22  23
ENDBRANCH  19  22
ENDBRANCH   1  19
BRANCH   5  25
ATOM     25  C   UNL     1       0.769   9.029  20.885  0.00  0.00    +0.000 C 
BRANCH  25  26
ATOM     26  C   UNL     1       1.611   8.198  19.943  0.00  0.00    +0.000 A 
ATOM     27  C   UNL     1       1.935   8.653  18.659  0.00  0.00    +0.000 A 
ATOM     28  C   UNL     1       2.723   7.869  17.802  0.00  0.00    +0.000 A 
ATOM     29  C   UNL     1       3.215   6.613  18.198  0.00  0.00    +0.000 A 
ATOM     30  C   UNL     1       2.827   6.144  19.466  0.00  0.00    +0.000 A 
ATOM     31  C   UNL     1       2.039   6.922  20.322  0.00  0.00    +0.000 A 
BRANCH  29  32
ATOM     32  C   UNL     1       4.126   5.839  17.322  0.00  0.00    +0.000 A 
ATOM     33  C   UNL     1       4.910   6.446  16.336  0.00  0.00    +0.000 A 
ATOM     34  C   UNL     1       5.713   5.661  15.513  0.00  0.00    +0.000 A 
ATOM     35  C   UNL     1       5.719   4.284  15.685  0.00  0.00    +0.000 A 
ATOM     36  C   UNL     1       4.919   3.752  16.680  0.00  0.00    +0.000 A 
ATOM     37  N   UNL     1       4.127   4.492  17.490  0.00  0.00    +0.000 NA
ENDBRANCH  29  32
ENDBRANCH  25  26
ENDBRANCH   5  25
TORSDOF 8
ENDMDL
MODEL 8
REMARK VINA RESULT:      -7.3      3.591      5.046
REMARK  Name = 
REMARK  9 active torsions:
REMARK  status: ('A' for Active; 'I' for Inactive)
REMARK    1  A    between atoms: C_1  and  C_2
REMARK    2  A    between atoms: C_2  and  CA_3
REMARK    3  A    between atoms: CA_3  and  C_4
REMARK    4  A    between atoms: CA_3  and  N_6
REMARK    5  A    between atoms: C_4  and  O_5
REMARK    6  A    between atoms: N_10  and  C_11
REMARK    7  A    between atoms: C_11  and  C_12
REMARK    8  A    between atoms: C_15  and  C_16
REMARK    9  A    between atoms: N_27  and  C_28
REMARK                            x       y       z     vdW  Elec       q    Type
REMARK                         _______ _______ _______ _____ _____    ______ ____
ROOT
ATOM      1  N   UNL     1       2.414  14.818  20.250  0.00  0.00    +0.000 N 
ATOM      2  C   UNL     1       1.498  13.941  20.814  0.00  0.00    +0.000 A 
ATOM      3  N   UNL     1       1.618  12.661  20.389  0.00  0.00    +0.000 NA
ATOM      4  C   UNL     1       0.763  11.709  20.854  0.00  0.00    +0.000 A 
ATOM      5  N   UNL     1       0.906  10.358  20.526  0.00  0.00    +0.000 N 
ATOM      6  C   UNL     1      -0.254  12.119  21.731  0.00  0.00    +0.000 A 
ATOM      7  N   UNL     1      -1.279  11.424  22.340  0.00  0.00    +0.000 NA
ATOM      8  C   UNL     1      -1.918  12.329  23.049  0.00  0.00    +0.000 A 
ATOM      9  N   UNL     1      -1.351  13.573  22.926  0.00  0.00    +0.000 N 
ATOM     10  C   UNL     1      -0.281  13.455  22.079  0.00  0.00    +0.000 A 
ATOM     11  N   UNL     1       0.569  14.408  21.667  0.00  0.00    +0.000 NA
ATOM     12  H   UNL     1       3.069  14.251  19.725  0.00  0.00    +0.000 HD
ATOM     13  H   UNL     1       0.088   9.840  20.845  0.00  0.00    +0.000 HD
ENDROOT
BRANCH   9  14
ATOM     14  C   UNL     1      -1.830  14.760  23.592  0.00  0.00    +0.000 C 
ATOM     15  C   UNL     1      -3.349  14.870  23.677  0.00  0.00    +0.000 C 
ATOM     16  C   UNL     1      -3.575  15.948  24.728  0.00  0.00    +0.000 C 
ATOM     17  C   UNL     1      -2.376  15.879  25.673  0.00  0.00    +0.000 C 
ATOM     18  C   UNL     1      -1.368  14.922  25.041  0.00  0.00    +0.000 C 
ENDBRANCH   9  14
BRANCH   1  19
ATOM     19  CA  UNL     1       2.998  15.844  21.127  0.00  0.00    +0.000 C 
BRANCH  19  21
ATOM     20  C   UNL     1       3.670  18.326  21.065  0.00  0.00    +0.000 C 
ATOM     21  C   UNL     1       3.441  17.048  20.272  0.00  0.00    +0.000 C 
ENDBRANCH  19  21
BRANCH  19  22
ATOM     22  C   UNL     1       4.252  15.276  21.839  0.00  0.00    +0.000 C 
BRANCH  22  23
ATOM     23  O   UNL     1       3.925  14.575  23.034  0.00  0.00    +0.000 OA
ATOM     24  H   UNL     1       3.118  14.058  22.864  0.00  0.00    +0.000 HD
ENDBRANCH  22  23
ENDBRANCH  19  22
ENDBRANCH   1  19
BRANCH   5  25
ATOM     25  C   UNL     1       1.287  10.066  19.159  0.00  0.00    +0.000 C 
BRANCH  25  26
ATOM     26  C   UNL     1       1.721   8.620  19.082  0.00  0.00    +0.000 A 
ATOM     27  C   UNL     1       1.687   7.786  20.207  0.00  0.00    +0.000 A 
ATOM     28  C   UNL     1       2.089   6.445  20.114  0.00  0.00    +0.000 A 
ATOM     29  C   UNL     1       2.531   5.892  18.899  0.00  0.00    +0.000 A 
ATOM     30  C   UNL     1       2.620   6.759  17.796  0.00  0.00    +0.000 A 
ATOM     31  C   UNL     1       2.223   8.098  17.886  0.00  0.00    +0.000 A 
BRANCH  29  32
ATOM     32  C   UNL     1       2.859   4.451  18.791  0.00  0.00    +0.000 A 
ATOM     33  C   UNL     1       2.306   3.629  17.805  0.00  0.00    +0.000 A 
ATOM     34  C   UNL     1       2.618   2.272  17.782  0.00  0.00    +0.000 A 
ATOM     35  C   UNL     1       3.474   1.757  18.745  0.00  0.00    +0.000 A 
ATOM     36  C   UNL     1       3.984   2.628  19.690  0.00  0.00    +0.000 A 
ATOM     37  N   UNL     1       3.695   3.949  19.737  0.00  0.00    +0.000 NA
ENDBRANCH  29  32
ENDBRANCH  25  26
ENDBRANCH   5  25
TORSDOF 8
ENDMDL
MODEL 9
REMARK VINA RESULT:      -7.3      3.303     10.512
REMARK  Name = 
REMARK  9 active torsions:
REMARK  status: ('A' for Active; 'I' for Inactive)
REMARK    1  A    between atoms: C_1  and  C_2
REMARK    2  A    between atoms: C_2  and  CA_3
REMARK    3  A    between atoms: CA_3  and  C_4
REMARK    4  A    between atoms: CA_3  and  N_6
REMARK    5  A    between atoms: C_4  and  O_5
REMARK    6  A    between atoms: N_10  and  C_11
REMARK    7  A    between atoms: C_11  and  C_12
REMARK    8  A    between atoms: C_15  and  C_16
REMARK    9  A    between atoms: N_27  and  C_28
REMARK                            x       y       z     vdW  Elec       q    Type
REMARK                         _______ _______ _______ _____ _____    ______ ____
ROOT
ATOM      1  N   UNL     1       0.967   3.529  20.466  0.00  0.00    +0.000 N 
ATOM      2  C   UNL     1       1.572   4.687  19.995  0.00  0.00    +0.000 A 
ATOM      3  N   UNL     1       1.234   5.808  20.674  0.00  0.00    +0.000 NA
ATOM      4  C   UNL     1       1.747   7.011  20.294  0.00  0.00    +0.000 A 
ATOM      5  N   UNL     1       1.510   8.181  21.020  0.00  0.00    +0.000 N 
ATOM      6  C   UNL     1       2.578   7.037  19.163  0.00  0.00    +0.000 A 
ATOM      7  N   UNL     1       3.215   8.075  18.514  0.00  0.00    +0.000 NA
ATOM      8  C   UNL     1       3.853   7.501  17.517  0.00  0.00    +0.000 A 
ATOM      9  N   UNL     1       3.658   6.142  17.496  0.00  0.00    +0.000 N 
ATOM     10  C   UNL     1       2.838   5.828  18.548  0.00  0.00    +0.000 A 
ATOM     11  N   UNL     1       2.378   4.625  18.920  0.00  0.00    +0.000 NA
ATOM     12  H   UNL     1       0.491   3.783  21.323  0.00  0.00    +0.000 HD
ATOM     13  H   UNL     1       1.849   8.985  20.494  0.00  0.00    +0.000 HD
ENDROOT
BRANCH   9  14
ATOM     14  C   UNL     1       4.238   5.247  16.524  0.00  0.00    +0.000 C 
ATOM     15  C   UNL     1       5.167   5.920  15.519  0.00  0.00    +0.000 C 
ATOM     16  C   UNL     1       5.925   4.757  14.894  0.00  0.00    +0.000 C 
ATOM     17  C   UNL     1       5.989   3.666  15.963  0.00  0.00    +0.000 C 
ATOM     18  C   UNL     1       5.084   4.115  17.108  0.00  0.00    +0.000 C 
ENDBRANCH   9  14
BRANCH   1  19
ATOM     19  CA  UNL     1       1.784   2.308  20.512  0.00  0.00    +0.000 C 
BRANCH  19  21
ATOM     20  C   UNL     1       4.348   2.174  20.357  0.00  0.00    +0.000 C 
ATOM     21  C   UNL     1       3.143   2.632  21.164  0.00  0.00    +0.000 C 
ENDBRANCH  19  21
BRANCH  19  22
ATOM     22  C   UNL     1       2.054   1.801  19.072  0.00  0.00    +0.000 C 
BRANCH  22  23
ATOM     23  O   UNL     1       0.880   1.801  18.268  0.00  0.00    +0.000 OA
ATOM     24  H   UNL     1       1.037   2.398  17.514  0.00  0.00    +0.000 HD
ENDBRANCH  22  23
ENDBRANCH  19  22
ENDBRANCH   1  19
BRANCH   5  25
ATOM     25  C   UNL     1       0.172   8.350  21.548  0.00  0.00    +0.000 C 
BRANCH  25  26
ATOM     26  C   UNL     1      -0.069   9.824  21.781  0.00  0.00    +0.000 A 
ATOM     27  C   UNL     1      -0.878  10.276  22.831  0.00  0.00    +0.000 A 
ATOM     28  C   UNL     1      -1.085  11.648  23.034  0.00  0.00    +0.000 A 
ATOM     29  C   UNL     1      -0.489  12.613  22.202  0.00  0.00    +0.000 A 
ATOM     30  C   UNL     1       0.267  12.141  21.115  0.00  0.00    +0.000 A 
ATOM     31  C   UNL     1       0.473  10.772  20.908  0.00  0.00    +0.000 A 
BRANCH  29  32
ATOM     32  C   UNL     1      -0.636  14.060  22.486  0.00  0.00    +0.000 A 
ATOM     33  C   UNL     1      -1.112  14.538  23.710  0.00  0.00    +0.000 A 
ATOM     34  C   UNL     1      -1.270  15.908  23.902  0.00  0.00    +0.000 A 
ATOM     35  C   UNL     1      -0.952  16.778  22.869  0.00  0.00    +0.000 A 
ATOM     36  C   UNL     1      -0.486  16.236  21.686  0.00  0.00    +0.000 A 
ATOM     37  N   UNL     1      -0.327  14.909  21.473  0.00  0.00    +0.000 NA
ENDBRANCH  29  32
ENDBRANCH  25  26
ENDBRANCH   5  25
TORSDOF 8
ENDMDL
