MODEL 1
REMARK VINA RESULT:      -6.9      0.000      0.000
REMARK  Name = 
REMARK  13 active torsions:
REMARK  status: ('A' for Active; 'I' for Inactive)
REMARK    1  A    between atoms: C_1  and  O_2
REMARK    2  A    between atoms: O_2  and  C_3
REMARK    3  A    between atoms: C_7  and  C_8
REMARK    4  A    between atoms: C_8  and  C_10
REMARK    5  A    between atoms: C_12  and  O_13
REMARK    6  A    between atoms: O_13  and  C_14
REMARK    7  A    between atoms: C_15  and  O_16
REMARK    8  A    between atoms: O_16  and  C_17
REMARK    9  A    between atoms: C_18  and  O_19
REMARK   10  A    between atoms: O_19  and  C_20
REMARK   11  A    between atoms: C_22  and  C_23
REMARK   12  A    between atoms: C_26  and  O_27
REMARK   13  A    between atoms: O_27  and  C_28
REMARK                            x       y       z     vdW  Elec       q    Type
REMARK                         _______ _______ _______ _____ _____    ______ ____
ROOT
ATOM      1  C   UNL     1       2.220   7.449  19.610  0.00  0.00    +0.000 A 
ATOM      2  C   UNL     1       1.949   8.003  18.358  0.00  0.00    +0.000 A 
ATOM      3  C   UNL     1       1.237   9.205  18.239  0.00  0.00    +0.000 A 
ATOM      4  C   UNL     1       0.741   9.835  19.396  0.00  0.00    +0.000 A 
ATOM      5  C   UNL     1      -0.052  10.998  19.684  0.00  0.00    +0.000 A 
ATOM      6  C   UNL     1      -0.129  11.074  21.074  0.00  0.00    +0.000 A 
ATOM      7  O   UNL     1       0.537  10.015  21.630  0.00  0.00    +0.000 OA
ATOM      8  C   UNL     1       1.050   9.265  20.620  0.00  0.00    +0.000 A 
ATOM      9  C   UNL     1       1.784   8.090  20.776  0.00  0.00    +0.000 A 
ENDROOT
BRANCH   6  10
ATOM     10  C   UNL     1      -0.766  11.965  22.040  0.00  0.00    +0.000 A 
ATOM     11  C   UNL     1      -0.344  13.283  22.244  0.00  0.00    +0.000 A 
ATOM     12  C   UNL     1      -0.990  14.092  23.178  0.00  0.00    +0.000 A 
ATOM     13  C   UNL     1      -2.064  13.568  23.870  0.00  0.00    +0.000 A 
ATOM     14  N   UNL     1      -2.513  12.306  23.708  0.00  0.00    +0.000 NA
ATOM     15  C   UNL     1      -1.850  11.540  22.804  0.00  0.00    +0.000 A 
BRANCH  13  16
ATOM     16  O   UNL     1      -2.696  14.415  24.758  0.00  0.00    +0.000 OA
ATOM     17  C   UNL     1      -3.955  14.871  24.274  0.00  0.00    +0.000 C 
ENDBRANCH  13  16
ENDBRANCH   6  10
BRANCH   1  19
ATOM     18  C   UNL     1       3.679   5.788  18.732  0.00  0.00    +0.000 C 
ATOM     19  O   UNL     1       2.910   6.284  19.823  0.00  0.00    +0.000 OA
ENDBRANCH   1  19
BRANCH   5  20
ATOM     20  C   UNL     1      -0.629  11.964  18.770  0.00  0.00    +0.000 C 
ATOM     21  O   UNL     1       0.056  12.796  18.180  0.00  0.00    +0.000 OA
BRANCH  20  22
ATOM     22  C   UNL     1      -2.089  11.935  18.481  0.00  0.00    +0.000 A 
ATOM     23  C   UNL     1      -2.475  11.452  17.237  0.00  0.00    +0.000 A 
ATOM     24  C   UNL     1      -3.825  11.294  16.931  0.00  0.00    +0.000 A 
ATOM     25  C   UNL     1      -4.808  11.659  17.878  0.00  0.00    +0.000 A 
ATOM     26  C   UNL     1      -4.418  12.205  19.121  0.00  0.00    +0.000 A 
ATOM     27  C   UNL     1      -3.054  12.364  19.399  0.00  0.00    +0.000 A 
BRANCH  24  28
ATOM     28  O   UNL     1      -4.258  10.780  15.731  0.00  0.00    +0.000 OA
ATOM     29  C   UNL     1      -3.240  10.382  14.813  0.00  0.00    +0.000 C 
ENDBRANCH  24  28
BRANCH  25  30
ATOM     30  O   UNL     1      -6.109  11.510  17.457  0.00  0.00    +0.000 OA
ATOM     31  C   UNL     1      -6.812  12.694  17.102  0.00  0.00    +0.000 C 
ENDBRANCH  25  30
BRANCH  26  32
ATOM     32  O   UNL     1      -5.400  12.572  20.004  0.00  0.00    +0.000 OA
ATOM     33  C   UNL     1      -5.481  13.936  20.400  0.00  0.00    +0.000 C 
ENDBRANCH  26  32
ENDBRANCH  20  22
ENDBRANCH   5  20
TORSDOF 8
ENDMDL
MODEL 2
REMARK VINA RESULT:      -6.8      1.956      3.915
REMARK  Name = 
REMARK  13 active torsions:
REMARK  status: ('A' for Active; 'I' for Inactive)
REMARK    1  A    between atoms: C_1  and  O_2
REMARK    2  A    between atoms: O_2  and  C_3
REMARK    3  A    between atoms: C_7  and  C_8
REMARK    4  A    between atoms: C_8  and  C_10
REMARK    5  A    between atoms: C_12  and  O_13
REMARK    6  A    between atoms: O_13  and  C_14
REMARK    7  A    between atoms: C_15  and  O_16
REMARK    8  A    between atoms: O_16  and  C_17
REMARK    9  A    between atoms: C_18  and  O_19
REMARK   10  A    between atoms: O_19  and  C_20
REMARK   11  A    between atoms: C_22  and  C_23
REMARK   12  A    between atoms: C_26  and  O_27
REMARK   13  A    between atoms: O_27  and  C_28
REMARK                            x       y       z     vdW  Elec       q    Type
REMARK                         _______ _______ _______ _____ _____    ______ ____
ROOT
ATOM      1  C   UNL     1       3.784   4.501  18.713  0.00  0.00    +0.000 A 
ATOM      2  C   UNL     1       3.871   5.245  17.535  0.00  0.00    +0.000 A 
ATOM      3  C   UNL     1       3.324   6.534  17.453  0.00  0.00    +0.000 A 
ATOM      4  C   UNL     1       2.631   7.066  18.558  0.00  0.00    +0.000 A 
ATOM      5  C   UNL     1       1.907   8.273  18.845  0.00  0.00    +0.000 A 
ATOM      6  C   UNL     1       1.512   8.174  20.177  0.00  0.00    +0.000 A 
ATOM      7  O   UNL     1       1.925   6.975  20.692  0.00  0.00    +0.000 OA
ATOM      8  C   UNL     1       2.587   6.304  19.715  0.00  0.00    +0.000 A 
ATOM      9  C   UNL     1       3.149   5.035  19.841  0.00  0.00    +0.000 A 
ENDROOT
BRANCH   6  10
ATOM     10  C   UNL     1       0.753   9.006  21.109  0.00  0.00    +0.000 A 
ATOM     11  C   UNL     1      -0.324   8.515  21.853  0.00  0.00    +0.000 A 
ATOM     12  C   UNL     1      -1.012   9.352  22.731  0.00  0.00    +0.000 A 
ATOM     13  C   UNL     1      -0.587  10.660  22.860  0.00  0.00    +0.000 A 
ATOM     14  N   UNL     1       0.447  11.181  22.169  0.00  0.00    +0.000 NA
ATOM     15  C   UNL     1       1.084  10.344  21.311  0.00  0.00    +0.000 A 
BRANCH  13  16
ATOM     16  O   UNL     1      -1.275  11.443  23.767  0.00  0.00    +0.000 OA
ATOM     17  C   UNL     1      -2.155  12.365  23.133  0.00  0.00    +0.000 C 
ENDBRANCH  13  16
ENDBRANCH   6  10
BRANCH   1  19
ATOM     18  C   UNL     1       3.914   2.557  20.078  0.00  0.00    +0.000 C 
ATOM     19  O   UNL     1       4.291   3.239  18.886  0.00  0.00    +0.000 OA
ENDBRANCH   1  19
BRANCH   5  20
ATOM     20  C   UNL     1       1.657   9.417  17.990  0.00  0.00    +0.000 C 
ATOM     21  O   UNL     1       2.537   9.919  17.296  0.00  0.00    +0.000 OA
BRANCH  20  22
ATOM     22  C   UNL     1       0.286   9.987  17.893  0.00  0.00    +0.000 A 
ATOM     23  C   UNL     1       0.051  11.180  18.567  0.00  0.00    +0.000 A 
ATOM     24  C   UNL     1      -1.174  11.831  18.440  0.00  0.00    +0.000 A 
ATOM     25  C   UNL     1      -2.195  11.259  17.647  0.00  0.00    +0.000 A 
ATOM     26  C   UNL     1      -1.978  10.019  17.009  0.00  0.00    +0.000 A 
ATOM     27  C   UNL     1      -0.741   9.379  17.164  0.00  0.00    +0.000 A 
BRANCH  24  28
ATOM     28  O   UNL     1      -1.441  13.034  19.051  0.00  0.00    +0.000 OA
ATOM     29  C   UNL     1      -0.385  13.993  19.040  0.00  0.00    +0.000 C 
ENDBRANCH  24  28
BRANCH  25  30
ATOM     30  O   UNL     1      -3.380  11.958  17.629  0.00  0.00    +0.000 OA
ATOM     31  C   UNL     1      -4.447  11.440  18.413  0.00  0.00    +0.000 C 
ENDBRANCH  25  30
BRANCH  26  32
ATOM     32  O   UNL     1      -3.001   9.483  16.271  0.00  0.00    +0.000 OA
ATOM     33  C   UNL     1      -3.161   9.908  14.923  0.00  0.00    +0.000 C 
ENDBRANCH  26  32
ENDBRANCH  20  22
ENDBRANCH   5  20
TORSDOF 8
ENDMDL
MODEL 3
REMARK VINA RESULT:      -6.7      2.146      3.995
REMARK  Name = 
REMARK  13 active torsions:
REMARK  status: ('A' for Active; 'I' for Inactive)
REMARK    1  A    between atoms: C_1  and  O_2
REMARK    2  A    between atoms: O_2  and  C_3
REMARK    3  A    between atoms: C_7  and  C_8
REMARK    4  A    between atoms: C_8  and  C_10
REMARK    5  A    between atoms: C_12  and  O_13
REMARK    6  A    between atoms: O_13  and  C_14
REMARK    7  A    between atoms: C_15  and  O_16
REMARK    8  A    between atoms: O_16  and  C_17
REMARK    9  A    between atoms: C_18  and  O_19
REMARK   10  A    between atoms: O_19  and  C_20
REMARK   11  A    between atoms: C_22  and  C_23
REMARK   12  A    between atoms: C_26  and  O_27
REMARK   13  A    between atoms: O_27  and  C_28
REMARK                            x       y       z     vdW  Elec       q    Type
REMARK                         _______ _______ _______ _____ _____    ______ ____
ROOT
ATOM      1  C   UNL     1       3.849   4.001  18.781  0.00  0.00    +0.000 A 
ATOM      2  C   UNL     1       4.074   4.759  17.631  0.00  0.00    +0.000 A 
ATOM      3  C   UNL     1       3.614   6.081  17.536  0.00  0.00    +0.000 A 
ATOM      4  C   UNL     1       2.869   6.634  18.595  0.00  0.00    +0.000 A 
ATOM      5  C   UNL     1       2.198   7.878  18.851  0.00  0.00    +0.000 A 
ATOM      6  C   UNL     1       1.693   7.781  20.146  0.00  0.00    +0.000 A 
ATOM      7  O   UNL     1       1.990   6.549  20.665  0.00  0.00    +0.000 OA
ATOM      8  C   UNL     1       2.687   5.857  19.727  0.00  0.00    +0.000 A 
ATOM      9  C   UNL     1       3.160   4.552  19.868  0.00  0.00    +0.000 A 
ENDROOT
BRANCH   6  10
ATOM     10  C   UNL     1       0.913   8.641  21.034  0.00  0.00    +0.000 A 
ATOM     11  C   UNL     1      -0.334   8.266  21.544  0.00  0.00    +0.000 A 
ATOM     12  C   UNL     1      -1.034   9.124  22.391  0.00  0.00    +0.000 A 
ATOM     13  C   UNL     1      -0.455  10.333  22.727  0.00  0.00    +0.000 A 
ATOM     14  N   UNL     1       0.745  10.739  22.265  0.00  0.00    +0.000 NA
ATOM     15  C   UNL     1       1.392   9.887  21.430  0.00  0.00    +0.000 A 
BRANCH  13  16
ATOM     16  O   UNL     1      -1.167  11.135  23.596  0.00  0.00    +0.000 OA
ATOM     17  C   UNL     1      -1.396  12.439  23.070  0.00  0.00    +0.000 C 
ENDBRANCH  13  16
ENDBRANCH   6  10
BRANCH   1  19
ATOM     18  C   UNL     1       3.364   1.683  18.555  0.00  0.00    +0.000 C 
ATOM     19  O   UNL     1       4.264   2.708  18.965  0.00  0.00    +0.000 OA
ENDBRANCH   1  19
BRANCH   5  20
ATOM     20  C   UNL     1       2.086   9.051  18.006  0.00  0.00    +0.000 C 
ATOM     21  O   UNL     1       2.928   9.327  17.156  0.00  0.00    +0.000 OA
BRANCH  20  22
ATOM     22  C   UNL     1       0.894   9.936  18.116  0.00  0.00    +0.000 A 
ATOM     23  C   UNL     1      -0.312   9.432  17.643  0.00  0.00    +0.000 A 
ATOM     24  C   UNL     1      -1.490  10.156  17.807  0.00  0.00    +0.000 A 
ATOM     25  C   UNL     1      -1.455  11.425  18.427  0.00  0.00    +0.000 A 
ATOM     26  C   UNL     1      -0.222  11.964  18.856  0.00  0.00    +0.000 A 
ATOM     27  C   UNL     1       0.950  11.220  18.668  0.00  0.00    +0.000 A 
BRANCH  24  28
ATOM     28  O   UNL     1      -2.714   9.682  17.395  0.00  0.00    +0.000 OA
ATOM     29  C   UNL     1      -2.983   9.765  15.997  0.00  0.00    +0.000 C 
ENDBRANCH  24  28
BRANCH  25  30
ATOM     30  O   UNL     1      -2.665  12.076  18.493  0.00  0.00    +0.000 OA
ATOM     31  C   UNL     1      -3.232  12.254  19.785  0.00  0.00    +0.000 C 
ENDBRANCH  25  30
BRANCH  26  32
ATOM     32  O   UNL     1      -0.224  13.209  19.428  0.00  0.00    +0.000 OA
ATOM     33  C   UNL     1       0.036  14.337  18.601  0.00  0.00    +0.000 C 
ENDBRANCH  26  32
ENDBRANCH  20  22
ENDBRANCH   5  20
TORSDOF 8
ENDMDL
MODEL 4
REMARK VINA RESULT:      -6.7      2.320      4.584
REMARK  Name = 
REMARK  13 active torsions:
REMARK  status: ('A' for Active; 'I' for Inactive)
REMARK    1  A    between atoms: C_1  and  O_2
REMARK    2  A    between atoms: O_2  and  C_3
REMARK    3  A    between atoms: C_7  and  C_8
REMARK    4  A    between atoms: C_8  and  C_10
REMARK    5  A    between atoms: C_12  and  O_13
REMARK    6  A    between atoms: O_13  and  C_14
REMARK    7  A    between atoms: C_15  and  O_16
REMARK    8  A    between atoms: O_16  and  C_17
REMARK    9  A    between atoms: C_18  and  O_19
REMARK   10  A    between atoms: O_19  and  C_20
REMARK   11  A    between atoms: C_22  and  C_23
REMARK   12  A    between atoms: C_26  and  O_27
REMARK   13  A    between atoms: O_27  and  C_28
REMARK                            x       y       z     vdW  Elec       q    Type
REMARK                         _______ _______ _______ _____ _____    ______ ____
ROOT
ATOM      1  C   UNL     1       3.965   3.826  18.520  0.00  0.00    +0.000 A 
ATOM      2  C   UNL     1       4.154   4.637  17.400  0.00  0.00    +0.000 A 
ATOM      3  C   UNL     1       3.688   5.960  17.379  0.00  0.00    +0.000 A 
ATOM      4  C   UNL     1       2.972   6.461  18.483  0.00  0.00    +0.000 A 
ATOM      5  C   UNL     1       2.305   7.690  18.814  0.00  0.00    +0.000 A 
ATOM      6  C   UNL     1       1.837   7.531  20.118  0.00  0.00    +0.000 A 
ATOM      7  O   UNL     1       2.153   6.277  20.570  0.00  0.00    +0.000 OA
ATOM      8  C   UNL     1       2.825   5.632  19.582  0.00  0.00    +0.000 A 
ATOM      9  C   UNL     1       3.305   4.324  19.650  0.00  0.00    +0.000 A 
ENDROOT
BRANCH   6  10
ATOM     10  C   UNL     1       1.081   8.346  21.065  0.00  0.00    +0.000 A 
ATOM     11  C   UNL     1      -0.314   8.443  21.032  0.00  0.00    +0.000 A 
ATOM     12  C   UNL     1      -0.987   9.233  21.963  0.00  0.00    +0.000 A 
ATOM     13  C   UNL     1      -0.244   9.890  22.925  0.00  0.00    +0.000 A 
ATOM     14  N   UNL     1       1.101   9.827  23.003  0.00  0.00    +0.000 NA
ATOM     15  C   UNL     1       1.725   9.063  22.071  0.00  0.00    +0.000 A 
BRANCH  13  16
ATOM     16  O   UNL     1      -0.954  10.633  23.848  0.00  0.00    +0.000 OA
ATOM     17  C   UNL     1      -1.895  11.508  23.236  0.00  0.00    +0.000 C 
ENDBRANCH  13  16
ENDBRANCH   6  10
BRANCH   1  19
ATOM     18  C   UNL     1       4.423   1.978  19.945  0.00  0.00    +0.000 C 
ATOM     19  O   UNL     1       4.388   2.528  18.632  0.00  0.00    +0.000 OA
ENDBRANCH   1  19
BRANCH   5  20
ATOM     20  C   UNL     1       2.166   8.899  18.027  0.00  0.00    +0.000 C 
ATOM     21  O   UNL     1       2.996   9.230  17.186  0.00  0.00    +0.000 OA
BRANCH  20  22
ATOM     22  C   UNL     1       0.960   9.757  18.189  0.00  0.00    +0.000 A 
ATOM     23  C   UNL     1       1.114  10.926  18.926  0.00  0.00    +0.000 A 
ATOM     24  C   UNL     1       0.062  11.833  19.034  0.00  0.00    +0.000 A 
ATOM     25  C   UNL     1      -1.178  11.548  18.419  0.00  0.00    +0.000 A 
ATOM     26  C   UNL     1      -1.353  10.334  17.718  0.00  0.00    +0.000 A 
ATOM     27  C   UNL     1      -0.283   9.433  17.636  0.00  0.00    +0.000 A 
BRANCH  24  28
ATOM     28  O   UNL     1       0.176  13.023  19.714  0.00  0.00    +0.000 OA
ATOM     29  C   UNL     1       1.398  13.228  20.421  0.00  0.00    +0.000 C 
ENDBRANCH  24  28
BRANCH  25  30
ATOM     30  O   UNL     1      -2.163  12.486  18.628  0.00  0.00    +0.000 OA
ATOM     31  C   UNL     1      -3.147  12.180  19.609  0.00  0.00    +0.000 C 
ENDBRANCH  25  30
BRANCH  26  32
ATOM     32  O   UNL     1      -2.578  10.080  17.159  0.00  0.00    +0.000 OA
ATOM     33  C   UNL     1      -2.698  10.119  15.742  0.00  0.00    +0.000 C 
ENDBRANCH  26  32
ENDBRANCH  20  22
ENDBRANCH   5  20
TORSDOF 8
ENDMDL
MODEL 5
REMARK VINA RESULT:      -6.6      2.917      4.806
REMARK  Name = 
REMARK  13 active torsions:
REMARK  status: ('A' for Active; 'I' for Inactive)
REMARK    1  A    between atoms: C_1  and  O_2
REMARK    2  A    between atoms: O_2  and  C_3
REMARK    3  A    between atoms: C_7  and  C_8
REMARK    4  A    between atoms: C_8  and  C_10
REMARK    5  A    between atoms: C_12  and  O_13
REMARK    6  A    between atoms: O_13  and  C_14
REMARK    7  A    between atoms: C_15  and  O_16
REMARK    8  A    between atoms: O_16  and  C_17
REMARK    9  A    between atoms: C_18  and  O_19
REMARK   10  A    between atoms: O_19  and  C_20
REMARK   11  A    between atoms: C_22  and  C_23
REMARK   12  A    between atoms: C_26  and  O_27
REMARK   13  A    between atoms: O_27  and  C_28
REMARK                            x       y       z     vdW  Elec       q    Type
REMARK                         _______ _______ _______ _____ _____    ______ ____
ROOT
ATOM      1  C   UNL     1       2.032   7.706  19.536  0.00  0.00    +0.000 A 
ATOM      2  C   UNL     1       1.979   8.388  18.320  0.00  0.00    +0.000 A 
ATOM      3  C   UNL     1       1.387   9.656  18.227  0.00  0.00    +0.000 A 
ATOM      4  C   UNL     1       0.789  10.227  19.367  0.00  0.00    +0.000 A 
ATOM      5  C   UNL     1       0.059  11.429  19.663  0.00  0.00    +0.000 A 
ATOM      6  C   UNL     1      -0.201  11.391  21.032  0.00  0.00    +0.000 A 
ATOM      7  O   UNL     1       0.298  10.232  21.563  0.00  0.00    +0.000 OA
ATOM      8  C   UNL     1       0.883   9.528  20.559  0.00  0.00    +0.000 A 
ATOM      9  C   UNL     1       1.494   8.282  20.693  0.00  0.00    +0.000 A 
ENDROOT
BRANCH   6  10
ATOM     10  C   UNL     1      -0.891  12.251  21.990  0.00  0.00    +0.000 A 
ATOM     11  C   UNL     1      -0.393  13.498  22.380  0.00  0.00    +0.000 A 
ATOM     12  C   UNL     1      -1.095  14.280  23.297  0.00  0.00    +0.000 A 
ATOM     13  C   UNL     1      -2.296  13.802  23.785  0.00  0.00    +0.000 A 
ATOM     14  N   UNL     1      -2.820  12.609  23.439  0.00  0.00    +0.000 NA
ATOM     15  C   UNL     1      -2.103  11.866  22.557  0.00  0.00    +0.000 A 
BRANCH  13  16
ATOM     16  O   UNL     1      -2.974  14.625  24.662  0.00  0.00    +0.000 OA
ATOM     17  C   UNL     1      -2.099  15.321  25.544  0.00  0.00    +0.000 C 
ENDBRANCH  13  16
ENDBRANCH   6  10
BRANCH   1  19
ATOM     18  C   UNL     1       1.841   5.535  20.488  0.00  0.00    +0.000 C 
ATOM     19  O   UNL     1       2.592   6.469  19.721  0.00  0.00    +0.000 OA
ENDBRANCH   1  19
BRANCH   5  20
ATOM     20  C   UNL     1      -0.309  12.518  18.781  0.00  0.00    +0.000 C 
ATOM     21  O   UNL     1      -1.202  12.409  17.944  0.00  0.00    +0.000 OA
BRANCH  20  22
ATOM     22  C   UNL     1       0.365  13.839  18.907  0.00  0.00    +0.000 A 
ATOM     23  C   UNL     1       1.746  13.828  19.070  0.00  0.00    +0.000 A 
ATOM     24  C   UNL     1       2.462  15.023  19.091  0.00  0.00    +0.000 A 
ATOM     25  C   UNL     1       1.778  16.254  18.978  0.00  0.00    +0.000 A 
ATOM     26  C   UNL     1       0.370  16.269  18.870  0.00  0.00    +0.000 A 
ATOM     27  C   UNL     1      -0.327  15.053  18.865  0.00  0.00    +0.000 A 
BRANCH  24  28
ATOM     28  O   UNL     1       3.832  15.064  19.206  0.00  0.00    +0.000 OA
ATOM     29  C   UNL     1       4.572  14.747  18.029  0.00  0.00    +0.000 C 
ENDBRANCH  24  28
BRANCH  25  30
ATOM     30  O   UNL     1       2.574  17.374  19.059  0.00  0.00    +0.000 OA
ATOM     31  C   UNL     1       2.702  17.983  20.338  0.00  0.00    +0.000 C 
ENDBRANCH  25  30
BRANCH  26  32
ATOM     32  O   UNL     1      -0.261  17.483  18.791  0.00  0.00    +0.000 OA
ATOM     33  C   UNL     1      -0.418  18.084  17.510  0.00  0.00    +0.000 C 
ENDBRANCH  26  32
ENDBRANCH  20  22
ENDBRANCH   5  20
TORSDOF 8
ENDMDL
MODEL 6
REMARK VINA RESULT:      -6.5      0.815      2.484
REMARK  Name = 
REMARK  13 active torsions:
REMARK  status: ('A' for Active; 'I' for Inactive)
REMARK    1  A    between atoms: C_1  and  O_2
REMARK    2  A    between atoms: O_2  and  C_3
REMARK    3  A    between atoms: C_7  and  C_8
REMARK    4  A    between atoms: C_8  and  C_10
REMARK    5  A    between atoms: C_12  and  O_13
REMARK    6  A    between atoms: O_13  and  C_14
REMARK    7  A    between atoms: C_15  and  O_16
REMARK    8  A    between atoms: O_16  and  C_17
REMARK    9  A    between atoms: C_18  and  O_19
REMARK   10  A    between atoms: O_19  and  C_20
REMARK   11  A    between atoms: C_22  and  C_23
REMARK   12  A    between atoms: C_26  and  O_27
REMARK   13  A    between atoms: O_27  and  C_28
REMARK                            x       y       z     vdW  Elec       q    Type
REMARK                         _______ _______ _______ _____ _____    ______ ____
ROOT
ATOM      1  C   UNL     1       2.200   7.486  19.811  0.00  0.00    +0.000 A 
ATOM      2  C   UNL     1       1.896   7.974  18.539  0.00  0.00    +0.000 A 
ATOM      3  C   UNL     1       1.186   9.172  18.375  0.00  0.00    +0.000 A 
ATOM      4  C   UNL     1       0.726   9.868  19.510  0.00  0.00    +0.000 A 
ATOM      5  C   UNL     1      -0.052  11.049  19.757  0.00  0.00    +0.000 A 
ATOM      6  C   UNL     1      -0.090  11.200  21.142  0.00  0.00    +0.000 A 
ATOM      7  O   UNL     1       0.587  10.168  21.735  0.00  0.00    +0.000 OA
ATOM      8  C   UNL     1       1.068   9.362  20.754  0.00  0.00    +0.000 A 
ATOM      9  C   UNL     1       1.800   8.193  20.952  0.00  0.00    +0.000 A 
ENDROOT
BRANCH   6  10
ATOM     10  C   UNL     1      -0.695  12.147  22.076  0.00  0.00    +0.000 A 
ATOM     11  C   UNL     1      -1.877  11.871  22.770  0.00  0.00    +0.000 A 
ATOM     12  C   UNL     1      -2.409  12.809  23.654  0.00  0.00    +0.000 A 
ATOM     13  C   UNL     1      -1.728  13.997  23.840  0.00  0.00    +0.000 A 
ATOM     14  N   UNL     1      -0.585  14.309  23.198  0.00  0.00    +0.000 NA
ATOM     15  C   UNL     1      -0.103  13.381  22.333  0.00  0.00    +0.000 A 
BRANCH  13  16
ATOM     16  O   UNL     1      -2.273  14.881  24.749  0.00  0.00    +0.000 OA
ATOM     17  C   UNL     1      -3.416  15.556  24.236  0.00  0.00    +0.000 C 
ENDBRANCH  13  16
ENDBRANCH   6  10
BRANCH   1  19
ATOM     18  C   UNL     1       2.114   5.165  20.323  0.00  0.00    +0.000 C 
ATOM     19  O   UNL     1       2.890   6.331  20.068  0.00  0.00    +0.000 OA
ENDBRANCH   1  19
BRANCH   5  20
ATOM     20  C   UNL     1      -0.650  11.968  18.808  0.00  0.00    +0.000 C 
ATOM     21  O   UNL     1       0.001  12.847  18.250  0.00  0.00    +0.000 OA
BRANCH  20  22
ATOM     22  C   UNL     1      -2.087  11.830  18.444  0.00  0.00    +0.000 A 
ATOM     23  C   UNL     1      -3.018  12.284  19.371  0.00  0.00    +0.000 A 
ATOM     24  C   UNL     1      -4.376  12.287  19.060  0.00  0.00    +0.000 A 
ATOM     25  C   UNL     1      -4.813  11.796  17.809  0.00  0.00    +0.000 A 
ATOM     26  C   UNL     1      -3.873  11.281  16.889  0.00  0.00    +0.000 A 
ATOM     27  C   UNL     1      -2.514  11.278  17.232  0.00  0.00    +0.000 A 
BRANCH  24  28
ATOM     28  O   UNL     1      -5.333  12.765  19.925  0.00  0.00    +0.000 OA
ATOM     29  C   UNL     1      -5.063  14.032  20.524  0.00  0.00    +0.000 C 
ENDBRANCH  24  28
BRANCH  25  30
ATOM     30  O   UNL     1      -6.176  11.798  17.625  0.00  0.00    +0.000 OA
ATOM     31  C   UNL     1      -6.918  10.778  18.281  0.00  0.00    +0.000 C 
ENDBRANCH  25  30
BRANCH  26  32
ATOM     32  O   UNL     1      -4.336  10.788  15.698  0.00  0.00    +0.000 OA
ATOM     33  C   UNL     1      -3.393  10.292  14.755  0.00  0.00    +0.000 C 
ENDBRANCH  26  32
ENDBRANCH  20  22
ENDBRANCH   5  20
TORSDOF 8
ENDMDL
MODEL 7
REMARK VINA RESULT:      -6.5      2.683      4.856
REMARK  Name = 
REMARK  13 active torsions:
REMARK  status: ('A' for Active; 'I' for Inactive)
REMARK    1  A    between atoms: C_1  and  O_2
REMARK    2  A    between atoms: O_2  and  C_3
REMARK    3  A    between atoms: C_7  and  C_8
REMARK    4  A    between atoms: C_8  and  C_10
REMARK    5  A    between atoms: C_12  and  O_13
REMARK    6  A    between atoms: O_13  and  C_14
REMARK    7  A    between atoms: C_15  and  O_16
REMARK    8  A    between atoms: O_16  and  C_17
REMARK    9  A    between atoms: C_18  and  O_19
REMARK   10  A    between atoms: O_19  and  C_20
REMARK   11  A    between atoms: C_22  and  C_23
REMARK   12  A    between atoms: C_26  and  O_27
REMARK   13  A    between atoms: O_27  and  C_28
REMARK                            x       y       z     vdW  Elec       q    Type
REMARK                         _______ _______ _______ _____ _____    ______ ____
ROOT
ATOM      1  C   UNL     1       2.151   7.536  19.316  0.00  0.00    +0.000 A 
ATOM      2  C   UNL     1       2.024   8.207  18.100  0.00  0.00    +0.000 A 
ATOM      3  C   UNL     1       1.393   9.458  18.027  0.00  0.00    +0.000 A 
ATOM      4  C   UNL     1       0.832  10.020  19.190  0.00  0.00    +0.000 A 
ATOM      5  C   UNL     1       0.083  11.203  19.512  0.00  0.00    +0.000 A 
ATOM      6  C   UNL     1      -0.113  11.168  20.891  0.00  0.00    +0.000 A 
ATOM      7  O   UNL     1       0.442  10.027  21.406  0.00  0.00    +0.000 OA
ATOM      8  C   UNL     1       0.999   9.332  20.381  0.00  0.00    +0.000 A 
ATOM      9  C   UNL     1       1.650   8.105  20.493  0.00  0.00    +0.000 A 
ENDROOT
BRANCH   6  10
ATOM     10  C   UNL     1      -0.783  12.015  21.876  0.00  0.00    +0.000 A 
ATOM     11  C   UNL     1      -0.337  13.303  22.191  0.00  0.00    +0.000 A 
ATOM     12  C   UNL     1      -1.016  14.070  23.136  0.00  0.00    +0.000 A 
ATOM     13  C   UNL     1      -2.145  13.536  23.728  0.00  0.00    +0.000 A 
ATOM     14  N   UNL     1      -2.617  12.302  23.457  0.00  0.00    +0.000 NA
ATOM     15  C   UNL     1      -1.922  11.576  22.545  0.00  0.00    +0.000 A 
BRANCH  13  16
ATOM     16  O   UNL     1      -2.806  14.344  24.632  0.00  0.00    +0.000 OA
ATOM     17  C   UNL     1      -2.126  15.574  24.862  0.00  0.00    +0.000 C 
ENDBRANCH  13  16
ENDBRANCH   6  10
BRANCH   1  19
ATOM     18  C   UNL     1       2.126   5.410  20.383  0.00  0.00    +0.000 C 
ATOM     19  O   UNL     1       2.754   6.316  19.483  0.00  0.00    +0.000 OA
ENDBRANCH   1  19
BRANCH   5  20
ATOM     20  C   UNL     1      -0.356  12.276  18.641  0.00  0.00    +0.000 C 
ATOM     21  O   UNL     1      -1.338  12.165  17.912  0.00  0.00    +0.000 OA
BRANCH  20  22
ATOM     22  C   UNL     1       0.359  13.581  18.650  0.00  0.00    +0.000 A 
ATOM     23  C   UNL     1      -0.425  14.729  18.676  0.00  0.00    +0.000 A 
ATOM     24  C   UNL     1       0.169  15.984  18.792  0.00  0.00    +0.000 A 
ATOM     25  C   UNL     1       1.576  16.093  18.850  0.00  0.00    +0.000 A 
ATOM     26  C   UNL     1       2.376  14.932  18.765  0.00  0.00    +0.000 A 
ATOM     27  C   UNL     1       1.754  13.683  18.636  0.00  0.00    +0.000 A 
BRANCH  24  28
ATOM     28  O   UNL     1      -0.564  17.146  18.865  0.00  0.00    +0.000 OA
ATOM     29  C   UNL     1      -1.373  17.307  20.030  0.00  0.00    +0.000 C 
ENDBRANCH  24  28
BRANCH  25  30
ATOM     30  O   UNL     1       2.060  17.380  18.914  0.00  0.00    +0.000 OA
ATOM     31  C   UNL     1       2.370  17.889  20.205  0.00  0.00    +0.000 C 
ENDBRANCH  25  30
BRANCH  26  32
ATOM     32  O   UNL     1       3.738  15.080  18.798  0.00  0.00    +0.000 OA
ATOM     33  C   UNL     1       4.420  14.820  20.018  0.00  0.00    +0.000 C 
ENDBRANCH  26  32
ENDBRANCH  20  22
ENDBRANCH   5  20
TORSDOF 8
ENDMDL
MODEL 8
REMARK VINA RESULT:      -6.4      2.897      5.032
REMARK  Name = 
REMARK  13 active torsions:
REMARK  status: ('A' for Active; 'I' for Inactive)
REMARK    1  A    between atoms: C_1  and  O_2
REMARK    2  A    between atoms: O_2  and  C_3
REMARK    3  A    between atoms: C_7  and  C_8
REMARK    4  A    between atoms: C_8  and  C_10
REMARK    5  A    between atoms: C_12  and  O_13
REMARK    6  A    between atoms: O_13  and  C_14
REMARK    7  A    between atoms: C_15  and  O_16
REMARK    8  A    between atoms: O_16  and  C_17
REMARK    9  A    between atoms: C_18  and  O_19
REMARK   10  A    between atoms: O_19  and  C_20
REMARK   11  A    between atoms: C_22  and  C_23
REMARK   12  A    between atoms: C_26  and  O_27
REMARK   13  A    between atoms: O_27  and  C_28
REMARK                            x       y       z     vdW  Elec       q    Type
REMARK                         _______ _______ _______ _____ _____    ______ ____
ROOT
ATOM      1  C   UNL     1       2.110   7.595  19.525  0.00  0.00    +0.000 A 
ATOM      2  C   UNL     1       2.245   8.325  18.344  0.00  0.00    +0.000 A 
ATOM      3  C   UNL     1       1.617   9.569  18.187  0.00  0.00    +0.000 A 
ATOM      4  C   UNL     1       0.793  10.065  19.216  0.00  0.00    +0.000 A 
ATOM      5  C   UNL     1      -0.038  11.220  19.413  0.00  0.00    +0.000 A 
ATOM      6  C   UNL     1      -0.541  11.112  20.708  0.00  0.00    +0.000 A 
ATOM      7  O   UNL     1      -0.089   9.954  21.283  0.00  0.00    +0.000 OA
ATOM      8  C   UNL     1       0.703   9.320  20.381  0.00  0.00    +0.000 A 
ATOM      9  C   UNL     1       1.342   8.097  20.582  0.00  0.00    +0.000 A 
ENDROOT
BRANCH   6  10
ATOM     10  C   UNL     1      -1.436  11.900  21.552  0.00  0.00    +0.000 A 
ATOM     11  C   UNL     1      -2.590  12.517  21.059  0.00  0.00    +0.000 A 
ATOM     12  C   UNL     1      -3.413  13.254  21.909  0.00  0.00    +0.000 A 
ATOM     13  C   UNL     1      -3.071  13.336  23.246  0.00  0.00    +0.000 A 
ATOM     14  N   UNL     1      -1.972  12.758  23.772  0.00  0.00    +0.000 NA
ATOM     15  C   UNL     1      -1.185  12.062  22.913  0.00  0.00    +0.000 A 
BRANCH  13  16
ATOM     16  O   UNL     1      -3.932  14.046  24.058  0.00  0.00    +0.000 OA
ATOM     17  C   UNL     1      -5.175  14.325  23.422  0.00  0.00    +0.000 C 
ENDBRANCH  13  16
ENDBRANCH   6  10
BRANCH   1  19
ATOM     18  C   UNL     1       1.899   5.421  20.467  0.00  0.00    +0.000 C 
ATOM     19  O   UNL     1       2.689   6.377  19.769  0.00  0.00    +0.000 OA
ENDBRANCH   1  19
BRANCH   5  20
ATOM     20  C   UNL     1      -0.295  12.329  18.515  0.00  0.00    +0.000 C 
ATOM     21  O   UNL     1      -1.199  12.301  17.685  0.00  0.00    +0.000 OA
BRANCH  20  22
ATOM     22  C   UNL     1       0.517  13.572  18.618  0.00  0.00    +0.000 A 
ATOM     23  C   UNL     1      -0.177  14.776  18.662  0.00  0.00    +0.000 A 
ATOM     24  C   UNL     1       0.504  15.974  18.863  0.00  0.00    +0.000 A 
ATOM     25  C   UNL     1       1.912  15.970  18.991  0.00  0.00    +0.000 A 
ATOM     26  C   UNL     1       2.623  14.754  18.889  0.00  0.00    +0.000 A 
ATOM     27  C   UNL     1       1.915  13.564  18.673  0.00  0.00    +0.000 A 
BRANCH  24  28
ATOM     28  O   UNL     1      -0.140  17.186  18.957  0.00  0.00    +0.000 OA
ATOM     29  C   UNL     1      -0.683  17.705  17.744  0.00  0.00    +0.000 C 
ENDBRANCH  24  28
BRANCH  25  30
ATOM     30  O   UNL     1       2.488  17.210  19.137  0.00  0.00    +0.000 OA
ATOM     31  C   UNL     1       2.851  17.602  20.455  0.00  0.00    +0.000 C 
ENDBRANCH  25  30
BRANCH  26  32
ATOM     32  O   UNL     1       3.989  14.793  18.991  0.00  0.00    +0.000 OA
ATOM     33  C   UNL     1       4.753  14.978  17.805  0.00  0.00    +0.000 C 
ENDBRANCH  26  32
ENDBRANCH  20  22
ENDBRANCH   5  20
TORSDOF 8
ENDMDL
MODEL 9
REMARK VINA RESULT:      -6.4      0.800      2.420
REMARK  Name = 
REMARK  13 active torsions:
REMARK  status: ('A' for Active; 'I' for Inactive)
REMARK    1  A    between atoms: C_1  and  O_2
REMARK    2  A    between atoms: O_2  and  C_3
REMARK    3  A    between atoms: C_7  and  C_8
REMARK    4  A    between atoms: C_8  and  C_10
REMARK    5  A    between atoms: C_12  and  O_13
REMARK    6  A    between atoms: O_13  and  C_14
REMARK    7  A    between atoms: C_15  and  O_16
REMARK    8  A    between atoms: O_16  and  C_17
REMARK    9  A    between atoms: C_18  and  O_19
REMARK   10  A    between atoms: O_19  and  C_20
REMARK   11  A    between atoms: C_22  and  C_23
REMARK   12  A    between atoms: C_26  and  O_27
REMARK   13  A    between atoms: O_27  and  C_28
REMARK                            x       y       z     vdW  Elec       q    Type
REMARK                         _______ _______ _______ _____ _____    ______ ____
ROOT
ATOM      1  C   UNL     1       1.769   7.917  20.407  0.00  0.00    +0.000 A 
ATOM      2  C   UNL     1       1.505   8.429  19.136  0.00  0.00    +0.000 A 
ATOM      3  C   UNL     1       0.776   9.617  18.972  0.00  0.00    +0.000 A 
ATOM      4  C   UNL     1       0.257  10.274  20.104  0.00  0.00    +0.000 A 
ATOM      5  C   UNL     1      -0.556  11.433  20.347  0.00  0.00    +0.000 A 
ATOM      6  C   UNL     1      -0.650  11.550  21.733  0.00  0.00    +0.000 A 
ATOM      7  O   UNL     1       0.025  10.518  22.328  0.00  0.00    +0.000 OA
ATOM      8  C   UNL     1       0.560   9.746  21.348  0.00  0.00    +0.000 A 
ATOM      9  C   UNL     1       1.310   8.587  21.548  0.00  0.00    +0.000 A 
ENDROOT
BRANCH   6  10
ATOM     10  C   UNL     1      -1.311  12.460  22.664  0.00  0.00    +0.000 A 
ATOM     11  C   UNL     1      -0.791  13.717  22.988  0.00  0.00    +0.000 A 
ATOM     12  C   UNL     1      -1.465  14.549  23.881  0.00  0.00    +0.000 A 
ATOM     13  C   UNL     1      -2.663  14.110  24.412  0.00  0.00    +0.000 A 
ATOM     14  N   UNL     1      -3.208  12.909  24.130  0.00  0.00    +0.000 NA
ATOM     15  C   UNL     1      -2.518  12.118  23.270  0.00  0.00    +0.000 A 
BRANCH  13  16
ATOM     16  O   UNL     1      -3.314  14.980  25.264  0.00  0.00    +0.000 OA
ATOM     17  C   UNL     1      -4.237  15.822  24.582  0.00  0.00    +0.000 C 
ENDBRANCH  13  16
ENDBRANCH   6  10
BRANCH   1  19
ATOM     18  C   UNL     1       2.910   6.022  19.533  0.00  0.00    +0.000 C 
ATOM     19  O   UNL     1       2.473   6.770  20.663  0.00  0.00    +0.000 OA
ENDBRANCH   1  19
BRANCH   5  20
ATOM     20  C   UNL     1      -1.136  12.363  19.398  0.00  0.00    +0.000 C 
ATOM     21  O   UNL     1      -0.517  13.335  18.974  0.00  0.00    +0.000 OA
BRANCH  20  22
ATOM     22  C   UNL     1      -2.504  12.124  18.864  0.00  0.00    +0.000 A 
ATOM     23  C   UNL     1      -3.570  12.440  19.699  0.00  0.00    +0.000 A 
ATOM     24  C   UNL     1      -4.880  12.345  19.235  0.00  0.00    +0.000 A 
ATOM     25  C   UNL     1      -5.129  11.892  17.920  0.00  0.00    +0.000 A 
ATOM     26  C   UNL     1      -4.051  11.515  17.090  0.00  0.00    +0.000 A 
ATOM     27  C   UNL     1      -2.743  11.609  17.586  0.00  0.00    +0.000 A 
BRANCH  24  28
ATOM     28  O   UNL     1      -5.966  12.687  20.007  0.00  0.00    +0.000 OA
ATOM     29  C   UNL     1      -5.708  13.564  21.103  0.00  0.00    +0.000 C 
ENDBRANCH  24  28
BRANCH  25  30
ATOM     30  O   UNL     1      -6.459  11.788  17.581  0.00  0.00    +0.000 OA
ATOM     31  C   UNL     1      -7.062  12.928  16.981  0.00  0.00    +0.000 C 
ENDBRANCH  25  30
BRANCH  26  32
ATOM     32  O   UNL     1      -4.333  11.055  15.831  0.00  0.00    +0.000 OA
ATOM     33  C   UNL     1      -3.430  10.137  15.225  0.00  0.00    +0.000 C 
ENDBRANCH  26  32
ENDBRANCH  20  22
ENDBRANCH   5  20
TORSDOF 8
ENDMDL
