MODEL 1
REMARK VINA RESULT:      -7.8      0.000      0.000
REMARK  Name = 
REMARK  7 active torsions:
REMARK  status: ('A' for Active; 'I' for Inactive)
REMARK    1  A    between atoms: C_1  and  C_2
REMARK    2  A    between atoms: C_2  and  C_3
REMARK    3  A    between atoms: C_6  and  O_7
REMARK    4  A    between atoms: C_8  and  C_9
REMARK    5  A    between atoms: C_9  and  C_11
REMARK    6  A    between atoms: C_12  and  C_13
REMARK    7  A    between atoms: C_16  and  N_17
REMARK                            x       y       z     vdW  Elec       q    Type
REMARK                         _______ _______ _______ _____ _____    ______ ____
ROOT
ATOM      1  C   UNL     1       6.743   4.965  15.490  0.00  0.00    +0.000 C 
ATOM      2  O   UNL     1       7.430   5.871  15.957  0.00  0.00    +0.000 OA
ENDROOT
BRANCH   1   7
ATOM      3  C   UNL     1       5.721   3.509  12.151  0.00  0.00    +0.000 A 
ATOM      4  C   UNL     1       6.696   4.033  11.297  0.00  0.00    +0.000 A 
ATOM      5  C   UNL     1       7.702   4.864  11.792  0.00  0.00    +0.000 A 
ATOM      6  C   UNL     1       7.739   5.185  13.152  0.00  0.00    +0.000 A 
ATOM      7  C   UNL     1       6.761   4.689  14.025  0.00  0.00    +0.000 A 
ATOM      8  C   UNL     1       5.760   3.844  13.514  0.00  0.00    +0.000 A 
BRANCH   3  10
ATOM      9  C   UNL     1       3.727   3.357  10.632  0.00  0.00    +0.000 C 
ATOM     10  C   UNL     1       4.637   2.616  11.602  0.00  0.00    +0.000 C 
ENDBRANCH   3  10
BRANCH   6  11
ATOM     11  O   UNL     1       8.765   5.961  13.613  0.00  0.00    +0.000 OA
ATOM     12  H   UNL     1       8.679   6.072  14.576  0.00  0.00    +0.000 HD
ENDBRANCH   6  11
ENDBRANCH   1   7
BRANCH   1  13
ATOM     13  C   UNL     1       5.941   4.075  16.373  0.00  0.00    +0.000 C 
ATOM     14  C   UNL     1       4.930   4.571  17.101  0.00  0.00    +0.000 C 
BRANCH  14  15
ATOM     15  C   UNL     1       4.177   3.718  17.956  0.00  0.00    +0.000 A 
ATOM     16  C   UNL     1       2.976   3.058  17.704  0.00  0.00    +0.000 A 
ATOM     17  C   UNL     1       2.605   2.343  18.873  0.00  0.00    +0.000 A 
ATOM     18  C   UNL     1       3.604   2.603  19.776  0.00  0.00    +0.000 A 
ATOM     19  O   UNL     1       4.552   3.413  19.250  0.00  0.00    +0.000 OA
BRANCH  18  20
ATOM     20  N   UNL     1       3.806   2.186  21.126  0.00  0.00    +0.000 N 
ATOM     21  O   UNL     1       4.900   1.663  21.380  0.00  0.00    +0.000 OA
ATOM     22  O   UNL     1       2.888   2.373  21.936  0.00  0.00    +0.000 OA
ENDBRANCH  18  20
ENDBRANCH  14  15
ENDBRANCH   1  13
TORSDOF 6
ENDMDL
MODEL 2
REMARK VINA RESULT:      -7.6      1.052      1.325
REMARK  Name = 
REMARK  7 active torsions:
REMARK  status: ('A' for Active; 'I' for Inactive)
REMARK    1  A    between atoms: C_1  and  C_2
REMARK    2  A    between atoms: C_2  and  C_3
REMARK    3  A    between atoms: C_6  and  O_7
REMARK    4  A    between atoms: C_8  and  C_9
REMARK    5  A    between atoms: C_9  and  C_11
REMARK    6  A    between atoms: C_12  and  C_13
REMARK    7  A    between atoms: C_16  and  N_17
REMARK                            x       y       z     vdW  Elec       q    Type
REMARK                         _______ _______ _______ _____ _____    ______ ____
ROOT
ATOM      1  C   UNL     1       6.789   4.634  15.687  0.00  0.00    +0.000 C 
ATOM      2  O   UNL     1       7.857   4.648  16.296  0.00  0.00    +0.000 OA
ENDROOT
BRANCH   1   7
ATOM      3  C   UNL     1       5.727   3.491  12.240  0.00  0.00    +0.000 A 
ATOM      4  C   UNL     1       6.655   4.143  11.421  0.00  0.00    +0.000 A 
ATOM      5  C   UNL     1       7.641   4.960  11.976  0.00  0.00    +0.000 A 
ATOM      6  C   UNL     1       7.705   5.139  13.361  0.00  0.00    +0.000 A 
ATOM      7  C   UNL     1       6.774   4.513  14.202  0.00  0.00    +0.000 A 
ATOM      8  C   UNL     1       5.794   3.683  13.630  0.00  0.00    +0.000 A 
BRANCH   3  10
ATOM      9  C   UNL     1       3.675   3.417  10.796  0.00  0.00    +0.000 C 
ATOM     10  C   UNL     1       4.665   2.614  11.627  0.00  0.00    +0.000 C 
ENDBRANCH   3  10
BRANCH   6  11
ATOM     11  O   UNL     1       8.712   5.907  13.875  0.00  0.00    +0.000 OA
ATOM     12  H   UNL     1       9.491   5.849  13.295  0.00  0.00    +0.000 HD
ENDBRANCH   6  11
ENDBRANCH   1   7
BRANCH   1  13
ATOM     13  C   UNL     1       5.489   4.658  16.413  0.00  0.00    +0.000 C 
ATOM     14  C   UNL     1       5.406   4.208  17.674  0.00  0.00    +0.000 C 
BRANCH  14  15
ATOM     15  C   UNL     1       4.158   4.218  18.356  0.00  0.00    +0.000 A 
ATOM     16  C   UNL     1       3.030   5.001  18.116  0.00  0.00    +0.000 A 
ATOM     17  C   UNL     1       2.040   4.666  19.077  0.00  0.00    +0.000 A 
ATOM     18  C   UNL     1       2.617   3.691  19.850  0.00  0.00    +0.000 A 
ATOM     19  O   UNL     1       3.873   3.405  19.436  0.00  0.00    +0.000 OA
BRANCH  18  20
ATOM     20  N   UNL     1       2.140   2.958  20.978  0.00  0.00    +0.000 N 
ATOM     21  O   UNL     1       0.922   2.734  21.011  0.00  0.00    +0.000 OA
ATOM     22  O   UNL     1       2.964   2.601  21.831  0.00  0.00    +0.000 OA
ENDBRANCH  18  20
ENDBRANCH  14  15
ENDBRANCH   1  13
TORSDOF 6
ENDMDL
MODEL 3
REMARK VINA RESULT:      -7.6      1.500      1.708
REMARK  Name = 
REMARK  7 active torsions:
REMARK  status: ('A' for Active; 'I' for Inactive)
REMARK    1  A    between atoms: C_1  and  C_2
REMARK    2  A    between atoms: C_2  and  C_3
REMARK    3  A    between atoms: C_6  and  O_7
REMARK    4  A    between atoms: C_8  and  C_9
REMARK    5  A    between atoms: C_9  and  C_11
REMARK    6  A    between atoms: C_12  and  C_13
REMARK    7  A    between atoms: C_16  and  N_17
REMARK                            x       y       z     vdW  Elec       q    Type
REMARK                         _______ _______ _______ _____ _____    ______ ____
ROOT
ATOM      1  C   UNL     1       6.720   4.678  15.596  0.00  0.00    +0.000 C 
ATOM      2  O   UNL     1       7.782   4.642  16.212  0.00  0.00    +0.000 OA
ENDROOT
BRANCH   1   7
ATOM      3  C   UNL     1       5.661   3.497  12.160  0.00  0.00    +0.000 A 
ATOM      4  C   UNL     1       6.595   4.133  11.336  0.00  0.00    +0.000 A 
ATOM      5  C   UNL     1       7.583   4.952  11.883  0.00  0.00    +0.000 A 
ATOM      6  C   UNL     1       7.645   5.148  13.266  0.00  0.00    +0.000 A 
ATOM      7  C   UNL     1       6.708   4.538  14.112  0.00  0.00    +0.000 A 
ATOM      8  C   UNL     1       5.725   3.706  13.548  0.00  0.00    +0.000 A 
BRANCH   3  10
ATOM      9  C   UNL     1       3.632   3.411  10.684  0.00  0.00    +0.000 C 
ATOM     10  C   UNL     1       4.595   2.618  11.556  0.00  0.00    +0.000 C 
ENDBRANCH   3  10
BRANCH   6  11
ATOM     11  O   UNL     1       8.655   5.916  13.773  0.00  0.00    +0.000 OA
ATOM     12  H   UNL     1       9.314   5.343  14.199  0.00  0.00    +0.000 HD
ENDBRANCH   6  11
ENDBRANCH   1   7
BRANCH   1  13
ATOM     13  C   UNL     1       5.418   4.782  16.311  0.00  0.00    +0.000 C 
ATOM     14  C   UNL     1       4.898   3.715  16.935  0.00  0.00    +0.000 C 
BRANCH  14  15
ATOM     15  C   UNL     1       3.646   3.817  17.603  0.00  0.00    +0.000 A 
ATOM     16  C   UNL     1       2.376   3.460  17.153  0.00  0.00    +0.000 A 
ATOM     17  C   UNL     1       1.437   3.774  18.170  0.00  0.00    +0.000 A 
ATOM     18  C   UNL     1       2.186   4.302  19.190  0.00  0.00    +0.000 A 
ATOM     19  O   UNL     1       3.502   4.332  18.878  0.00  0.00    +0.000 OA
BRANCH  18  20
ATOM     20  N   UNL     1       1.829   4.812  20.474  0.00  0.00    +0.000 N 
ATOM     21  O   UNL     1       1.814   6.045  20.589  0.00  0.00    +0.000 OA
ATOM     22  O   UNL     1       1.564   3.999  21.370  0.00  0.00    +0.000 OA
ENDBRANCH  18  20
ENDBRANCH  14  15
ENDBRANCH   1  13
TORSDOF 6
ENDMDL
MODEL 4
REMARK VINA RESULT:      -7.6      1.215      1.267
REMARK  Name = 
REMARK  7 active torsions:
REMARK  status: ('A' for Active; 'I' for Inactive)
REMARK    1  A    between atoms: C_1  and  C_2
REMARK    2  A    between atoms: C_2  and  C_3
REMARK    3  A    between atoms: C_6  and  O_7
REMARK    4  A    between atoms: C_8  and  C_9
REMARK    5  A    between atoms: C_9  and  C_11
REMARK    6  A    between atoms: C_12  and  C_13
REMARK    7  A    between atoms: C_16  and  N_17
REMARK                            x       y       z     vdW  Elec       q    Type
REMARK                         _______ _______ _______ _____ _____    ______ ____
ROOT
ATOM      1  C   UNL     1       6.692   4.976  15.480  0.00  0.00    +0.000 C 
ATOM      2  O   UNL     1       7.405   5.857  15.956  0.00  0.00    +0.000 OA
ENDROOT
BRANCH   1   7
ATOM      3  C   UNL     1       5.727   3.484  12.140  0.00  0.00    +0.000 A 
ATOM      4  C   UNL     1       6.716   4.001  11.296  0.00  0.00    +0.000 A 
ATOM      5  C   UNL     1       7.712   4.839  11.800  0.00  0.00    +0.000 A 
ATOM      6  C   UNL     1       7.726   5.174  13.157  0.00  0.00    +0.000 A 
ATOM      7  C   UNL     1       6.734   4.686  14.019  0.00  0.00    +0.000 A 
ATOM      8  C   UNL     1       5.743   3.833  13.500  0.00  0.00    +0.000 A 
BRANCH   3  10
ATOM      9  C   UNL     1       3.645   3.355  10.743  0.00  0.00    +0.000 C 
ATOM     10  C   UNL     1       4.654   2.584  11.582  0.00  0.00    +0.000 C 
ENDBRANCH   3  10
BRANCH   6  11
ATOM     11  O   UNL     1       8.743   5.957  13.627  0.00  0.00    +0.000 OA
ATOM     12  H   UNL     1       9.000   5.653  14.514  0.00  0.00    +0.000 HD
ENDBRANCH   6  11
ENDBRANCH   1   7
BRANCH   1  13
ATOM     13  C   UNL     1       5.830   4.130  16.350  0.00  0.00    +0.000 C 
ATOM     14  C   UNL     1       4.822   4.676  17.047  0.00  0.00    +0.000 C 
BRANCH  14  15
ATOM     15  C   UNL     1       4.012   3.864  17.889  0.00  0.00    +0.000 A 
ATOM     16  C   UNL     1       3.708   2.509  17.777  0.00  0.00    +0.000 A 
ATOM     17  C   UNL     1       2.841   2.156  18.845  0.00  0.00    +0.000 A 
ATOM     18  C   UNL     1       2.667   3.316  19.555  0.00  0.00    +0.000 A 
ATOM     19  O   UNL     1       3.359   4.343  19.009  0.00  0.00    +0.000 OA
BRANCH  18  20
ATOM     20  N   UNL     1       1.906   3.617  20.724  0.00  0.00    +0.000 N 
ATOM     21  O   UNL     1       0.904   2.915  20.921  0.00  0.00    +0.000 OA
ATOM     22  O   UNL     1       2.295   4.543  21.449  0.00  0.00    +0.000 OA
ENDBRANCH  18  20
ENDBRANCH  14  15
ENDBRANCH   1  13
TORSDOF 6
ENDMDL
MODEL 5
REMARK VINA RESULT:      -7.5      1.679      1.894
REMARK  Name = 
REMARK  7 active torsions:
REMARK  status: ('A' for Active; 'I' for Inactive)
REMARK    1  A    between atoms: C_1  and  C_2
REMARK    2  A    between atoms: C_2  and  C_3
REMARK    3  A    between atoms: C_6  and  O_7
REMARK    4  A    between atoms: C_8  and  C_9
REMARK    5  A    between atoms: C_9  and  C_11
REMARK    6  A    between atoms: C_12  and  C_13
REMARK    7  A    between atoms: C_16  and  N_17
REMARK                            x       y       z     vdW  Elec       q    Type
REMARK                         _______ _______ _______ _____ _____    ______ ____
ROOT
ATOM      1  C   UNL     1       6.560   4.553  15.607  0.00  0.00    +0.000 C 
ATOM      2  O   UNL     1       7.581   4.761  16.258  0.00  0.00    +0.000 OA
ENDROOT
BRANCH   1   7
ATOM      3  C   UNL     1       5.695   3.416  12.103  0.00  0.00    +0.000 A 
ATOM      4  C   UNL     1       6.665   4.073  11.339  0.00  0.00    +0.000 A 
ATOM      5  C   UNL     1       7.616   4.892  11.949  0.00  0.00    +0.000 A 
ATOM      6  C   UNL     1       7.602   5.067  13.336  0.00  0.00    +0.000 A 
ATOM      7  C   UNL     1       6.628   4.436  14.123  0.00  0.00    +0.000 A 
ATOM      8  C   UNL     1       5.684   3.605  13.495  0.00  0.00    +0.000 A 
BRANCH   3  10
ATOM      9  C   UNL     1       3.585   3.353  10.744  0.00  0.00    +0.000 C 
ATOM     10  C   UNL     1       4.671   2.537  11.431  0.00  0.00    +0.000 C 
ENDBRANCH   3  10
BRANCH   6  11
ATOM     11  O   UNL     1       8.576   5.837  13.908  0.00  0.00    +0.000 OA
ATOM     12  H   UNL     1       8.579   5.692  14.869  0.00  0.00    +0.000 HD
ENDBRANCH   6  11
ENDBRANCH   1   7
BRANCH   1  13
ATOM     13  C   UNL     1       5.249   4.337  16.279  0.00  0.00    +0.000 C 
ATOM     14  C   UNL     1       4.834   5.171  17.245  0.00  0.00    +0.000 C 
BRANCH  14  15
ATOM     15  C   UNL     1       3.588   4.950  17.894  0.00  0.00    +0.000 A 
ATOM     16  C   UNL     1       2.658   5.881  18.353  0.00  0.00    +0.000 A 
ATOM     17  C   UNL     1       1.581   5.177  18.954  0.00  0.00    +0.000 A 
ATOM     18  C   UNL     1       1.911   3.852  18.825  0.00  0.00    +0.000 A 
ATOM     19  O   UNL     1       3.097   3.693  18.193  0.00  0.00    +0.000 OA
BRANCH  18  20
ATOM     20  N   UNL     1       1.247   2.657  19.233  0.00  0.00    +0.000 N 
ATOM     21  O   UNL     1       0.334   2.259  18.497  0.00  0.00    +0.000 OA
ATOM     22  O   UNL     1       1.624   2.109  20.278  0.00  0.00    +0.000 OA
ENDBRANCH  18  20
ENDBRANCH  14  15
ENDBRANCH   1  13
TORSDOF 6
ENDMDL
MODEL 6
REMARK VINA RESULT:      -7.5      3.484      7.402
REMARK  Name = 
REMARK  7 active torsions:
REMARK  status: ('A' for Active; 'I' for Inactive)
REMARK    1  A    between atoms: C_1  and  C_2
REMARK    2  A    between atoms: C_2  and  C_3
REMARK    3  A    between atoms: C_6  and  O_7
REMARK    4  A    between atoms: C_8  and  C_9
REMARK    5  A    between atoms: C_9  and  C_11
REMARK    6  A    between atoms: C_12  and  C_13
REMARK    7  A    between atoms: C_16  and  N_17
REMARK                            x       y       z     vdW  Elec       q    Type
REMARK                         _______ _______ _______ _____ _____    ______ ____
ROOT
ATOM      1  C   UNL     1       6.091   4.529  18.020  0.00  0.00    +0.000 C 
ATOM      2  O   UNL     1       7.093   4.821  18.670  0.00  0.00    +0.000 OA
ENDROOT
BRANCH   1   7
ATOM      3  C   UNL     1       2.899   6.186  19.196  0.00  0.00    +0.000 A 
ATOM      4  C   UNL     1       2.215   5.114  19.778  0.00  0.00    +0.000 A 
ATOM      5  C   UNL     1       2.781   3.839  19.800  0.00  0.00    +0.000 A 
ATOM      6  C   UNL     1       4.039   3.621  19.233  0.00  0.00    +0.000 A 
ATOM      7  C   UNL     1       4.737   4.674  18.626  0.00  0.00    +0.000 A 
ATOM      8  C   UNL     1       4.160   5.956  18.621  0.00  0.00    +0.000 A 
BRANCH   3  10
ATOM      9  C   UNL     1       2.257   8.152  17.774  0.00  0.00    +0.000 C 
ATOM     10  C   UNL     1       2.274   7.558  19.175  0.00  0.00    +0.000 C 
ENDBRANCH   3  10
BRANCH   6  11
ATOM     11  O   UNL     1       4.586   2.371  19.315  0.00  0.00    +0.000 OA
ATOM     12  H   UNL     1       5.555   2.444  19.361  0.00  0.00    +0.000 HD
ENDBRANCH   6  11
ENDBRANCH   1   7
BRANCH   1  13
ATOM     13  C   UNL     1       6.194   4.101  16.598  0.00  0.00    +0.000 C 
ATOM     14  C   UNL     1       6.537   4.982  15.646  0.00  0.00    +0.000 C 
BRANCH  14  15
ATOM     15  C   UNL     1       6.618   4.570  14.287  0.00  0.00    +0.000 A 
ATOM     16  C   UNL     1       7.504   4.982  13.293  0.00  0.00    +0.000 A 
ATOM     17  C   UNL     1       7.173   4.305  12.090  0.00  0.00    +0.000 A 
ATOM     18  C   UNL     1       6.102   3.512  12.416  0.00  0.00    +0.000 A 
ATOM     19  O   UNL     1       5.759   3.649  13.717  0.00  0.00    +0.000 OA
BRANCH  18  20
ATOM     20  N   UNL     1       5.314   2.606  11.646  0.00  0.00    +0.000 N 
ATOM     21  O   UNL     1       4.186   3.001  11.320  0.00  0.00    +0.000 OA
ATOM     22  O   UNL     1       5.805   1.505  11.361  0.00  0.00    +0.000 OA
ENDBRANCH  18  20
ENDBRANCH  14  15
ENDBRANCH   1  13
TORSDOF 6
ENDMDL
MODEL 7
REMARK VINA RESULT:      -7.4      3.447      7.471
REMARK  Name = 
REMARK  7 active torsions:
REMARK  status: ('A' for Active; 'I' for Inactive)
REMARK    1  A    between atoms: C_1  and  C_2
REMARK    2  A    between atoms: C_2  and  C_3
REMARK    3  A    between atoms: C_6  and  O_7
REMARK    4  A    between atoms: C_8  and  C_9
REMARK    5  A    between atoms: C_9  and  C_11
REMARK    6  A    between atoms: C_12  and  C_13
REMARK    7  A    between atoms: C_16  and  N_17
REMARK                            x       y       z     vdW  Elec       q    Type
REMARK                         _______ _______ _______ _____ _____    ______ ____
ROOT
ATOM      1  C   UNL     1       5.775   4.607  17.961  0.00  0.00    +0.000 C 
ATOM      2  O   UNL     1       6.806   4.490  18.620  0.00  0.00    +0.000 OA
ENDROOT
BRANCH   1   7
ATOM      3  C   UNL     1       2.757   4.753  20.239  0.00  0.00    +0.000 A 
ATOM      4  C   UNL     1       2.162   5.958  19.852  0.00  0.00    +0.000 A 
ATOM      5  C   UNL     1       2.729   6.740  18.845  0.00  0.00    +0.000 A 
ATOM      6  C   UNL     1       3.906   6.324  18.215  0.00  0.00    +0.000 A 
ATOM      7  C   UNL     1       4.533   5.131  18.598  0.00  0.00    +0.000 A 
ATOM      8  C   UNL     1       3.944   4.348  19.606  0.00  0.00    +0.000 A 
BRANCH   3  10
ATOM      9  C   UNL     1       1.228   2.835  20.771  0.00  0.00    +0.000 C 
ATOM     10  C   UNL     1       2.136   3.920  21.331  0.00  0.00    +0.000 C 
ENDBRANCH   3  10
BRANCH   6  11
ATOM     11  O   UNL     1       4.409   7.088  17.199  0.00  0.00    +0.000 OA
ATOM     12  H   UNL     1       5.181   7.585  17.520  0.00  0.00    +0.000 HD
ENDBRANCH   6  11
ENDBRANCH   1   7
BRANCH   1  13
ATOM     13  C   UNL     1       5.755   4.305  16.503  0.00  0.00    +0.000 C 
ATOM     14  C   UNL     1       6.780   4.673  15.719  0.00  0.00    +0.000 C 
BRANCH  14  15
ATOM     15  C   UNL     1       6.748   4.396  14.324  0.00  0.00    +0.000 A 
ATOM     16  C   UNL     1       7.514   4.949  13.299  0.00  0.00    +0.000 A 
ATOM     17  C   UNL     1       7.100   4.371  12.070  0.00  0.00    +0.000 A 
ATOM     18  C   UNL     1       6.105   3.492  12.413  0.00  0.00    +0.000 A 
ATOM     19  O   UNL     1       5.883   3.486  13.747  0.00  0.00    +0.000 OA
BRANCH  18  20
ATOM     20  N   UNL     1       5.290   2.619  11.632  0.00  0.00    +0.000 N 
ATOM     21  O   UNL     1       4.176   3.053  11.307  0.00  0.00    +0.000 OA
ATOM     22  O   UNL     1       5.745   1.505  11.339  0.00  0.00    +0.000 OA
ENDBRANCH  18  20
ENDBRANCH  14  15
ENDBRANCH   1  13
TORSDOF 6
ENDMDL
MODEL 8
REMARK VINA RESULT:      -7.4      1.674      1.985
REMARK  Name = 
REMARK  7 active torsions:
REMARK  status: ('A' for Active; 'I' for Inactive)
REMARK    1  A    between atoms: C_1  and  C_2
REMARK    2  A    between atoms: C_2  and  C_3
REMARK    3  A    between atoms: C_6  and  O_7
REMARK    4  A    between atoms: C_8  and  C_9
REMARK    5  A    between atoms: C_9  and  C_11
REMARK    6  A    between atoms: C_12  and  C_13
REMARK    7  A    between atoms: C_16  and  N_17
REMARK                            x       y       z     vdW  Elec       q    Type
REMARK                         _______ _______ _______ _____ _____    ______ ____
ROOT
ATOM      1  C   UNL     1       6.850   4.692  15.622  0.00  0.00    +0.000 C 
ATOM      2  O   UNL     1       7.869   4.614  16.304  0.00  0.00    +0.000 OA
ENDROOT
BRANCH   1   7
ATOM      3  C   UNL     1       6.106   3.277  12.192  0.00  0.00    +0.000 A 
ATOM      4  C   UNL     1       6.983   4.006  11.383  0.00  0.00    +0.000 A 
ATOM      5  C   UNL     1       7.830   4.966  11.938  0.00  0.00    +0.000 A 
ATOM      6  C   UNL     1       7.805   5.211  13.314  0.00  0.00    +0.000 A 
ATOM      7  C   UNL     1       6.921   4.507  14.144  0.00  0.00    +0.000 A 
ATOM      8  C   UNL     1       6.082   3.535  13.573  0.00  0.00    +0.000 A 
BRANCH   3  10
ATOM      9  C   UNL     1       5.965   1.045  11.051  0.00  0.00    +0.000 C 
ATOM     10  C   UNL     1       5.193   2.246  11.579  0.00  0.00    +0.000 C 
ENDBRANCH   3  10
BRANCH   6  11
ATOM     11  O   UNL     1       8.682   6.122  13.832  0.00  0.00    +0.000 OA
ATOM     12  H   UNL     1       9.054   5.776  14.661  0.00  0.00    +0.000 HD
ENDBRANCH   6  11
ENDBRANCH   1   7
BRANCH   1  13
ATOM     13  C   UNL     1       5.516   4.895  16.250  0.00  0.00    +0.000 C 
ATOM     14  C   UNL     1       5.070   4.045  17.188  0.00  0.00    +0.000 C 
BRANCH  14  15
ATOM     15  C   UNL     1       3.787   4.235  17.773  0.00  0.00    +0.000 A 
ATOM     16  C   UNL     1       3.050   5.409  17.915  0.00  0.00    +0.000 A 
ATOM     17  C   UNL     1       1.837   5.096  18.586  0.00  0.00    +0.000 A 
ATOM     18  C   UNL     1       1.899   3.745  18.813  0.00  0.00    +0.000 A 
ATOM     19  O   UNL     1       3.046   3.211  18.333  0.00  0.00    +0.000 OA
BRANCH  18  20
ATOM     20  N   UNL     1       0.998   2.840  19.449  0.00  0.00    +0.000 N 
ATOM     21  O   UNL     1       1.002   2.843  20.688  0.00  0.00    +0.000 OA
ATOM     22  O   UNL     1       0.286   2.126  18.730  0.00  0.00    +0.000 OA
ENDBRANCH  18  20
ENDBRANCH  14  15
ENDBRANCH   1  13
TORSDOF 6
ENDMDL
MODEL 9
REMARK VINA RESULT:      -7.4      1.525      1.797
REMARK  Name = 
REMARK  7 active torsions:
REMARK  status: ('A' for Active; 'I' for Inactive)
REMARK    1  A    between atoms: C_1  and  C_2
REMARK    2  A    between atoms: C_2  and  C_3
REMARK    3  A    between atoms: C_6  and  O_7
REMARK    4  A    between atoms: C_8  and  C_9
REMARK    5  A    between atoms: C_9  and  C_11
REMARK    6  A    between atoms: C_12  and  C_13
REMARK    7  A    between atoms: C_16  and  N_17
REMARK                            x       y       z     vdW  Elec       q    Type
REMARK                         _______ _______ _______ _____ _____    ______ ____
ROOT
ATOM      1  C   UNL     1       6.507   5.004  15.557  0.00  0.00    +0.000 C 
ATOM      2  O   UNL     1       7.250   5.848  16.054  0.00  0.00    +0.000 OA
ENDROOT
BRANCH   1   7
ATOM      3  C   UNL     1       5.657   3.458  12.210  0.00  0.00    +0.000 A 
ATOM      4  C   UNL     1       6.695   3.932  11.401  0.00  0.00    +0.000 A 
ATOM      5  C   UNL     1       7.688   4.757  11.931  0.00  0.00    +0.000 A 
ATOM      6  C   UNL     1       7.649   5.123  13.279  0.00  0.00    +0.000 A 
ATOM      7  C   UNL     1       6.608   4.678  14.106  0.00  0.00    +0.000 A 
ATOM      8  C   UNL     1       5.621   3.838  13.562  0.00  0.00    +0.000 A 
BRANCH   3  10
ATOM      9  C   UNL     1       3.626   3.349  10.738  0.00  0.00    +0.000 C 
ATOM     10  C   UNL     1       4.588   2.570  11.624  0.00  0.00    +0.000 C 
ENDBRANCH   3  10
BRANCH   6  11
ATOM     11  O   UNL     1       8.663   5.893  13.778  0.00  0.00    +0.000 OA
ATOM     12  H   UNL     1       9.215   5.355  14.371  0.00  0.00    +0.000 HD
ENDBRANCH   6  11
ENDBRANCH   1   7
BRANCH   1  13
ATOM     13  C   UNL     1       5.548   4.234  16.395  0.00  0.00    +0.000 C 
ATOM     14  C   UNL     1       5.302   4.603  17.661  0.00  0.00    +0.000 C 
BRANCH  14  15
ATOM     15  C   UNL     1       4.396   3.853  18.462  0.00  0.00    +0.000 A 
ATOM     16  C   UNL     1       4.664   2.842  19.382  0.00  0.00    +0.000 A 
ATOM     17  C   UNL     1       3.430   2.381  19.912  0.00  0.00    +0.000 A 
ATOM     18  C   UNL     1       2.474   3.141  19.289  0.00  0.00    +0.000 A 
ATOM     19  O   UNL     1       3.025   4.027  18.427  0.00  0.00    +0.000 OA
BRANCH  18  20
ATOM     20  N   UNL     1       1.050   3.155  19.385  0.00  0.00    +0.000 N 
ATOM     21  O   UNL     1       0.562   3.976  20.174  0.00  0.00    +0.000 OA
ATOM     22  O   UNL     1       0.412   2.357  18.686  0.00  0.00    +0.000 OA
ENDBRANCH  18  20
ENDBRANCH  14  15
ENDBRANCH   1  13
TORSDOF 6
ENDMDL
