MODEL 1
REMARK VINA RESULT:      -6.4      0.000      0.000
REMARK  Name = 
REMARK  9 active torsions:
REMARK  status: ('A' for Active; 'I' for Inactive)
REMARK    1  A    between atoms: C_1  and  N_2
REMARK    2  A    between atoms: N_2  and  C_3
REMARK    3  A    between atoms: C_4  and  C_6
REMARK    4  A    between atoms: C_6  and  O_7
REMARK    5  A    between atoms: O_7  and  C_8
REMARK    6  A    between atoms: C_11  and  C_12
REMARK    7  A    between atoms: C_13  and  C_14
REMARK    8  A    between atoms: C_16  and  N_17
REMARK    9  A    between atoms: C_27  and  C_28
REMARK                            x       y       z     vdW  Elec       q    Type
REMARK                         _______ _______ _______ _____ _____    ______ ____
ROOT
ATOM      1  C   UNL     1      -0.711  11.140  19.585  0.00  0.00    +0.000 A 
ATOM      2  C   UNL     1      -2.057  11.260  18.983  0.00  0.00    +0.000 A 
ATOM      3  C   UNL     1      -2.760  12.459  19.224  0.00  0.00    +0.000 A 
ATOM      4  N   UNL     1      -2.301  13.287  20.338  0.00  0.00    +0.000 N 
ATOM      5  C   UNL     1      -1.592  12.533  21.239  0.00  0.00    +0.000 A 
ATOM      6  N   UNL     1      -1.829  13.055  22.428  0.00  0.00    +0.000 NA
ATOM      7  C   UNL     1      -1.457  14.340  22.119  0.00  0.00    +0.000 A 
ATOM      8  C   UNL     1      -0.613  15.067  22.970  0.00  0.00    +0.000 A 
ATOM      9  C   UNL     1       0.459  15.696  22.353  0.00  0.00    +0.000 A 
ATOM     10  C   UNL     1       0.536  15.745  20.954  0.00  0.00    +0.000 A 
ATOM     11  C   UNL     1      -0.483  15.230  20.090  0.00  0.00    +0.000 A 
ATOM     12  C   UNL     1      -1.543  14.511  20.695  0.00  0.00    +0.000 A 
ATOM     13  C   UNL     1      -0.456  12.090  20.511  0.00  0.00    +0.000 A 
ENDROOT
BRANCH   1  17
ATOM     14  C   UNL     1       2.224   8.105  18.613  0.00  0.00    +0.000 A 
ATOM     15  C   UNL     1       1.875   9.057  17.661  0.00  0.00    +0.000 A 
ATOM     16  C   UNL     1       0.933  10.076  18.004  0.00  0.00    +0.000 A 
ATOM     17  C   UNL     1       0.362  10.140  19.284  0.00  0.00    +0.000 A 
ATOM     18  C   UNL     1       0.705   9.155  20.216  0.00  0.00    +0.000 A 
ATOM     19  C   UNL     1       1.630   8.164  19.880  0.00  0.00    +0.000 A 
BRANCH  14  20
ATOM     20  O   UNL     1       3.118   7.085  18.427  0.00  0.00    +0.000 OA
BRANCH  20  21
ATOM     21  C   UNL     1       2.979   5.941  19.259  0.00  0.00    +0.000 C 
BRANCH  21  25
ATOM     22  C   UNL     1       2.915   2.400  17.758  0.00  0.00    +0.000 C 
ATOM     23  N   UNL     1       3.292   3.533  18.588  0.00  0.00    +0.000 N 
ATOM     24  C   UNL     1       4.487   3.424  19.407  0.00  0.00    +0.000 C 
ATOM     25  C   UNL     1       2.554   4.706  18.451  0.00  0.00    +0.000 C 
ATOM     26  O   UNL     1       1.556   4.754  17.726  0.00  0.00    +0.000 OA
ENDBRANCH  21  25
ENDBRANCH  20  21
ENDBRANCH  14  20
ENDBRANCH   1  17
BRANCH   3  27
ATOM     27  N   UNL     1      -4.089  12.607  18.817  0.00  0.00    +0.000 N 
ATOM     28  H   UNL     1      -4.678  11.801  19.043  0.00  0.00    +0.000 HD
ATOM     29  H   UNL     1      -4.515  13.442  19.209  0.00  0.00    +0.000 HD
ENDBRANCH   3  27
BRANCH   2  30
ATOM     30  C   UNL     1      -2.592  10.101  18.279  0.00  0.00    +0.000 C 
ATOM     31  N   UNL     1      -3.098   9.214  17.724  0.00  0.00    +0.000 NA
ENDBRANCH   2  30
BRANCH  13  32
ATOM     32  C   UNL     1       0.971  12.432  20.906  0.00  0.00    +0.000 C 
ATOM     33  N   UNL     1       2.156  12.714  21.234  0.00  0.00    +0.000 NA
ENDBRANCH  13  32
TORSDOF 7
ENDMDL
MODEL 2
REMARK VINA RESULT:      -6.4      3.034      9.674
REMARK  Name = 
REMARK  9 active torsions:
REMARK  status: ('A' for Active; 'I' for Inactive)
REMARK    1  A    between atoms: C_1  and  N_2
REMARK    2  A    between atoms: N_2  and  C_3
REMARK    3  A    between atoms: C_4  and  C_6
REMARK    4  A    between atoms: C_6  and  O_7
REMARK    5  A    between atoms: O_7  and  C_8
REMARK    6  A    between atoms: C_11  and  C_12
REMARK    7  A    between atoms: C_13  and  C_14
REMARK    8  A    between atoms: C_16  and  N_17
REMARK    9  A    between atoms: C_27  and  C_28
REMARK                            x       y       z     vdW  Elec       q    Type
REMARK                         _______ _______ _______ _____ _____    ______ ____
ROOT
ATOM      1  C   UNL     1       3.019   5.603  18.461  0.00  0.00    +0.000 A 
ATOM      2  C   UNL     1       2.704   4.278  19.041  0.00  0.00    +0.000 A 
ATOM      3  C   UNL     1       3.588   3.222  18.738  0.00  0.00    +0.000 A 
ATOM      4  N   UNL     1       4.479   3.407  17.594  0.00  0.00    +0.000 N 
ATOM      5  C   UNL     1       3.972   4.351  16.736  0.00  0.00    +0.000 A 
ATOM      6  N   UNL     1       4.339   3.985  15.522  0.00  0.00    +0.000 NA
ATOM      7  C   UNL     1       5.685   3.897  15.778  0.00  0.00    +0.000 A 
ATOM      8  C   UNL     1       6.620   4.472  14.906  0.00  0.00    +0.000 A 
ATOM      9  C   UNL     1       7.594   5.255  15.507  0.00  0.00    +0.000 A 
ATOM     10  C   UNL     1       7.720   5.275  16.903  0.00  0.00    +0.000 A 
ATOM     11  C   UNL     1       6.927   4.464  17.777  0.00  0.00    +0.000 A 
ATOM     12  C   UNL     1       5.872   3.722  17.192  0.00  0.00    +0.000 A 
ATOM     13  C   UNL     1       3.964   5.550  17.497  0.00  0.00    +0.000 A 
ENDROOT
BRANCH   1  17
ATOM     14  C   UNL     1       1.148   9.369  19.503  0.00  0.00    +0.000 A 
ATOM     15  C   UNL     1       1.493   8.470  20.506  0.00  0.00    +0.000 A 
ATOM     16  C   UNL     1       2.143   7.246  20.155  0.00  0.00    +0.000 A 
ATOM     17  C   UNL     1       2.448   6.940  18.820  0.00  0.00    +0.000 A 
ATOM     18  C   UNL     1       2.066   7.845  17.825  0.00  0.00    +0.000 A 
ATOM     19  C   UNL     1       1.436   9.042  18.172  0.00  0.00    +0.000 A 
BRANCH  14  20
ATOM     20  O   UNL     1       0.536  10.578  19.695  0.00  0.00    +0.000 OA
BRANCH  20  21
ATOM     21  C   UNL     1       0.868  11.293  20.878  0.00  0.00    +0.000 C 
BRANCH  21  25
ATOM     22  C   UNL     1      -2.203  11.927  23.106  0.00  0.00    +0.000 C 
ATOM     23  N   UNL     1      -0.990  11.322  22.580  0.00  0.00    +0.000 N 
ATOM     24  C   UNL     1      -0.570  10.037  23.111  0.00  0.00    +0.000 C 
ATOM     25  C   UNL     1      -0.370  11.952  21.503  0.00  0.00    +0.000 C 
ATOM     26  O   UNL     1      -0.777  13.036  21.075  0.00  0.00    +0.000 OA
ENDBRANCH  21  25
ENDBRANCH  20  21
ENDBRANCH  14  20
ENDBRANCH   1  17
BRANCH   3  27
ATOM     27  N   UNL     1       3.297   1.909  19.122  0.00  0.00    +0.000 N 
ATOM     28  H   UNL     1       2.626   1.848  19.893  0.00  0.00    +0.000 HD
ATOM     29  H   UNL     1       2.950   1.356  18.344  0.00  0.00    +0.000 HD
ENDBRANCH   3  27
BRANCH   2  30
ATOM     30  C   UNL     1       1.460   4.144  19.789  0.00  0.00    +0.000 C 
ATOM     31  N   UNL     1       0.482   3.949  20.387  0.00  0.00    +0.000 NA
ENDBRANCH   2  30
BRANCH  13  32
ATOM     32  C   UNL     1       4.748   6.791  17.104  0.00  0.00    +0.000 C 
ATOM     33  N   UNL     1       5.399   7.821  16.778  0.00  0.00    +0.000 NA
ENDBRANCH  13  32
TORSDOF 7
ENDMDL
MODEL 3
REMARK VINA RESULT:      -6.3      0.775      1.200
REMARK  Name = 
REMARK  9 active torsions:
REMARK  status: ('A' for Active; 'I' for Inactive)
REMARK    1  A    between atoms: C_1  and  N_2
REMARK    2  A    between atoms: N_2  and  C_3
REMARK    3  A    between atoms: C_4  and  C_6
REMARK    4  A    between atoms: C_6  and  O_7
REMARK    5  A    between atoms: O_7  and  C_8
REMARK    6  A    between atoms: C_11  and  C_12
REMARK    7  A    between atoms: C_13  and  C_14
REMARK    8  A    between atoms: C_16  and  N_17
REMARK    9  A    between atoms: C_27  and  C_28
REMARK                            x       y       z     vdW  Elec       q    Type
REMARK                         _______ _______ _______ _____ _____    ______ ____
ROOT
ATOM      1  C   UNL     1      -0.967  11.011  19.566  0.00  0.00    +0.000 A 
ATOM      2  C   UNL     1      -2.305  11.203  18.964  0.00  0.00    +0.000 A 
ATOM      3  C   UNL     1      -2.943  12.438  19.204  0.00  0.00    +0.000 A 
ATOM      4  N   UNL     1      -2.440  13.241  20.317  0.00  0.00    +0.000 N 
ATOM      5  C   UNL     1      -1.773  12.450  21.219  0.00  0.00    +0.000 A 
ATOM      6  N   UNL     1      -1.982  12.985  22.407  0.00  0.00    +0.000 NA
ATOM      7  C   UNL     1      -1.542  14.248  22.098  0.00  0.00    +0.000 A 
ATOM      8  C   UNL     1      -0.661  14.930  22.949  0.00  0.00    +0.000 A 
ATOM      9  C   UNL     1       0.443  15.500  22.332  0.00  0.00    +0.000 A 
ATOM     10  C   UNL     1       0.524  15.544  20.933  0.00  0.00    +0.000 A 
ATOM     11  C   UNL     1      -0.521  15.084  20.068  0.00  0.00    +0.000 A 
ATOM     12  C   UNL     1      -1.618  14.423  20.673  0.00  0.00    +0.000 A 
ATOM     13  C   UNL     1      -0.662  11.947  20.492  0.00  0.00    +0.000 A 
ENDROOT
BRANCH   1  17
ATOM     14  C   UNL     1       2.148   8.103  18.783  0.00  0.00    +0.000 A 
ATOM     15  C   UNL     1       1.567   8.169  20.045  0.00  0.00    +0.000 A 
ATOM     16  C   UNL     1       0.515   9.107  20.283  0.00  0.00    +0.000 A 
ATOM     17  C   UNL     1       0.050   9.955  19.266  0.00  0.00    +0.000 A 
ATOM     18  C   UNL     1       0.668   9.892  18.012  0.00  0.00    +0.000 A 
ATOM     19  C   UNL     1       1.692   8.970  17.782  0.00  0.00    +0.000 A 
BRANCH  14  20
ATOM     20  O   UNL     1       3.150   7.249  18.413  0.00  0.00    +0.000 OA
BRANCH  20  21
ATOM     21  C   UNL     1       3.351   6.095  19.219  0.00  0.00    +0.000 C 
BRANCH  21  25
ATOM     22  C   UNL     1       1.112   2.968  19.192  0.00  0.00    +0.000 C 
ATOM     23  N   UNL     1       1.848   4.124  19.675  0.00  0.00    +0.000 N 
ATOM     24  C   UNL     1       1.974   4.317  21.109  0.00  0.00    +0.000 C 
ATOM     25  C   UNL     1       2.502   4.913  18.730  0.00  0.00    +0.000 C 
ATOM     26  O   UNL     1       2.379   4.696  17.520  0.00  0.00    +0.000 OA
ENDBRANCH  21  25
ENDBRANCH  20  21
ENDBRANCH  14  20
ENDBRANCH   1  17
BRANCH   3  27
ATOM     27  N   UNL     1      -4.262  12.656  18.796  0.00  0.00    +0.000 N 
ATOM     28  H   UNL     1      -4.395  12.583  17.784  0.00  0.00    +0.000 HD
ATOM     29  H   UNL     1      -4.910  12.022  19.256  0.00  0.00    +0.000 HD
ENDBRANCH   3  27
BRANCH   2  30
ATOM     30  C   UNL     1      -2.900  10.073  18.260  0.00  0.00    +0.000 C 
ATOM     31  N   UNL     1      -3.326   9.194  17.629  0.00  0.00    +0.000 NA
ENDBRANCH   2  30
BRANCH  13  32
ATOM     32  C   UNL     1       0.781  12.212  20.887  0.00  0.00    +0.000 C 
ATOM     33  N   UNL     1       1.979  12.431  21.215  0.00  0.00    +0.000 NA
ENDBRANCH  13  32
TORSDOF 7
ENDMDL
MODEL 4
REMARK VINA RESULT:      -6.3      3.129      9.635
REMARK  Name = 
REMARK  9 active torsions:
REMARK  status: ('A' for Active; 'I' for Inactive)
REMARK    1  A    between atoms: C_1  and  N_2
REMARK    2  A    between atoms: N_2  and  C_3
REMARK    3  A    between atoms: C_4  and  C_6
REMARK    4  A    between atoms: C_6  and  O_7
REMARK    5  A    between atoms: O_7  and  C_8
REMARK    6  A    between atoms: C_11  and  C_12
REMARK    7  A    between atoms: C_13  and  C_14
REMARK    8  A    between atoms: C_16  and  N_17
REMARK    9  A    between atoms: C_27  and  C_28
REMARK                            x       y       z     vdW  Elec       q    Type
REMARK                         _______ _______ _______ _____ _____    ______ ____
ROOT
ATOM      1  C   UNL     1       3.027   5.537  18.459  0.00  0.00    +0.000 A 
ATOM      2  C   UNL     1       2.706   4.199  19.002  0.00  0.00    +0.000 A 
ATOM      3  C   UNL     1       3.585   3.147  18.670  0.00  0.00    +0.000 A 
ATOM      4  N   UNL     1       4.477   3.360  17.531  0.00  0.00    +0.000 N 
ATOM      5  C   UNL     1       3.975   4.329  16.699  0.00  0.00    +0.000 A 
ATOM      6  N   UNL     1       4.339   3.996  15.476  0.00  0.00    +0.000 NA
ATOM      7  C   UNL     1       5.685   3.894  15.729  0.00  0.00    +0.000 A 
ATOM      8  C   UNL     1       6.623   4.489  14.873  0.00  0.00    +0.000 A 
ATOM      9  C   UNL     1       7.601   5.250  15.495  0.00  0.00    +0.000 A 
ATOM     10  C   UNL     1       7.727   5.230  16.892  0.00  0.00    +0.000 A 
ATOM     11  C   UNL     1       6.930   4.399  17.743  0.00  0.00    +0.000 A 
ATOM     12  C   UNL     1       5.871   3.679  17.138  0.00  0.00    +0.000 A 
ATOM     13  C   UNL     1       3.972   5.507  17.493  0.00  0.00    +0.000 A 
ENDROOT
BRANCH   1  17
ATOM     14  C   UNL     1       1.175   9.282  19.608  0.00  0.00    +0.000 A 
ATOM     15  C   UNL     1       1.528   8.358  20.586  0.00  0.00    +0.000 A 
ATOM     16  C   UNL     1       2.171   7.141  20.200  0.00  0.00    +0.000 A 
ATOM     17  C   UNL     1       2.463   6.867  18.855  0.00  0.00    +0.000 A 
ATOM     18  C   UNL     1       2.074   7.796  17.885  0.00  0.00    +0.000 A 
ATOM     19  C   UNL     1       1.450   8.986  18.267  0.00  0.00    +0.000 A 
BRANCH  14  20
ATOM     20  O   UNL     1       0.568  10.487  19.835  0.00  0.00    +0.000 OA
BRANCH  20  21
ATOM     21  C   UNL     1       0.147  11.226  18.696  0.00  0.00    +0.000 C 
BRANCH  21  25
ATOM     22  C   UNL     1      -3.648  11.474  18.121  0.00  0.00    +0.000 C 
ATOM     23  N   UNL     1      -2.276  10.998  18.044  0.00  0.00    +0.000 N 
ATOM     24  C   UNL     1      -1.955   9.962  17.078  0.00  0.00    +0.000 C 
ATOM     25  C   UNL     1      -1.322  11.657  18.816  0.00  0.00    +0.000 C 
ATOM     26  O   UNL     1      -1.644  12.547  19.610  0.00  0.00    +0.000 OA
ENDBRANCH  21  25
ENDBRANCH  20  21
ENDBRANCH  14  20
ENDBRANCH   1  17
BRANCH   3  27
ATOM     27  N   UNL     1       3.288   1.826  19.017  0.00  0.00    +0.000 N 
ATOM     28  H   UNL     1       2.855   1.291  18.259  0.00  0.00    +0.000 HD
ATOM     29  H   UNL     1       4.110   1.325  19.341  0.00  0.00    +0.000 HD
ENDBRANCH   3  27
BRANCH   2  30
ATOM     30  C   UNL     1       1.462   4.049  19.746  0.00  0.00    +0.000 C 
ATOM     31  N   UNL     1       0.502   3.987  20.400  0.00  0.00    +0.000 NA
ENDBRANCH   2  30
BRANCH  13  32
ATOM     32  C   UNL     1       4.762   6.754  17.135  0.00  0.00    +0.000 C 
ATOM     33  N   UNL     1       5.419   7.789  16.839  0.00  0.00    +0.000 NA
ENDBRANCH  13  32
TORSDOF 7
ENDMDL
MODEL 5
REMARK VINA RESULT:      -6.3      0.743      1.237
REMARK  Name = 
REMARK  9 active torsions:
REMARK  status: ('A' for Active; 'I' for Inactive)
REMARK    1  A    between atoms: C_1  and  N_2
REMARK    2  A    between atoms: N_2  and  C_3
REMARK    3  A    between atoms: C_4  and  C_6
REMARK    4  A    between atoms: C_6  and  O_7
REMARK    5  A    between atoms: O_7  and  C_8
REMARK    6  A    between atoms: C_11  and  C_12
REMARK    7  A    between atoms: C_13  and  C_14
REMARK    8  A    between atoms: C_16  and  N_17
REMARK    9  A    between atoms: C_27  and  C_28
REMARK                            x       y       z     vdW  Elec       q    Type
REMARK                         _______ _______ _______ _____ _____    ______ ____
ROOT
ATOM      1  C   UNL     1      -0.980  11.041  19.555  0.00  0.00    +0.000 A 
ATOM      2  C   UNL     1      -2.315  11.216  18.942  0.00  0.00    +0.000 A 
ATOM      3  C   UNL     1      -2.971  12.442  19.178  0.00  0.00    +0.000 A 
ATOM      4  N   UNL     1      -2.487  13.251  20.296  0.00  0.00    +0.000 N 
ATOM      5  C   UNL     1      -1.817  12.468  21.203  0.00  0.00    +0.000 A 
ATOM      6  N   UNL     1      -2.042  12.998  22.389  0.00  0.00    +0.000 NA
ATOM      7  C   UNL     1      -1.616  14.267  22.085  0.00  0.00    +0.000 A 
ATOM      8  C   UNL     1      -0.750  14.960  22.943  0.00  0.00    +0.000 A 
ATOM      9  C   UNL     1       0.351  15.544  22.336  0.00  0.00    +0.000 A 
ATOM     10  C   UNL     1       0.442  15.591  20.937  0.00  0.00    +0.000 A 
ATOM     11  C   UNL     1      -0.590  15.118  20.064  0.00  0.00    +0.000 A 
ATOM     12  C   UNL     1      -1.683  14.442  20.660  0.00  0.00    +0.000 A 
ATOM     13  C   UNL     1      -0.694  11.979  20.484  0.00  0.00    +0.000 A 
ENDROOT
BRANCH   1  17
ATOM     14  C   UNL     1       2.178   8.172  18.796  0.00  0.00    +0.000 A 
ATOM     15  C   UNL     1       1.576   8.221  20.050  0.00  0.00    +0.000 A 
ATOM     16  C   UNL     1       0.510   9.146  20.279  0.00  0.00    +0.000 A 
ATOM     17  C   UNL     1       0.053   9.998  19.261  0.00  0.00    +0.000 A 
ATOM     18  C   UNL     1       0.692   9.952  18.018  0.00  0.00    +0.000 A 
ATOM     19  C   UNL     1       1.729   9.044  17.796  0.00  0.00    +0.000 A 
BRANCH  14  20
ATOM     20  O   UNL     1       3.195   7.332  18.435  0.00  0.00    +0.000 OA
BRANCH  20  21
ATOM     21  C   UNL     1       2.838   6.016  18.032  0.00  0.00    +0.000 C 
BRANCH  21  25
ATOM     22  C   UNL     1       4.401   2.837  19.531  0.00  0.00    +0.000 C 
ATOM     23  N   UNL     1       4.013   3.852  18.565  0.00  0.00    +0.000 N 
ATOM     24  C   UNL     1       4.241   3.589  17.155  0.00  0.00    +0.000 C 
ATOM     25  C   UNL     1       3.327   4.967  19.041  0.00  0.00    +0.000 C 
ATOM     26  O   UNL     1       3.141   5.136  20.250  0.00  0.00    +0.000 OA
ENDBRANCH  21  25
ENDBRANCH  20  21
ENDBRANCH  14  20
ENDBRANCH   1  17
BRANCH   3  27
ATOM     27  N   UNL     1      -4.290  12.644  18.760  0.00  0.00    +0.000 N 
ATOM     28  H   UNL     1      -4.801  11.774  18.586  0.00  0.00    +0.000 HD
ATOM     29  H   UNL     1      -4.816  13.204  19.425  0.00  0.00    +0.000 HD
ENDBRANCH   3  27
BRANCH   2  30
ATOM     30  C   UNL     1      -2.891  10.080  18.233  0.00  0.00    +0.000 C 
ATOM     31  N   UNL     1      -3.409   9.229  17.632  0.00  0.00    +0.000 NA
ENDBRANCH   2  30
BRANCH  13  32
ATOM     32  C   UNL     1       0.742  12.263  20.891  0.00  0.00    +0.000 C 
ATOM     33  N   UNL     1       1.935  12.496  21.229  0.00  0.00    +0.000 NA
ENDBRANCH  13  32
TORSDOF 7
ENDMDL
MODEL 6
REMARK VINA RESULT:      -6.2      1.542      1.661
REMARK  Name = 
REMARK  9 active torsions:
REMARK  status: ('A' for Active; 'I' for Inactive)
REMARK    1  A    between atoms: C_1  and  N_2
REMARK    2  A    between atoms: N_2  and  C_3
REMARK    3  A    between atoms: C_4  and  C_6
REMARK    4  A    between atoms: C_6  and  O_7
REMARK    5  A    between atoms: O_7  and  C_8
REMARK    6  A    between atoms: C_11  and  C_12
REMARK    7  A    between atoms: C_13  and  C_14
REMARK    8  A    between atoms: C_16  and  N_17
REMARK    9  A    between atoms: C_27  and  C_28
REMARK                            x       y       z     vdW  Elec       q    Type
REMARK                         _______ _______ _______ _____ _____    ______ ____
ROOT
ATOM      1  C   UNL     1      -0.680  11.113  19.588  0.00  0.00    +0.000 A 
ATOM      2  C   UNL     1      -2.027  11.241  18.990  0.00  0.00    +0.000 A 
ATOM      3  C   UNL     1      -2.719  12.447  19.227  0.00  0.00    +0.000 A 
ATOM      4  N   UNL     1      -2.250  13.277  20.335  0.00  0.00    +0.000 N 
ATOM      5  C   UNL     1      -1.544  12.521  21.238  0.00  0.00    +0.000 A 
ATOM      6  N   UNL     1      -1.773  13.051  22.425  0.00  0.00    +0.000 NA
ATOM      7  C   UNL     1      -1.392  14.331  22.109  0.00  0.00    +0.000 A 
ATOM      8  C   UNL     1      -0.539  15.056  22.953  0.00  0.00    +0.000 A 
ATOM      9  C   UNL     1       0.536  15.673  22.330  0.00  0.00    +0.000 A 
ATOM     10  C   UNL     1       0.609  15.714  20.930  0.00  0.00    +0.000 A 
ATOM     11  C   UNL     1      -0.417  15.203  20.072  0.00  0.00    +0.000 A 
ATOM     12  C   UNL     1      -1.481  14.496  20.683  0.00  0.00    +0.000 A 
ATOM     13  C   UNL     1      -0.414  12.065  20.509  0.00  0.00    +0.000 A 
ENDROOT
BRANCH   1  17
ATOM     14  C   UNL     1       2.227   8.046  18.629  0.00  0.00    +0.000 A 
ATOM     15  C   UNL     1       1.858   8.974  17.661  0.00  0.00    +0.000 A 
ATOM     16  C   UNL     1       0.926  10.004  17.998  0.00  0.00    +0.000 A 
ATOM     17  C   UNL     1       0.384  10.102  19.289  0.00  0.00    +0.000 A 
ATOM     18  C   UNL     1       0.746   9.142  20.238  0.00  0.00    +0.000 A 
ATOM     19  C   UNL     1       1.662   8.140  19.907  0.00  0.00    +0.000 A 
BRANCH  14  20
ATOM     20  O   UNL     1       3.114   7.019  18.449  0.00  0.00    +0.000 OA
BRANCH  20  21
ATOM     21  C   UNL     1       4.123   7.199  17.465  0.00  0.00    +0.000 C 
BRANCH  21  25
ATOM     22  C   UNL     1       6.964   4.676  16.864  0.00  0.00    +0.000 C 
ATOM     23  N   UNL     1       6.272   5.909  17.200  0.00  0.00    +0.000 N 
ATOM     24  C   UNL     1       7.059   7.114  17.397  0.00  0.00    +0.000 C 
ATOM     25  C   UNL     1       4.879   5.891  17.189  0.00  0.00    +0.000 C 
ATOM     26  O   UNL     1       4.254   4.843  16.997  0.00  0.00    +0.000 OA
ENDBRANCH  21  25
ENDBRANCH  20  21
ENDBRANCH  14  20
ENDBRANCH   1  17
BRANCH   3  27
ATOM     27  N   UNL     1      -4.048  12.602  18.824  0.00  0.00    +0.000 N 
ATOM     28  H   UNL     1      -4.288  12.061  17.989  0.00  0.00    +0.000 HD
ATOM     29  H   UNL     1      -4.700  12.363  19.566  0.00  0.00    +0.000 HD
ENDBRANCH   3  27
BRANCH   2  30
ATOM     30  C   UNL     1      -2.573  10.082  18.294  0.00  0.00    +0.000 C 
ATOM     31  N   UNL     1      -3.029   9.212  17.671  0.00  0.00    +0.000 NA
ENDBRANCH   2  30
BRANCH  13  32
ATOM     32  C   UNL     1       1.017  12.398  20.898  0.00  0.00    +0.000 C 
ATOM     33  N   UNL     1       2.205  12.672  21.222  0.00  0.00    +0.000 NA
ENDBRANCH  13  32
TORSDOF 7
ENDMDL
MODEL 7
REMARK VINA RESULT:      -6.2      8.053      9.952
REMARK  Name = 
REMARK  9 active torsions:
REMARK  status: ('A' for Active; 'I' for Inactive)
REMARK    1  A    between atoms: C_1  and  N_2
REMARK    2  A    between atoms: N_2  and  C_3
REMARK    3  A    between atoms: C_4  and  C_6
REMARK    4  A    between atoms: C_6  and  O_7
REMARK    5  A    between atoms: O_7  and  C_8
REMARK    6  A    between atoms: C_11  and  C_12
REMARK    7  A    between atoms: C_13  and  C_14
REMARK    8  A    between atoms: C_16  and  N_17
REMARK    9  A    between atoms: C_27  and  C_28
REMARK                            x       y       z     vdW  Elec       q    Type
REMARK                         _______ _______ _______ _____ _____    ______ ____
ROOT
ATOM      1  C   UNL     1       9.850  13.948  18.576  0.00  0.00    +0.000 A 
ATOM      2  C   UNL     1      11.043  14.531  17.924  0.00  0.00    +0.000 A 
ATOM      3  C   UNL     1      11.313  15.891  18.183  0.00  0.00    +0.000 A 
ATOM      4  N   UNL     1      10.218  16.696  18.721  0.00  0.00    +0.000 N 
ATOM      5  C   UNL     1       9.006  16.120  18.426  0.00  0.00    +0.000 A 
ATOM      6  N   UNL     1       8.153  17.113  18.263  0.00  0.00    +0.000 NA
ATOM      7  C   UNL     1       8.381  17.724  19.471  0.00  0.00    +0.000 A 
ATOM      8  C   UNL     1       7.313  18.138  20.280  0.00  0.00    +0.000 A 
ATOM      9  C   UNL     1       7.391  17.759  21.612  0.00  0.00    +0.000 A 
ATOM     10  C   UNL     1       8.569  17.186  22.114  0.00  0.00    +0.000 A 
ATOM     11  C   UNL     1       9.758  17.018  21.333  0.00  0.00    +0.000 A 
ATOM     12  C   UNL     1       9.674  17.319  19.952  0.00  0.00    +0.000 A 
ATOM     13  C   UNL     1       9.030  14.878  19.113  0.00  0.00    +0.000 A 
ENDROOT
BRANCH   1  17
ATOM     14  C   UNL     1       8.954   9.718  18.857  0.00  0.00    +0.000 A 
ATOM     15  C   UNL     1       9.848  10.295  19.752  0.00  0.00    +0.000 A 
ATOM     16  C   UNL     1      10.109  11.698  19.675  0.00  0.00    +0.000 A 
ATOM     17  C   UNL     1       9.474  12.506  18.719  0.00  0.00    +0.000 A 
ATOM     18  C   UNL     1       8.600  11.901  17.810  0.00  0.00    +0.000 A 
ATOM     19  C   UNL     1       8.344  10.530  17.892  0.00  0.00    +0.000 A 
BRANCH  14  20
ATOM     20  O   UNL     1       8.602   8.396  18.824  0.00  0.00    +0.000 OA
BRANCH  20  21
ATOM     21  C   UNL     1       7.836   7.956  17.711  0.00  0.00    +0.000 C 
BRANCH  21  25
ATOM     22  C   UNL     1       5.858   4.673  17.379  0.00  0.00    +0.000 C 
ATOM     23  N   UNL     1       6.295   6.042  17.153  0.00  0.00    +0.000 N 
ATOM     24  C   UNL     1       5.485   6.897  16.303  0.00  0.00    +0.000 C 
ATOM     25  C   UNL     1       7.401   6.492  17.871  0.00  0.00    +0.000 C 
ATOM     26  O   UNL     1       8.046   5.729  18.598  0.00  0.00    +0.000 OA
ENDBRANCH  21  25
ENDBRANCH  20  21
ENDBRANCH  14  20
ENDBRANCH   1  17
BRANCH   3  27
ATOM     27  N   UNL     1      12.333  16.563  17.503  0.00  0.00    +0.000 N 
ATOM     28  H   UNL     1      12.491  16.212  16.554  0.00  0.00    +0.000 HD
ATOM     29  H   UNL     1      12.161  17.563  17.456  0.00  0.00    +0.000 HD
ENDBRANCH   3  27
BRANCH   2  30
ATOM     30  C   UNL     1      11.785  13.691  16.991  0.00  0.00    +0.000 C 
ATOM     31  N   UNL     1      12.330  13.058  16.181  0.00  0.00    +0.000 NA
ENDBRANCH   2  30
BRANCH  13  32
ATOM     32  C   UNL     1       8.028  14.505  20.193  0.00  0.00    +0.000 C 
ATOM     33  N   UNL     1       7.196  14.196  21.089  0.00  0.00    +0.000 NA
ENDBRANCH  13  32
TORSDOF 7
ENDMDL
MODEL 8
REMARK VINA RESULT:      -6.2      2.873      9.794
REMARK  Name = 
REMARK  9 active torsions:
REMARK  status: ('A' for Active; 'I' for Inactive)
REMARK    1  A    between atoms: C_1  and  N_2
REMARK    2  A    between atoms: N_2  and  C_3
REMARK    3  A    between atoms: C_4  and  C_6
REMARK    4  A    between atoms: C_6  and  O_7
REMARK    5  A    between atoms: O_7  and  C_8
REMARK    6  A    between atoms: C_11  and  C_12
REMARK    7  A    between atoms: C_13  and  C_14
REMARK    8  A    between atoms: C_16  and  N_17
REMARK    9  A    between atoms: C_27  and  C_28
REMARK                            x       y       z     vdW  Elec       q    Type
REMARK                         _______ _______ _______ _____ _____    ______ ____
ROOT
ATOM      1  C   UNL     1       3.021   5.605  18.407  0.00  0.00    +0.000 A 
ATOM      2  C   UNL     1       2.685   4.285  18.986  0.00  0.00    +0.000 A 
ATOM      3  C   UNL     1       3.554   3.216  18.686  0.00  0.00    +0.000 A 
ATOM      4  N   UNL     1       4.450   3.387  17.544  0.00  0.00    +0.000 N 
ATOM      5  C   UNL     1       3.959   4.338  16.684  0.00  0.00    +0.000 A 
ATOM      6  N   UNL     1       4.323   3.966  15.472  0.00  0.00    +0.000 NA
ATOM      7  C   UNL     1       5.667   3.858  15.730  0.00  0.00    +0.000 A 
ATOM      8  C   UNL     1       6.613   4.418  14.860  0.00  0.00    +0.000 A 
ATOM      9  C   UNL     1       7.597   5.187  15.462  0.00  0.00    +0.000 A 
ATOM     10  C   UNL     1       7.720   5.206  16.859  0.00  0.00    +0.000 A 
ATOM     11  C   UNL     1       6.913   4.407  17.732  0.00  0.00    +0.000 A 
ATOM     12  C   UNL     1       5.848   3.680  17.145  0.00  0.00    +0.000 A 
ATOM     13  C   UNL     1       3.967   5.537  17.444  0.00  0.00    +0.000 A 
ENDROOT
BRANCH   1  17
ATOM     14  C   UNL     1       1.205   9.398  19.449  0.00  0.00    +0.000 A 
ATOM     15  C   UNL     1       1.564   8.505  20.454  0.00  0.00    +0.000 A 
ATOM     16  C   UNL     1       2.196   7.272  20.102  0.00  0.00    +0.000 A 
ATOM     17  C   UNL     1       2.470   6.950  18.764  0.00  0.00    +0.000 A 
ATOM     18  C   UNL     1       2.075   7.849  17.768  0.00  0.00    +0.000 A 
ATOM     19  C   UNL     1       1.462   9.055  18.116  0.00  0.00    +0.000 A 
BRANCH  14  20
ATOM     20  O   UNL     1       0.608  10.614  19.642  0.00  0.00    +0.000 OA
BRANCH  20  21
ATOM     21  C   UNL     1      -0.687  10.615  20.226  0.00  0.00    +0.000 C 
BRANCH  21  25
ATOM     22  C   UNL     1      -1.574  13.055  23.065  0.00  0.00    +0.000 C 
ATOM     23  N   UNL     1      -1.638  12.336  21.803  0.00  0.00    +0.000 N 
ATOM     24  C   UNL     1      -2.587  12.782  20.798  0.00  0.00    +0.000 C 
ATOM     25  C   UNL     1      -0.692  11.337  21.582  0.00  0.00    +0.000 C 
ATOM     26  O   UNL     1       0.108  11.007  22.463  0.00  0.00    +0.000 OA
ENDBRANCH  21  25
ENDBRANCH  20  21
ENDBRANCH  14  20
ENDBRANCH   1  17
BRANCH   3  27
ATOM     27  N   UNL     1       3.243   1.908  19.070  0.00  0.00    +0.000 N 
ATOM     28  H   UNL     1       3.862   1.536  19.795  0.00  0.00    +0.000 HD
ATOM     29  H   UNL     1       2.281   1.826  19.389  0.00  0.00    +0.000 HD
ENDBRANCH   3  27
BRANCH   2  30
ATOM     30  C   UNL     1       1.438   4.170  19.733  0.00  0.00    +0.000 C 
ATOM     31  N   UNL     1       0.491   4.083  20.402  0.00  0.00    +0.000 NA
ENDBRANCH   2  30
BRANCH  13  32
ATOM     32  C   UNL     1       4.771   6.766  17.053  0.00  0.00    +0.000 C 
ATOM     33  N   UNL     1       5.439   7.785  16.728  0.00  0.00    +0.000 NA
ENDBRANCH  13  32
TORSDOF 7
ENDMDL
MODEL 9
REMARK VINA RESULT:      -6.1      3.430      9.736
REMARK  Name = 
REMARK  9 active torsions:
REMARK  status: ('A' for Active; 'I' for Inactive)
REMARK    1  A    between atoms: C_1  and  N_2
REMARK    2  A    between atoms: N_2  and  C_3
REMARK    3  A    between atoms: C_4  and  C_6
REMARK    4  A    between atoms: C_6  and  O_7
REMARK    5  A    between atoms: O_7  and  C_8
REMARK    6  A    between atoms: C_11  and  C_12
REMARK    7  A    between atoms: C_13  and  C_14
REMARK    8  A    between atoms: C_16  and  N_17
REMARK    9  A    between atoms: C_27  and  C_28
REMARK                            x       y       z     vdW  Elec       q    Type
REMARK                         _______ _______ _______ _____ _____    ______ ____
ROOT
ATOM      1  C   UNL     1       3.004   5.637  18.445  0.00  0.00    +0.000 A 
ATOM      2  C   UNL     1       2.682   4.329  19.058  0.00  0.00    +0.000 A 
ATOM      3  C   UNL     1       3.561   3.261  18.783  0.00  0.00    +0.000 A 
ATOM      4  N   UNL     1       4.453   3.412  17.635  0.00  0.00    +0.000 N 
ATOM      5  C   UNL     1       3.951   4.336  16.752  0.00  0.00    +0.000 A 
ATOM      6  N   UNL     1       4.315   3.936  15.549  0.00  0.00    +0.000 NA
ATOM      7  C   UNL     1       5.660   3.848  15.807  0.00  0.00    +0.000 A 
ATOM      8  C   UNL     1       6.599   4.395  14.920  0.00  0.00    +0.000 A 
ATOM      9  C   UNL     1       7.577   5.189  15.501  0.00  0.00    +0.000 A 
ATOM     10  C   UNL     1       7.703   5.244  16.896  0.00  0.00    +0.000 A 
ATOM     11  C   UNL     1       6.905   4.460  17.791  0.00  0.00    +0.000 A 
ATOM     12  C   UNL     1       5.847   3.708  17.225  0.00  0.00    +0.000 A 
ATOM     13  C   UNL     1       3.948   5.554  17.482  0.00  0.00    +0.000 A 
ENDROOT
BRANCH   1  17
ATOM     14  C   UNL     1       1.152   9.439  19.387  0.00  0.00    +0.000 A 
ATOM     15  C   UNL     1       1.484   8.560  20.412  0.00  0.00    +0.000 A 
ATOM     16  C   UNL     1       2.128   7.324  20.094  0.00  0.00    +0.000 A 
ATOM     17  C   UNL     1       2.440   6.985  18.769  0.00  0.00    +0.000 A 
ATOM     18  C   UNL     1       2.072   7.870  17.750  0.00  0.00    +0.000 A 
ATOM     19  C   UNL     1       1.447   9.080  18.066  0.00  0.00    +0.000 A 
BRANCH  14  20
ATOM     20  O   UNL     1       0.548  10.656  19.547  0.00  0.00    +0.000 OA
BRANCH  20  21
ATOM     21  C   UNL     1       1.231  11.792  19.035  0.00  0.00    +0.000 C 
BRANCH  21  25
ATOM     22  C   UNL     1       3.110  14.545  20.955  0.00  0.00    +0.000 C 
ATOM     23  N   UNL     1       2.613  13.733  19.857  0.00  0.00    +0.000 N 
ATOM     24  C   UNL     1       3.176  13.936  18.534  0.00  0.00    +0.000 C 
ATOM     25  C   UNL     1       1.712  12.715  20.164  0.00  0.00    +0.000 C 
ATOM     26  O   UNL     1       1.276  12.571  21.311  0.00  0.00    +0.000 OA
ENDBRANCH  21  25
ENDBRANCH  20  21
ENDBRANCH  14  20
ENDBRANCH   1  17
BRANCH   3  27
ATOM     27  N   UNL     1       3.262   1.960  19.201  0.00  0.00    +0.000 N 
ATOM     28  H   UNL     1       2.528   1.918  19.912  0.00  0.00    +0.000 HD
ATOM     29  H   UNL     1       2.997   1.364  18.422  0.00  0.00    +0.000 HD
ENDBRANCH   3  27
BRANCH   2  30
ATOM     30  C   UNL     1       1.438   4.221  19.810  0.00  0.00    +0.000 C 
ATOM     31  N   UNL     1       0.475   4.057  20.442  0.00  0.00    +0.000 NA
ENDBRANCH   2  30
BRANCH  13  32
ATOM     32  C   UNL     1       4.739   6.780  17.057  0.00  0.00    +0.000 C 
ATOM     33  N   UNL     1       5.395   7.798  16.705  0.00  0.00    +0.000 NA
ENDBRANCH  13  32
TORSDOF 7
ENDMDL
