MODEL 1
REMARK VINA RESULT:      -9.6      0.000      0.000
REMARK  Name = 
REMARK  11 active torsions:
REMARK  status: ('A' for Active; 'I' for Inactive)
REMARK    1  A    between atoms: C_1  and  C_2
REMARK    2  A    between atoms: C_4  and  C_5
REMARK    3  A    between atoms: C_6  and  N_7
REMARK    4  A    between atoms: C_12  and  C_13
REMARK    5  A    between atoms: C_22  and  N_23
REMARK    6  A    between atoms: C_24  and  C_26
REMARK    7  A    between atoms: C_28  and  C_29
REMARK    8  A    between atoms: C_32  and  C_33
REMARK    9  A    between atoms: C_33  and  C_34
REMARK   10  A    between atoms: C_33  and  C_35
REMARK   11  A    between atoms: C_33  and  C_36
REMARK                            x       y       z     vdW  Elec       q    Type
REMARK                         _______ _______ _______ _____ _____    ______ ____
ROOT
ATOM      1  C   UNL     1      -0.111   8.563  21.889  0.00  0.00    +0.000 C 
ATOM      2  C   UNL     1       0.006   9.816  21.066  0.00  0.00    +0.000 A 
ATOM      3  C   UNL     1      -0.872  10.874  21.367  0.00  0.00    +0.000 A 
ATOM      4  C   UNL     1      -0.814  12.118  20.708  0.00  0.00    +0.000 A 
ATOM      5  C   UNL     1      -1.876  13.125  21.060  0.00  0.00    +0.000 C 
ATOM      6  C   UNL     1       0.209  12.348  19.767  0.00  0.00    +0.000 A 
ATOM      7  C   UNL     1       1.021  11.238  19.420  0.00  0.00    +0.000 A 
ATOM      8  C   UNL     1       0.907   9.969  20.004  0.00  0.00    +0.000 A 
ENDROOT
BRANCH   6   9
ATOM      9  N   UNL     1       0.473  13.619  19.176  0.00  0.00    +0.000 N 
ATOM     10  C   UNL     1      -0.447  14.672  19.010  0.00  0.00    +0.000 A 
ATOM     11  C   UNL     1       0.196  15.805  18.663  0.00  0.00    +0.000 A 
ATOM     12  N   UNL     1       1.541  15.492  18.630  0.00  0.00    +0.000 N 
ATOM     13  N   UNL     1       2.694  16.136  18.412  0.00  0.00    +0.000 NA
ATOM     14  C   UNL     1       3.637  15.183  18.584  0.00  0.00    +0.000 A 
ATOM     15  C   UNL     1       3.050  13.917  18.907  0.00  0.00    +0.000 A 
ATOM     16  C   UNL     1       1.711  14.167  18.946  0.00  0.00    +0.000 A 
BRANCH  14  17
ATOM     17  C   UNL     1       5.060  15.481  18.427  0.00  0.00    +0.000 A 
ATOM     18  C   UNL     1       5.617  16.682  18.878  0.00  0.00    +0.000 A 
ATOM     19  C   UNL     1       6.987  16.907  18.749  0.00  0.00    +0.000 A 
ATOM     20  C   UNL     1       7.763  15.924  18.160  0.00  0.00    +0.000 A 
ATOM     21  N   UNL     1       7.268  14.760  17.692  0.00  0.00    +0.000 NA
ATOM     22  C   UNL     1       5.930  14.567  17.837  0.00  0.00    +0.000 A 
ENDBRANCH  14  17
ENDBRANCH   6   9
BRANCH   8  23
ATOM     23  N   UNL     1       1.685   8.864  19.556  0.00  0.00    +0.000 N 
ATOM     24  C   UNL     1       2.109   8.620  18.253  0.00  0.00    +0.000 C 
ATOM     25  O   UNL     1       1.884   9.307  17.263  0.00  0.00    +0.000 OA
ATOM     26  H   UNL     1       1.781   8.103  20.214  0.00  0.00    +0.000 HD
BRANCH  24  27
ATOM     27  C   UNL     1       2.837   7.332  18.043  0.00  0.00    +0.000 A 
ATOM     28  C   UNL     1       4.077   7.287  17.403  0.00  0.00    +0.000 A 
ATOM     29  C   UNL     1       4.743   6.064  17.288  0.00  0.00    +0.000 A 
ATOM     30  C   UNL     1       4.179   4.892  17.819  0.00  0.00    +0.000 A 
ATOM     31  C   UNL     1       2.921   4.899  18.452  0.00  0.00    +0.000 A 
ATOM     32  C   UNL     1       2.256   6.142  18.525  0.00  0.00    +0.000 A 
BRANCH  31  33
ATOM     33  C   UNL     1       2.363   3.651  19.168  0.00  0.00    +0.000 C 
ATOM     34  C   UNL     1       1.876   2.685  18.067  0.00  0.00    +0.000 C 
ATOM     35  C   UNL     1       3.424   2.931  20.030  0.00  0.00    +0.000 C 
ATOM     36  C   UNL     1       1.170   3.941  20.108  0.00  0.00    +0.000 C 
ENDBRANCH  31  33
BRANCH  29  37
ATOM     37  C   UNL     1       6.035   6.013  16.665  0.00  0.00    +0.000 C 
ATOM     38  N   UNL     1       7.089   5.976  16.180  0.00  0.00    +0.000 NA
ENDBRANCH  29  37
ENDBRANCH  24  27
ENDBRANCH   8  23
TORSDOF 6
ENDMDL
MODEL 2
REMARK VINA RESULT:      -9.6      0.535      1.091
REMARK  Name = 
REMARK  11 active torsions:
REMARK  status: ('A' for Active; 'I' for Inactive)
REMARK    1  A    between atoms: C_1  and  C_2
REMARK    2  A    between atoms: C_4  and  C_5
REMARK    3  A    between atoms: C_6  and  N_7
REMARK    4  A    between atoms: C_12  and  C_13
REMARK    5  A    between atoms: C_22  and  N_23
REMARK    6  A    between atoms: C_24  and  C_26
REMARK    7  A    between atoms: C_28  and  C_29
REMARK    8  A    between atoms: C_32  and  C_33
REMARK    9  A    between atoms: C_33  and  C_34
REMARK   10  A    between atoms: C_33  and  C_35
REMARK   11  A    between atoms: C_33  and  C_36
REMARK                            x       y       z     vdW  Elec       q    Type
REMARK                         _______ _______ _______ _____ _____    ______ ____
ROOT
ATOM      1  C   UNL     1      -0.006   8.620  22.028  0.00  0.00    +0.000 C 
ATOM      2  C   UNL     1       0.085   9.856  21.177  0.00  0.00    +0.000 A 
ATOM      3  C   UNL     1      -0.728  10.949  21.531  0.00  0.00    +0.000 A 
ATOM      4  C   UNL     1      -0.682  12.180  20.848  0.00  0.00    +0.000 A 
ATOM      5  C   UNL     1      -1.676  13.229  21.269  0.00  0.00    +0.000 C 
ATOM      6  C   UNL     1       0.267  12.360  19.823  0.00  0.00    +0.000 A 
ATOM      7  C   UNL     1       1.009  11.216  19.429  0.00  0.00    +0.000 A 
ATOM      8  C   UNL     1       0.900   9.961  20.042  0.00  0.00    +0.000 A 
ENDROOT
BRANCH   6   9
ATOM      9  N   UNL     1       0.525  13.612  19.190  0.00  0.00    +0.000 N 
ATOM     10  C   UNL     1      -0.408  14.641  18.961  0.00  0.00    +0.000 A 
ATOM     11  C   UNL     1       0.225  15.771  18.587  0.00  0.00    +0.000 A 
ATOM     12  N   UNL     1       1.575  15.481  18.599  0.00  0.00    +0.000 N 
ATOM     13  N   UNL     1       2.722  16.137  18.385  0.00  0.00    +0.000 NA
ATOM     14  C   UNL     1       3.676  15.208  18.617  0.00  0.00    +0.000 A 
ATOM     15  C   UNL     1       3.102  13.945  18.973  0.00  0.00    +0.000 A 
ATOM     16  C   UNL     1       1.759  14.172  18.969  0.00  0.00    +0.000 A 
BRANCH  14  17
ATOM     17  C   UNL     1       5.098  15.524  18.483  0.00  0.00    +0.000 A 
ATOM     18  C   UNL     1       6.003  14.624  17.909  0.00  0.00    +0.000 A 
ATOM     19  C   UNL     1       7.342  14.983  17.759  0.00  0.00    +0.000 A 
ATOM     20  C   UNL     1       7.742  16.233  18.199  0.00  0.00    +0.000 A 
ATOM     21  N   UNL     1       6.910  17.124  18.775  0.00  0.00    +0.000 NA
ATOM     22  C   UNL     1       5.610  16.749  18.903  0.00  0.00    +0.000 A 
ENDBRANCH  14  17
ENDBRANCH   6   9
BRANCH   8  23
ATOM     23  N   UNL     1       1.599   8.822  19.551  0.00  0.00    +0.000 N 
ATOM     24  C   UNL     1       2.099   8.646  18.263  0.00  0.00    +0.000 C 
ATOM     25  O   UNL     1       2.021   9.433  17.327  0.00  0.00    +0.000 OA
ATOM     26  H   UNL     1       1.569   8.003  20.142  0.00  0.00    +0.000 HD
BRANCH  24  27
ATOM     27  C   UNL     1       2.712   7.311  17.989  0.00  0.00    +0.000 A 
ATOM     28  C   UNL     1       3.857   7.180  17.200  0.00  0.00    +0.000 A 
ATOM     29  C   UNL     1       4.425   5.915  17.025  0.00  0.00    +0.000 A 
ATOM     30  C   UNL     1       3.860   4.787  17.645  0.00  0.00    +0.000 A 
ATOM     31  C   UNL     1       2.694   4.882  18.429  0.00  0.00    +0.000 A 
ATOM     32  C   UNL     1       2.123   6.166  18.562  0.00  0.00    +0.000 A 
BRANCH  31  33
ATOM     33  C   UNL     1       2.154   3.681  19.233  0.00  0.00    +0.000 C 
ATOM     34  C   UNL     1       3.324   3.154  20.090  0.00  0.00    +0.000 C 
ATOM     35  C   UNL     1       0.983   4.063  20.167  0.00  0.00    +0.000 C 
ATOM     36  C   UNL     1       1.642   2.512  18.358  0.00  0.00    +0.000 C 
ENDBRANCH  31  33
BRANCH  29  37
ATOM     37  C   UNL     1       5.622   5.774  16.247  0.00  0.00    +0.000 C 
ATOM     38  N   UNL     1       6.598   5.678  15.624  0.00  0.00    +0.000 NA
ENDBRANCH  29  37
ENDBRANCH  24  27
ENDBRANCH   8  23
TORSDOF 6
ENDMDL
MODEL 3
REMARK VINA RESULT:      -9.3      1.628      2.212
REMARK  Name = 
REMARK  11 active torsions:
REMARK  status: ('A' for Active; 'I' for Inactive)
REMARK    1  A    between atoms: C_1  and  C_2
REMARK    2  A    between atoms: C_4  and  C_5
REMARK    3  A    between atoms: C_6  and  N_7
REMARK    4  A    between atoms: C_12  and  C_13
REMARK    5  A    between atoms: C_22  and  N_23
REMARK    6  A    between atoms: C_24  and  C_26
REMARK    7  A    between atoms: C_28  and  C_29
REMARK    8  A    between atoms: C_32  and  C_33
REMARK    9  A    between atoms: C_33  and  C_34
REMARK   10  A    between atoms: C_33  and  C_35
REMARK   11  A    between atoms: C_33  and  C_36
REMARK                            x       y       z     vdW  Elec       q    Type
REMARK                         _______ _______ _______ _____ _____    ______ ____
ROOT
ATOM      1  C   UNL     1      -1.364  10.228  17.766  0.00  0.00    +0.000 C 
ATOM      2  C   UNL     1      -0.396  11.237  18.319  0.00  0.00    +0.000 A 
ATOM      3  C   UNL     1      -0.847  12.564  18.450  0.00  0.00    +0.000 A 
ATOM      4  C   UNL     1      -0.052  13.581  19.014  0.00  0.00    +0.000 A 
ATOM      5  C   UNL     1      -0.621  14.975  19.002  0.00  0.00    +0.000 C 
ATOM      6  C   UNL     1       1.211  13.250  19.544  0.00  0.00    +0.000 A 
ATOM      7  C   UNL     1       1.673  11.928  19.318  0.00  0.00    +0.000 A 
ATOM      8  C   UNL     1       0.925  10.935  18.672  0.00  0.00    +0.000 A 
ENDROOT
BRANCH   6   9
ATOM      9  N   UNL     1       2.019  14.155  20.295  0.00  0.00    +0.000 N 
ATOM     10  C   UNL     1       1.838  14.516  21.644  0.00  0.00    +0.000 A 
ATOM     11  C   UNL     1       2.922  15.174  22.101  0.00  0.00    +0.000 A 
ATOM     12  N   UNL     1       3.820  15.217  21.053  0.00  0.00    +0.000 N 
ATOM     13  N   UNL     1       5.065  15.664  20.844  0.00  0.00    +0.000 NA
ATOM     14  C   UNL     1       5.321  15.323  19.561  0.00  0.00    +0.000 A 
ATOM     15  C   UNL     1       4.203  14.658  18.961  0.00  0.00    +0.000 A 
ATOM     16  C   UNL     1       3.275  14.595  19.957  0.00  0.00    +0.000 A 
BRANCH  14  17
ATOM     17  C   UNL     1       6.600  15.643  18.927  0.00  0.00    +0.000 A 
ATOM     18  C   UNL     1       7.057  16.960  18.812  0.00  0.00    +0.000 A 
ATOM     19  C   UNL     1       8.303  17.218  18.242  0.00  0.00    +0.000 A 
ATOM     20  C   UNL     1       9.055  16.146  17.792  0.00  0.00    +0.000 A 
ATOM     21  N   UNL     1       8.647  14.863  17.864  0.00  0.00    +0.000 NA
ATOM     22  C   UNL     1       7.431  14.643  18.429  0.00  0.00    +0.000 A 
ENDBRANCH  14  17
ENDBRANCH   6   9
BRANCH   8  23
ATOM     23  N   UNL     1       1.470   9.650  18.389  0.00  0.00    +0.000 N 
ATOM     24  C   UNL     1       1.648   8.606  19.293  0.00  0.00    +0.000 C 
ATOM     25  O   UNL     1       1.376   8.609  20.488  0.00  0.00    +0.000 OA
ATOM     26  H   UNL     1       1.928   9.558  17.494  0.00  0.00    +0.000 HD
BRANCH  24  27
ATOM     27  C   UNL     1       2.330   7.393  18.748  0.00  0.00    +0.000 A 
ATOM     28  C   UNL     1       3.373   7.493  17.825  0.00  0.00    +0.000 A 
ATOM     29  C   UNL     1       4.017   6.330  17.393  0.00  0.00    +0.000 A 
ATOM     30  C   UNL     1       3.630   5.074  17.889  0.00  0.00    +0.000 A 
ATOM     31  C   UNL     1       2.568   4.937  18.805  0.00  0.00    +0.000 A 
ATOM     32  C   UNL     1       1.914   6.124  19.198  0.00  0.00    +0.000 A 
BRANCH  31  33
ATOM     33  C   UNL     1       2.235   3.584  19.467  0.00  0.00    +0.000 C 
ATOM     34  C   UNL     1       3.576   2.961  19.910  0.00  0.00    +0.000 C 
ATOM     35  C   UNL     1       1.321   3.732  20.705  0.00  0.00    +0.000 C 
ATOM     36  C   UNL     1       1.529   2.576  18.530  0.00  0.00    +0.000 C 
ENDBRANCH  31  33
BRANCH  29  37
ATOM     37  C   UNL     1       5.115   6.424  16.474  0.00  0.00    +0.000 C 
ATOM     38  N   UNL     1       5.994   6.487  15.717  0.00  0.00    +0.000 NA
ENDBRANCH  29  37
ENDBRANCH  24  27
ENDBRANCH   8  23
TORSDOF 6
ENDMDL
MODEL 4
REMARK VINA RESULT:      -9.3      3.535      7.048
REMARK  Name = 
REMARK  11 active torsions:
REMARK  status: ('A' for Active; 'I' for Inactive)
REMARK    1  A    between atoms: C_1  and  C_2
REMARK    2  A    between atoms: C_4  and  C_5
REMARK    3  A    between atoms: C_6  and  N_7
REMARK    4  A    between atoms: C_12  and  C_13
REMARK    5  A    between atoms: C_22  and  N_23
REMARK    6  A    between atoms: C_24  and  C_26
REMARK    7  A    between atoms: C_28  and  C_29
REMARK    8  A    between atoms: C_32  and  C_33
REMARK    9  A    between atoms: C_33  and  C_34
REMARK   10  A    between atoms: C_33  and  C_35
REMARK   11  A    between atoms: C_33  and  C_36
REMARK                            x       y       z     vdW  Elec       q    Type
REMARK                         _______ _______ _______ _____ _____    ______ ____
ROOT
ATOM      1  C   UNL     1       2.704  11.881  18.402  0.00  0.00    +0.000 C 
ATOM      2  C   UNL     1       1.210  11.793  18.542  0.00  0.00    +0.000 A 
ATOM      3  C   UNL     1       0.518  12.975  18.870  0.00  0.00    +0.000 A 
ATOM      4  C   UNL     1      -0.887  13.029  18.965  0.00  0.00    +0.000 A 
ATOM      5  C   UNL     1      -1.488  14.331  19.421  0.00  0.00    +0.000 C 
ATOM      6  C   UNL     1      -1.639  11.882  18.642  0.00  0.00    +0.000 A 
ATOM      7  C   UNL     1      -0.915  10.687  18.403  0.00  0.00    +0.000 A 
ATOM      8  C   UNL     1       0.484  10.603  18.401  0.00  0.00    +0.000 A 
ENDROOT
BRANCH   6   9
ATOM      9  N   UNL     1      -3.062  11.873  18.529  0.00  0.00    +0.000 N 
ATOM     10  C   UNL     1      -3.816  11.247  17.518  0.00  0.00    +0.000 A 
ATOM     11  C   UNL     1      -5.119  11.213  17.861  0.00  0.00    +0.000 A 
ATOM     12  N   UNL     1      -5.207  11.794  19.110  0.00  0.00    +0.000 N 
ATOM     13  N   UNL     1      -6.161  12.031  20.018  0.00  0.00    +0.000 NA
ATOM     14  C   UNL     1      -5.499  12.613  21.043  0.00  0.00    +0.000 A 
ATOM     15  C   UNL     1      -4.101  12.746  20.755  0.00  0.00    +0.000 A 
ATOM     16  C   UNL     1      -3.958  12.191  19.519  0.00  0.00    +0.000 A 
BRANCH  14  17
ATOM     17  C   UNL     1      -6.194  13.042  22.256  0.00  0.00    +0.000 A 
ATOM     18  C   UNL     1      -5.898  14.256  22.885  0.00  0.00    +0.000 A 
ATOM     19  C   UNL     1      -6.616  14.649  24.014  0.00  0.00    +0.000 A 
ATOM     20  C   UNL     1      -7.606  13.807  24.490  0.00  0.00    +0.000 A 
ATOM     21  N   UNL     1      -7.912  12.620  23.929  0.00  0.00    +0.000 NA
ATOM     22  C   UNL     1      -7.199  12.266  22.827  0.00  0.00    +0.000 A 
ENDBRANCH  14  17
ENDBRANCH   6   9
BRANCH   8  23
ATOM     23  N   UNL     1       1.162   9.361  18.245  0.00  0.00    +0.000 N 
ATOM     24  C   UNL     1       1.499   8.466  19.257  0.00  0.00    +0.000 C 
ATOM     25  O   UNL     1       1.278   8.591  20.457  0.00  0.00    +0.000 OA
ATOM     26  H   UNL     1       1.590   9.208  17.343  0.00  0.00    +0.000 HD
BRANCH  24  27
ATOM     27  C   UNL     1       2.294   7.277  18.826  0.00  0.00    +0.000 A 
ATOM     28  C   UNL     1       3.345   7.392  17.914  0.00  0.00    +0.000 A 
ATOM     29  C   UNL     1       4.097   6.259  17.591  0.00  0.00    +0.000 A 
ATOM     30  C   UNL     1       3.807   5.018  18.184  0.00  0.00    +0.000 A 
ATOM     31  C   UNL     1       2.740   4.864  19.090  0.00  0.00    +0.000 A 
ATOM     32  C   UNL     1       1.978   6.018  19.373  0.00  0.00    +0.000 A 
BRANCH  31  33
ATOM     33  C   UNL     1       2.508   3.545  19.857  0.00  0.00    +0.000 C 
ATOM     34  C   UNL     1       2.392   3.913  21.352  0.00  0.00    +0.000 C 
ATOM     35  C   UNL     1       1.216   2.818  19.421  0.00  0.00    +0.000 C 
ATOM     36  C   UNL     1       3.652   2.516  19.709  0.00  0.00    +0.000 C 
ENDBRANCH  31  33
BRANCH  29  37
ATOM     37  C   UNL     1       5.203   6.373  16.685  0.00  0.00    +0.000 C 
ATOM     38  N   UNL     1       6.093   6.448  15.941  0.00  0.00    +0.000 NA
ENDBRANCH  29  37
ENDBRANCH  24  27
ENDBRANCH   8  23
TORSDOF 6
ENDMDL
MODEL 5
REMARK VINA RESULT:      -9.2      1.431      2.687
REMARK  Name = 
REMARK  11 active torsions:
REMARK  status: ('A' for Active; 'I' for Inactive)
REMARK    1  A    between atoms: C_1  and  C_2
REMARK    2  A    between atoms: C_4  and  C_5
REMARK    3  A    between atoms: C_6  and  N_7
REMARK    4  A    between atoms: C_12  and  C_13
REMARK    5  A    between atoms: C_22  and  N_23
REMARK    6  A    between atoms: C_24  and  C_26
REMARK    7  A    between atoms: C_28  and  C_29
REMARK    8  A    between atoms: C_32  and  C_33
REMARK    9  A    between atoms: C_33  and  C_34
REMARK   10  A    between atoms: C_33  and  C_35
REMARK   11  A    between atoms: C_33  and  C_36
REMARK                            x       y       z     vdW  Elec       q    Type
REMARK                         _______ _______ _______ _____ _____    ______ ____
ROOT
ATOM      1  C   UNL     1      -0.035   8.656  22.195  0.00  0.00    +0.000 C 
ATOM      2  C   UNL     1       0.060   9.867  21.310  0.00  0.00    +0.000 A 
ATOM      3  C   UNL     1      -0.724  10.985  21.655  0.00  0.00    +0.000 A 
ATOM      4  C   UNL     1      -0.670  12.197  20.938  0.00  0.00    +0.000 A 
ATOM      5  C   UNL     1      -1.633  13.277  21.356  0.00  0.00    +0.000 C 
ATOM      6  C   UNL     1       0.257  12.331  19.886  0.00  0.00    +0.000 A 
ATOM      7  C   UNL     1       0.966  11.164  19.505  0.00  0.00    +0.000 A 
ATOM      8  C   UNL     1       0.848   9.927  20.154  0.00  0.00    +0.000 A 
ENDROOT
BRANCH   6   9
ATOM      9  N   UNL     1       0.523  13.561  19.214  0.00  0.00    +0.000 N 
ATOM     10  C   UNL     1      -0.407  14.582  18.939  0.00  0.00    +0.000 A 
ATOM     11  C   UNL     1       0.231  15.699  18.535  0.00  0.00    +0.000 A 
ATOM     12  N   UNL     1       1.580  15.409  18.573  0.00  0.00    +0.000 N 
ATOM     13  N   UNL     1       2.731  16.057  18.351  0.00  0.00    +0.000 NA
ATOM     14  C   UNL     1       3.682  15.136  18.626  0.00  0.00    +0.000 A 
ATOM     15  C   UNL     1       3.103  13.886  19.018  0.00  0.00    +0.000 A 
ATOM     16  C   UNL     1       1.760  14.113  18.990  0.00  0.00    +0.000 A 
BRANCH  14  17
ATOM     17  C   UNL     1       5.105  15.448  18.498  0.00  0.00    +0.000 A 
ATOM     18  C   UNL     1       6.003  14.562  17.892  0.00  0.00    +0.000 A 
ATOM     19  C   UNL     1       7.343  14.917  17.750  0.00  0.00    +0.000 A 
ATOM     20  C   UNL     1       7.752  16.149  18.231  0.00  0.00    +0.000 A 
ATOM     21  N   UNL     1       6.929  17.025  18.840  0.00  0.00    +0.000 NA
ATOM     22  C   UNL     1       5.627  16.654  18.959  0.00  0.00    +0.000 A 
ENDBRANCH  14  17
ENDBRANCH   6   9
BRANCH   8  23
ATOM     23  N   UNL     1       1.513   8.762  19.676  0.00  0.00    +0.000 N 
ATOM     24  C   UNL     1       1.985   8.546  18.384  0.00  0.00    +0.000 C 
ATOM     25  O   UNL     1       1.907   9.313  17.431  0.00  0.00    +0.000 OA
ATOM     26  H   UNL     1       1.476   7.957  20.285  0.00  0.00    +0.000 HD
BRANCH  24  27
ATOM     27  C   UNL     1       2.564   7.191  18.129  0.00  0.00    +0.000 A 
ATOM     28  C   UNL     1       1.809   6.029  18.303  0.00  0.00    +0.000 A 
ATOM     29  C   UNL     1       2.379   4.792  17.991  0.00  0.00    +0.000 A 
ATOM     30  C   UNL     1       3.693   4.715  17.498  0.00  0.00    +0.000 A 
ATOM     31  C   UNL     1       4.487   5.866  17.332  0.00  0.00    +0.000 A 
ATOM     32  C   UNL     1       3.897   7.099  17.685  0.00  0.00    +0.000 A 
BRANCH  31  33
ATOM     33  C   UNL     1       5.872   5.809  16.653  0.00  0.00    +0.000 C 
ATOM     34  C   UNL     1       6.590   4.561  17.210  0.00  0.00    +0.000 C 
ATOM     35  C   UNL     1       5.780   5.687  15.115  0.00  0.00    +0.000 C 
ATOM     36  C   UNL     1       6.767   7.038  16.934  0.00  0.00    +0.000 C 
ENDBRANCH  31  33
BRANCH  29  37
ATOM     37  C   UNL     1       1.601   3.595  18.130  0.00  0.00    +0.000 C 
ATOM     38  N   UNL     1       0.973   2.627  18.263  0.00  0.00    +0.000 NA
ENDBRANCH  29  37
ENDBRANCH  24  27
ENDBRANCH   8  23
TORSDOF 6
ENDMDL
MODEL 6
REMARK VINA RESULT:      -9.2      1.752      2.455
REMARK  Name = 
REMARK  11 active torsions:
REMARK  status: ('A' for Active; 'I' for Inactive)
REMARK    1  A    between atoms: C_1  and  C_2
REMARK    2  A    between atoms: C_4  and  C_5
REMARK    3  A    between atoms: C_6  and  N_7
REMARK    4  A    between atoms: C_12  and  C_13
REMARK    5  A    between atoms: C_22  and  N_23
REMARK    6  A    between atoms: C_24  and  C_26
REMARK    7  A    between atoms: C_28  and  C_29
REMARK    8  A    between atoms: C_32  and  C_33
REMARK    9  A    between atoms: C_33  and  C_34
REMARK   10  A    between atoms: C_33  and  C_35
REMARK   11  A    between atoms: C_33  and  C_36
REMARK                            x       y       z     vdW  Elec       q    Type
REMARK                         _______ _______ _______ _____ _____    ______ ____
ROOT
ATOM      1  C   UNL     1      -1.367  10.418  17.957  0.00  0.00    +0.000 C 
ATOM      2  C   UNL     1      -0.384  11.429  18.479  0.00  0.00    +0.000 A 
ATOM      3  C   UNL     1      -0.827  12.760  18.603  0.00  0.00    +0.000 A 
ATOM      4  C   UNL     1      -0.017  13.781  19.139  0.00  0.00    +0.000 A 
ATOM      5  C   UNL     1      -0.581  15.176  19.121  0.00  0.00    +0.000 C 
ATOM      6  C   UNL     1       1.255  13.451  19.647  0.00  0.00    +0.000 A 
ATOM      7  C   UNL     1       1.708  12.125  19.429  0.00  0.00    +0.000 A 
ATOM      8  C   UNL     1       0.943  11.126  18.809  0.00  0.00    +0.000 A 
ENDROOT
BRANCH   6   9
ATOM      9  N   UNL     1       2.081  14.361  20.372  0.00  0.00    +0.000 N 
ATOM     10  C   UNL     1       1.880  14.803  21.694  0.00  0.00    +0.000 A 
ATOM     11  C   UNL     1       2.979  15.440  22.145  0.00  0.00    +0.000 A 
ATOM     12  N   UNL     1       3.905  15.389  21.122  0.00  0.00    +0.000 N 
ATOM     13  N   UNL     1       5.172  15.771  20.924  0.00  0.00    +0.000 NA
ATOM     14  C   UNL     1       5.448  15.350  19.669  0.00  0.00    +0.000 A 
ATOM     15  C   UNL     1       4.318  14.700  19.075  0.00  0.00    +0.000 A 
ATOM     16  C   UNL     1       3.363  14.730  20.046  0.00  0.00    +0.000 A 
BRANCH  14  17
ATOM     17  C   UNL     1       6.755  15.582  19.056  0.00  0.00    +0.000 A 
ATOM     18  C   UNL     1       7.590  14.525  18.677  0.00  0.00    +0.000 A 
ATOM     19  C   UNL     1       8.808  14.789  18.053  0.00  0.00    +0.000 A 
ATOM     20  C   UNL     1       9.164  16.109  17.836  0.00  0.00    +0.000 A 
ATOM     21  N   UNL     1       8.403  17.159  18.203  0.00  0.00    +0.000 NA
ATOM     22  C   UNL     1       7.218  16.871  18.803  0.00  0.00    +0.000 A 
ENDBRANCH  14  17
ENDBRANCH   6   9
BRANCH   8  23
ATOM     23  N   UNL     1       1.477   9.836  18.531  0.00  0.00    +0.000 N 
ATOM     24  C   UNL     1       1.657   8.797  19.440  0.00  0.00    +0.000 C 
ATOM     25  O   UNL     1       1.396   8.811  20.638  0.00  0.00    +0.000 OA
ATOM     26  H   UNL     1       1.927   9.735  17.632  0.00  0.00    +0.000 HD
BRANCH  24  27
ATOM     27  C   UNL     1       2.327   7.576  18.898  0.00  0.00    +0.000 A 
ATOM     28  C   UNL     1       3.288   7.657  17.889  0.00  0.00    +0.000 A 
ATOM     29  C   UNL     1       3.928   6.491  17.460  0.00  0.00    +0.000 A 
ATOM     30  C   UNL     1       3.619   5.251  18.045  0.00  0.00    +0.000 A 
ATOM     31  C   UNL     1       2.639   5.133  19.050  0.00  0.00    +0.000 A 
ATOM     32  C   UNL     1       1.985   6.322  19.440  0.00  0.00    +0.000 A 
BRANCH  31  33
ATOM     33  C   UNL     1       2.399   3.806  19.800  0.00  0.00    +0.000 C 
ATOM     34  C   UNL     1       2.075   4.174  21.264  0.00  0.00    +0.000 C 
ATOM     35  C   UNL     1       1.221   2.993  19.217  0.00  0.00    +0.000 C 
ATOM     36  C   UNL     1       3.617   2.853  19.809  0.00  0.00    +0.000 C 
ENDBRANCH  31  33
BRANCH  29  37
ATOM     37  C   UNL     1       4.944   6.567  16.450  0.00  0.00    +0.000 C 
ATOM     38  N   UNL     1       5.776   6.612  15.640  0.00  0.00    +0.000 NA
ENDBRANCH  29  37
ENDBRANCH  24  27
ENDBRANCH   8  23
TORSDOF 6
ENDMDL
MODEL 7
REMARK VINA RESULT:      -9.1      2.155      3.406
REMARK  Name = 
REMARK  11 active torsions:
REMARK  status: ('A' for Active; 'I' for Inactive)
REMARK    1  A    between atoms: C_1  and  C_2
REMARK    2  A    between atoms: C_4  and  C_5
REMARK    3  A    between atoms: C_6  and  N_7
REMARK    4  A    between atoms: C_12  and  C_13
REMARK    5  A    between atoms: C_22  and  N_23
REMARK    6  A    between atoms: C_24  and  C_26
REMARK    7  A    between atoms: C_28  and  C_29
REMARK    8  A    between atoms: C_32  and  C_33
REMARK    9  A    between atoms: C_33  and  C_34
REMARK   10  A    between atoms: C_33  and  C_35
REMARK   11  A    between atoms: C_33  and  C_36
REMARK                            x       y       z     vdW  Elec       q    Type
REMARK                         _______ _______ _______ _____ _____    ______ ____
ROOT
ATOM      1  C   UNL     1      -1.315   9.884  18.060  0.00  0.00    +0.000 C 
ATOM      2  C   UNL     1      -0.368  10.935  18.569  0.00  0.00    +0.000 A 
ATOM      3  C   UNL     1      -0.735  12.281  18.386  0.00  0.00    +0.000 A 
ATOM      4  C   UNL     1       0.040  13.351  18.878  0.00  0.00    +0.000 A 
ATOM      5  C   UNL     1      -0.418  14.741  18.526  0.00  0.00    +0.000 C 
ATOM      6  C   UNL     1       1.184  13.069  19.650  0.00  0.00    +0.000 A 
ATOM      7  C   UNL     1       1.577  11.710  19.741  0.00  0.00    +0.000 A 
ATOM      8  C   UNL     1       0.862  10.646  19.174  0.00  0.00    +0.000 A 
ENDROOT
BRANCH   6   9
ATOM      9  N   UNL     1       1.938  14.063  20.344  0.00  0.00    +0.000 N 
ATOM     10  C   UNL     1       1.693  14.539  21.647  0.00  0.00    +0.000 A 
ATOM     11  C   UNL     1       2.739  15.269  22.081  0.00  0.00    +0.000 A 
ATOM     12  N   UNL     1       3.677  15.244  21.068  0.00  0.00    +0.000 N 
ATOM     13  N   UNL     1       4.917  15.707  20.865  0.00  0.00    +0.000 NA
ATOM     14  C   UNL     1       5.233  15.259  19.629  0.00  0.00    +0.000 A 
ATOM     15  C   UNL     1       4.158  14.509  19.052  0.00  0.00    +0.000 A 
ATOM     16  C   UNL     1       3.194  14.508  20.014  0.00  0.00    +0.000 A 
BRANCH  14  17
ATOM     17  C   UNL     1       6.528  15.559  19.017  0.00  0.00    +0.000 A 
ATOM     18  C   UNL     1       7.319  14.560  18.438  0.00  0.00    +0.000 A 
ATOM     19  C   UNL     1       8.525  14.895  17.825  0.00  0.00    +0.000 A 
ATOM     20  C   UNL     1       8.913  16.224  17.818  0.00  0.00    +0.000 A 
ATOM     21  N   UNL     1       8.194  17.216  18.380  0.00  0.00    +0.000 NA
ATOM     22  C   UNL     1       7.020  16.860  18.966  0.00  0.00    +0.000 A 
ENDBRANCH  14  17
ENDBRANCH   6   9
BRANCH   8  23
ATOM     23  N   UNL     1       1.347   9.308  19.215  0.00  0.00    +0.000 N 
ATOM     24  C   UNL     1       1.298   8.440  20.302  0.00  0.00    +0.000 C 
ATOM     25  O   UNL     1       0.836   8.674  21.414  0.00  0.00    +0.000 OA
ATOM     26  H   UNL     1       1.937   9.034  18.442  0.00  0.00    +0.000 HD
BRANCH  24  27
ATOM     27  C   UNL     1       1.966   7.118  20.101  0.00  0.00    +0.000 A 
ATOM     28  C   UNL     1       1.584   5.987  20.825  0.00  0.00    +0.000 A 
ATOM     29  C   UNL     1       2.200   4.763  20.554  0.00  0.00    +0.000 A 
ATOM     30  C   UNL     1       3.185   4.664  19.557  0.00  0.00    +0.000 A 
ATOM     31  C   UNL     1       3.608   5.790  18.824  0.00  0.00    +0.000 A 
ATOM     32  C   UNL     1       2.993   7.020  19.141  0.00  0.00    +0.000 A 
BRANCH  31  33
ATOM     33  C   UNL     1       4.577   5.666  17.630  0.00  0.00    +0.000 C 
ATOM     34  C   UNL     1       4.194   4.375  16.876  0.00  0.00    +0.000 C 
ATOM     35  C   UNL     1       4.481   6.861  16.654  0.00  0.00    +0.000 C 
ATOM     36  C   UNL     1       6.067   5.558  18.031  0.00  0.00    +0.000 C 
ENDBRANCH  31  33
BRANCH  29  37
ATOM     37  C   UNL     1       1.789   3.587  21.266  0.00  0.00    +0.000 C 
ATOM     38  N   UNL     1       1.460   2.644  21.860  0.00  0.00    +0.000 NA
ENDBRANCH  29  37
ENDBRANCH  24  27
ENDBRANCH   8  23
TORSDOF 6
ENDMDL
MODEL 8
REMARK VINA RESULT:      -9.1      1.389      2.586
REMARK  Name = 
REMARK  11 active torsions:
REMARK  status: ('A' for Active; 'I' for Inactive)
REMARK    1  A    between atoms: C_1  and  C_2
REMARK    2  A    between atoms: C_4  and  C_5
REMARK    3  A    between atoms: C_6  and  N_7
REMARK    4  A    between atoms: C_12  and  C_13
REMARK    5  A    between atoms: C_22  and  N_23
REMARK    6  A    between atoms: C_24  and  C_26
REMARK    7  A    between atoms: C_28  and  C_29
REMARK    8  A    between atoms: C_32  and  C_33
REMARK    9  A    between atoms: C_33  and  C_34
REMARK   10  A    between atoms: C_33  and  C_35
REMARK   11  A    between atoms: C_33  and  C_36
REMARK                            x       y       z     vdW  Elec       q    Type
REMARK                         _______ _______ _______ _____ _____    ______ ____
ROOT
ATOM      1  C   UNL     1      -0.262   8.624  22.008  0.00  0.00    +0.000 C 
ATOM      2  C   UNL     1      -0.077   9.848  21.154  0.00  0.00    +0.000 A 
ATOM      3  C   UNL     1      -0.854  10.979  21.465  0.00  0.00    +0.000 A 
ATOM      4  C   UNL     1      -0.721  12.202  20.776  0.00  0.00    +0.000 A 
ATOM      5  C   UNL     1      -1.684  13.298  21.146  0.00  0.00    +0.000 C 
ATOM      6  C   UNL     1       0.280  12.329  19.794  0.00  0.00    +0.000 A 
ATOM      7  C   UNL     1       0.986  11.151  19.441  0.00  0.00    +0.000 A 
ATOM      8  C   UNL     1       0.792   9.906  20.056  0.00  0.00    +0.000 A 
ENDROOT
BRANCH   6   9
ATOM      9  N   UNL     1       0.623  13.564  19.165  0.00  0.00    +0.000 N 
ATOM     10  C   UNL     1      -0.261  14.612  18.843  0.00  0.00    +0.000 A 
ATOM     11  C   UNL     1       0.431  15.719  18.506  0.00  0.00    +0.000 A 
ATOM     12  N   UNL     1       1.767  15.395  18.636  0.00  0.00    +0.000 N 
ATOM     13  N   UNL     1       2.946  16.019  18.510  0.00  0.00    +0.000 NA
ATOM     14  C   UNL     1       3.852  15.070  18.835  0.00  0.00    +0.000 A 
ATOM     15  C   UNL     1       3.217  13.828  19.162  0.00  0.00    +0.000 A 
ATOM     16  C   UNL     1       1.886  14.089  19.041  0.00  0.00    +0.000 A 
BRANCH  14  17
ATOM     17  C   UNL     1       5.288  15.349  18.817  0.00  0.00    +0.000 A 
ATOM     18  C   UNL     1       5.901  16.126  19.805  0.00  0.00    +0.000 A 
ATOM     19  C   UNL     1       7.280  16.329  19.776  0.00  0.00    +0.000 A 
ATOM     20  C   UNL     1       8.008  15.756  18.748  0.00  0.00    +0.000 A 
ATOM     21  N   UNL     1       7.458  15.017  17.763  0.00  0.00    +0.000 NA
ATOM     22  C   UNL     1       6.113  14.831  17.822  0.00  0.00    +0.000 A 
ENDBRANCH  14  17
ENDBRANCH   6   9
BRANCH   8  23
ATOM     23  N   UNL     1       1.460   8.733  19.604  0.00  0.00    +0.000 N 
ATOM     24  C   UNL     1       2.017   8.527  18.344  0.00  0.00    +0.000 C 
ATOM     25  O   UNL     1       2.024   9.313  17.403  0.00  0.00    +0.000 OA
ATOM     26  H   UNL     1       1.360   7.919  20.194  0.00  0.00    +0.000 HD
BRANCH  24  27
ATOM     27  C   UNL     1       2.578   7.163  18.105  0.00  0.00    +0.000 A 
ATOM     28  C   UNL     1       1.809   6.012  18.293  0.00  0.00    +0.000 A 
ATOM     29  C   UNL     1       2.363   4.764  17.996  0.00  0.00    +0.000 A 
ATOM     30  C   UNL     1       3.675   4.665  17.502  0.00  0.00    +0.000 A 
ATOM     31  C   UNL     1       4.484   5.805  17.321  0.00  0.00    +0.000 A 
ATOM     32  C   UNL     1       3.910   7.049  17.660  0.00  0.00    +0.000 A 
BRANCH  31  33
ATOM     33  C   UNL     1       5.866   5.722  16.641  0.00  0.00    +0.000 C 
ATOM     34  C   UNL     1       6.610   7.030  16.981  0.00  0.00    +0.000 C 
ATOM     35  C   UNL     1       6.708   4.525  17.139  0.00  0.00    +0.000 C 
ATOM     36  C   UNL     1       5.808   5.595  15.101  0.00  0.00    +0.000 C 
ENDBRANCH  31  33
BRANCH  29  37
ATOM     37  C   UNL     1       1.570   3.578  18.150  0.00  0.00    +0.000 C 
ATOM     38  N   UNL     1       0.938   2.615  18.292  0.00  0.00    +0.000 NA
ENDBRANCH  29  37
ENDBRANCH  24  27
ENDBRANCH   8  23
TORSDOF 6
ENDMDL
MODEL 9
REMARK VINA RESULT:      -9.1      2.122      3.314
REMARK  Name = 
REMARK  11 active torsions:
REMARK  status: ('A' for Active; 'I' for Inactive)
REMARK    1  A    between atoms: C_1  and  C_2
REMARK    2  A    between atoms: C_4  and  C_5
REMARK    3  A    between atoms: C_6  and  N_7
REMARK    4  A    between atoms: C_12  and  C_13
REMARK    5  A    between atoms: C_22  and  N_23
REMARK    6  A    between atoms: C_24  and  C_26
REMARK    7  A    between atoms: C_28  and  C_29
REMARK    8  A    between atoms: C_32  and  C_33
REMARK    9  A    between atoms: C_33  and  C_34
REMARK   10  A    between atoms: C_33  and  C_35
REMARK   11  A    between atoms: C_33  and  C_36
REMARK                            x       y       z     vdW  Elec       q    Type
REMARK                         _______ _______ _______ _____ _____    ______ ____
ROOT
ATOM      1  C   UNL     1      -1.268   9.921  18.016  0.00  0.00    +0.000 C 
ATOM      2  C   UNL     1      -0.338  10.976  18.548  0.00  0.00    +0.000 A 
ATOM      3  C   UNL     1      -0.708  12.321  18.358  0.00  0.00    +0.000 A 
ATOM      4  C   UNL     1       0.050  13.394  18.868  0.00  0.00    +0.000 A 
ATOM      5  C   UNL     1      -0.407  14.782  18.506  0.00  0.00    +0.000 C 
ATOM      6  C   UNL     1       1.177  13.118  19.667  0.00  0.00    +0.000 A 
ATOM      7  C   UNL     1       1.575  11.760  19.766  0.00  0.00    +0.000 A 
ATOM      8  C   UNL     1       0.879  10.694  19.181  0.00  0.00    +0.000 A 
ENDROOT
BRANCH   6   9
ATOM      9  N   UNL     1       1.908  14.115  20.380  0.00  0.00    +0.000 N 
ATOM     10  C   UNL     1       1.666  14.547  21.698  0.00  0.00    +0.000 A 
ATOM     11  C   UNL     1       2.695  15.297  22.140  0.00  0.00    +0.000 A 
ATOM     12  N   UNL     1       3.619  15.330  21.115  0.00  0.00    +0.000 N 
ATOM     13  N   UNL     1       4.841  15.837  20.910  0.00  0.00    +0.000 NA
ATOM     14  C   UNL     1       5.155  15.434  19.658  0.00  0.00    +0.000 A 
ATOM     15  C   UNL     1       4.096  14.666  19.074  0.00  0.00    +0.000 A 
ATOM     16  C   UNL     1       3.145  14.608  20.047  0.00  0.00    +0.000 A 
BRANCH  14  17
ATOM     17  C   UNL     1       6.431  15.791  19.039  0.00  0.00    +0.000 A 
ATOM     18  C   UNL     1       6.897  17.110  19.017  0.00  0.00    +0.000 A 
ATOM     19  C   UNL     1       8.139  17.401  18.457  0.00  0.00    +0.000 A 
ATOM     20  C   UNL     1       8.880  16.361  17.921  0.00  0.00    +0.000 A 
ATOM     21  N   UNL     1       8.463  15.079  17.901  0.00  0.00    +0.000 NA
ATOM     22  C   UNL     1       7.250  14.825  18.460  0.00  0.00    +0.000 A 
ENDBRANCH  14  17
ENDBRANCH   6   9
BRANCH   8  23
ATOM     23  N   UNL     1       1.370   9.358  19.234  0.00  0.00    +0.000 N 
ATOM     24  C   UNL     1       1.265   8.475  20.305  0.00  0.00    +0.000 C 
ATOM     25  O   UNL     1       0.740   8.692  21.392  0.00  0.00    +0.000 OA
ATOM     26  H   UNL     1       2.004   9.097  18.492  0.00  0.00    +0.000 HD
BRANCH  24  27
ATOM     27  C   UNL     1       1.953   7.161  20.125  0.00  0.00    +0.000 A 
ATOM     28  C   UNL     1       1.583   6.035  20.863  0.00  0.00    +0.000 A 
ATOM     29  C   UNL     1       2.217   4.815  20.612  0.00  0.00    +0.000 A 
ATOM     30  C   UNL     1       3.209   4.717  19.621  0.00  0.00    +0.000 A 
ATOM     31  C   UNL     1       3.620   5.839  18.875  0.00  0.00    +0.000 A 
ATOM     32  C   UNL     1       2.986   7.064  19.172  0.00  0.00    +0.000 A 
BRANCH  31  33
ATOM     33  C   UNL     1       4.597   5.712  17.688  0.00  0.00    +0.000 C 
ATOM     34  C   UNL     1       4.465   7.008  16.860  0.00  0.00    +0.000 C 
ATOM     35  C   UNL     1       6.068   5.555  18.136  0.00  0.00    +0.000 C 
ATOM     36  C   UNL     1       4.303   4.518  16.750  0.00  0.00    +0.000 C 
ENDBRANCH  31  33
BRANCH  29  37
ATOM     37  C   UNL     1       1.818   3.643  21.337  0.00  0.00    +0.000 C 
ATOM     38  N   UNL     1       1.481   2.705  21.934  0.00  0.00    +0.000 NA
ENDBRANCH  29  37
ENDBRANCH  24  27
ENDBRANCH   8  23
TORSDOF 6
ENDMDL
