MODEL 1
REMARK VINA RESULT:      -6.4      0.000      0.000
REMARK  Name = 
REMARK  10 active torsions:
REMARK  status: ('A' for Active; 'I' for Inactive)
REMARK    1  A    between atoms: C_1  and  C_2
REMARK    2  A    between atoms: C_2  and  C_3
REMARK    3  A    between atoms: C_2  and  N_4
REMARK    4  A    between atoms: N_4  and  C_5
REMARK    5  A    between atoms: C_5  and  C_6
REMARK    6  A    between atoms: C_6  and  O_7
REMARK    7  A    between atoms: C_6  and  C_8
REMARK    8  A    between atoms: C_8  and  O_9
REMARK    9  A    between atoms: O_9  and  C_10
REMARK   10  A    between atoms: C_13  and  C_14
REMARK                            x       y       z     vdW  Elec       q    Type
REMARK                         _______ _______ _______ _____ _____    ______ ____
ROOT
ATOM      1  C   UNL     1       4.184   5.117  17.930  0.00  0.00    +0.000 A 
ATOM      2  C   UNL     1       4.475   6.188  17.085  0.00  0.00    +0.000 A 
ATOM      3  C   UNL     1       5.172   5.995  15.900  0.00  0.00    +0.000 A 
ATOM      4  C   UNL     1       5.588   4.724  15.526  0.00  0.00    +0.000 A 
ATOM      5  C   UNL     1       5.299   3.636  16.366  0.00  0.00    +0.000 A 
ATOM      6  C   UNL     1       4.599   3.833  17.566  0.00  0.00    +0.000 A 
ENDROOT
BRANCH   4   7
ATOM      7  C   UNL     1       6.321   4.569  14.271  0.00  0.00    +0.000 A 
ATOM      8  N   UNL     1       7.323   5.323  13.857  0.00  0.00    +0.000 NA
ATOM      9  C   UNL     1       7.682   4.823  12.633  0.00  0.00    +0.000 A 
ATOM     10  C   UNL     1       6.867   3.775  12.278  0.00  0.00    +0.000 A 
ATOM     11  N   UNL     1       6.004   3.633  13.329  0.00  0.00    +0.000 N 
ATOM     12  H   UNL     1       5.247   2.970  13.393  0.00  0.00    +0.000 HD
ENDBRANCH   4   7
BRANCH   1  13
ATOM     13  O   UNL     1       3.502   5.264  19.114  0.00  0.00    +0.000 OA
BRANCH  13  14
ATOM     14  C   UNL     1       2.920   6.572  19.282  0.00  0.00    +0.000 C 
BRANCH  14  15
ATOM     15  C   UNL     1       1.761   6.543  20.272  0.00  0.00    +0.000 C 
BRANCH  15  16
ATOM     16  O   UNL     1       1.875   7.625  21.200  0.00  0.00    +0.000 OA
ATOM     17  H   UNL     1       1.160   8.249  20.981  0.00  0.00    +0.000 HD
ENDBRANCH  15  16
BRANCH  15  18
ATOM     18  C   UNL     1       1.748   5.197  21.000  0.00  0.00    +0.000 C 
BRANCH  18  19
ATOM     19  N   UNL     1       0.869   4.248  20.314  0.00  0.00    +0.000 NA
ATOM     20  H   UNL     1      -0.088   4.416  20.639  0.00  0.00    +0.000 HD
BRANCH  19  22
ATOM     21  C   UNL     1       1.588   2.231  19.180  0.00  0.00    +0.000 C 
ATOM     22  C   UNL     1       1.254   2.853  20.535  0.00  0.00    +0.000 C 
ATOM     23  C   UNL     1       2.464   2.739  21.464  0.00  0.00    +0.000 C 
ENDBRANCH  19  22
ENDBRANCH  18  19
ENDBRANCH  15  18
ENDBRANCH  14  15
ENDBRANCH  13  14
ENDBRANCH   1  13
TORSDOF 8
ENDMDL
MODEL 2
REMARK VINA RESULT:      -6.3      1.294      1.755
REMARK  Name = 
REMARK  10 active torsions:
REMARK  status: ('A' for Active; 'I' for Inactive)
REMARK    1  A    between atoms: C_1  and  C_2
REMARK    2  A    between atoms: C_2  and  C_3
REMARK    3  A    between atoms: C_2  and  N_4
REMARK    4  A    between atoms: N_4  and  C_5
REMARK    5  A    between atoms: C_5  and  C_6
REMARK    6  A    between atoms: C_6  and  O_7
REMARK    7  A    between atoms: C_6  and  C_8
REMARK    8  A    between atoms: C_8  and  O_9
REMARK    9  A    between atoms: O_9  and  C_10
REMARK   10  A    between atoms: C_13  and  C_14
REMARK                            x       y       z     vdW  Elec       q    Type
REMARK                         _______ _______ _______ _____ _____    ______ ____
ROOT
ATOM      1  C   UNL     1       4.497   5.727  18.479  0.00  0.00    +0.000 A 
ATOM      2  C   UNL     1       4.296   6.533  17.359  0.00  0.00    +0.000 A 
ATOM      3  C   UNL     1       4.927   6.255  16.155  0.00  0.00    +0.000 A 
ATOM      4  C   UNL     1       5.772   5.159  16.039  0.00  0.00    +0.000 A 
ATOM      5  C   UNL     1       5.982   4.337  17.158  0.00  0.00    +0.000 A 
ATOM      6  C   UNL     1       5.347   4.622  18.376  0.00  0.00    +0.000 A 
ENDROOT
BRANCH   4   7
ATOM      7  C   UNL     1       6.419   4.906  14.751  0.00  0.00    +0.000 A 
ATOM      8  N   UNL     1       6.013   4.049  13.833  0.00  0.00    +0.000 NA
ATOM      9  C   UNL     1       6.924   4.138  12.814  0.00  0.00    +0.000 A 
ATOM     10  C   UNL     1       7.919   5.033  13.130  0.00  0.00    +0.000 A 
ATOM     11  N   UNL     1       7.584   5.505  14.368  0.00  0.00    +0.000 N 
ATOM     12  H   UNL     1       8.113   6.165  14.918  0.00  0.00    +0.000 HD
ENDBRANCH   4   7
BRANCH   1  13
ATOM     13  O   UNL     1       3.897   5.968  19.691  0.00  0.00    +0.000 OA
BRANCH  13  14
ATOM     14  C   UNL     1       2.470   6.155  19.596  0.00  0.00    +0.000 C 
BRANCH  14  15
ATOM     15  C   UNL     1       1.725   5.252  20.572  0.00  0.00    +0.000 C 
BRANCH  15  16
ATOM     16  O   UNL     1       2.552   4.952  21.699  0.00  0.00    +0.000 OA
ATOM     17  H   UNL     1       2.061   4.301  22.233  0.00  0.00    +0.000 HD
ENDBRANCH  15  16
BRANCH  15  18
ATOM     18  C   UNL     1       1.294   3.972  19.853  0.00  0.00    +0.000 C 
BRANCH  18  19
ATOM     19  N   UNL     1       2.411   3.030  19.765  0.00  0.00    +0.000 NA
ATOM     20  H   UNL     1       3.280   3.569  19.821  0.00  0.00    +0.000 HD
BRANCH  19  22
ATOM     21  C   UNL     1       2.266   3.172  17.350  0.00  0.00    +0.000 C 
ATOM     22  C   UNL     1       2.380   2.224  18.543  0.00  0.00    +0.000 C 
ATOM     23  C   UNL     1       3.639   1.366  18.398  0.00  0.00    +0.000 C 
ENDBRANCH  19  22
ENDBRANCH  18  19
ENDBRANCH  15  18
ENDBRANCH  14  15
ENDBRANCH  13  14
ENDBRANCH   1  13
TORSDOF 8
ENDMDL
MODEL 3
REMARK VINA RESULT:      -6.3      1.351      1.691
REMARK  Name = 
REMARK  10 active torsions:
REMARK  status: ('A' for Active; 'I' for Inactive)
REMARK    1  A    between atoms: C_1  and  C_2
REMARK    2  A    between atoms: C_2  and  C_3
REMARK    3  A    between atoms: C_2  and  N_4
REMARK    4  A    between atoms: N_4  and  C_5
REMARK    5  A    between atoms: C_5  and  C_6
REMARK    6  A    between atoms: C_6  and  O_7
REMARK    7  A    between atoms: C_6  and  C_8
REMARK    8  A    between atoms: C_8  and  O_9
REMARK    9  A    between atoms: O_9  and  C_10
REMARK   10  A    between atoms: C_13  and  C_14
REMARK                            x       y       z     vdW  Elec       q    Type
REMARK                         _______ _______ _______ _____ _____    ______ ____
ROOT
ATOM      1  C   UNL     1       4.970   5.157  18.318  0.00  0.00    +0.000 A 
ATOM      2  C   UNL     1       6.255   4.646  18.141  0.00  0.00    +0.000 A 
ATOM      3  C   UNL     1       6.801   4.508  16.872  0.00  0.00    +0.000 A 
ATOM      4  C   UNL     1       6.078   4.885  15.749  0.00  0.00    +0.000 A 
ATOM      5  C   UNL     1       4.783   5.404  15.912  0.00  0.00    +0.000 A 
ATOM      6  C   UNL     1       4.230   5.538  17.195  0.00  0.00    +0.000 A 
ENDROOT
BRANCH   4   7
ATOM      7  C   UNL     1       6.692   4.719  14.432  0.00  0.00    +0.000 A 
ATOM      8  N   UNL     1       7.631   5.486  13.910  0.00  0.00    +0.000 NA
ATOM      9  C   UNL     1       7.885   4.969  12.668  0.00  0.00    +0.000 A 
ATOM     10  C   UNL     1       7.065   3.896  12.412  0.00  0.00    +0.000 A 
ATOM     11  N   UNL     1       6.309   3.757  13.542  0.00  0.00    +0.000 N 
ATOM     12  H   UNL     1       5.578   3.078  13.691  0.00  0.00    +0.000 HD
ENDBRANCH   4   7
BRANCH   1  13
ATOM     13  O   UNL     1       4.389   5.305  19.554  0.00  0.00    +0.000 OA
BRANCH  13  14
ATOM     14  C   UNL     1       3.174   6.080  19.527  0.00  0.00    +0.000 C 
BRANCH  14  15
ATOM     15  C   UNL     1       2.036   5.357  20.238  0.00  0.00    +0.000 C 
BRANCH  15  16
ATOM     16  O   UNL     1       2.455   4.932  21.538  0.00  0.00    +0.000 OA
ATOM     17  H   UNL     1       2.218   5.652  22.150  0.00  0.00    +0.000 HD
ENDBRANCH  15  16
BRANCH  15  18
ATOM     18  C   UNL     1       1.584   4.164  19.392  0.00  0.00    +0.000 C 
BRANCH  18  19
ATOM     19  N   UNL     1       2.137   2.917  19.923  0.00  0.00    +0.000 NA
ATOM     20  H   UNL     1       2.919   3.158  20.539  0.00  0.00    +0.000 HD
BRANCH  19  22
ATOM     21  C   UNL     1       2.302   2.653  17.519  0.00  0.00    +0.000 C 
ATOM     22  C   UNL     1       2.573   1.995  18.872  0.00  0.00    +0.000 C 
ATOM     23  C   UNL     1       4.061   1.661  18.992  0.00  0.00    +0.000 C 
ENDBRANCH  19  22
ENDBRANCH  18  19
ENDBRANCH  15  18
ENDBRANCH  14  15
ENDBRANCH  13  14
ENDBRANCH   1  13
TORSDOF 8
ENDMDL
MODEL 4
REMARK VINA RESULT:      -6.2      0.365      1.399
REMARK  Name = 
REMARK  10 active torsions:
REMARK  status: ('A' for Active; 'I' for Inactive)
REMARK    1  A    between atoms: C_1  and  C_2
REMARK    2  A    between atoms: C_2  and  C_3
REMARK    3  A    between atoms: C_2  and  N_4
REMARK    4  A    between atoms: N_4  and  C_5
REMARK    5  A    between atoms: C_5  and  C_6
REMARK    6  A    between atoms: C_6  and  O_7
REMARK    7  A    between atoms: C_6  and  C_8
REMARK    8  A    between atoms: C_8  and  O_9
REMARK    9  A    between atoms: O_9  and  C_10
REMARK   10  A    between atoms: C_13  and  C_14
REMARK                            x       y       z     vdW  Elec       q    Type
REMARK                         _______ _______ _______ _____ _____    ______ ____
ROOT
ATOM      1  C   UNL     1       4.442   5.513  18.158  0.00  0.00    +0.000 A 
ATOM      2  C   UNL     1       4.928   4.251  17.814  0.00  0.00    +0.000 A 
ATOM      3  C   UNL     1       5.536   4.029  16.586  0.00  0.00    +0.000 A 
ATOM      4  C   UNL     1       5.680   5.065  15.673  0.00  0.00    +0.000 A 
ATOM      5  C   UNL     1       5.198   6.341  16.007  0.00  0.00    +0.000 A 
ATOM      6  C   UNL     1       4.579   6.564  17.246  0.00  0.00    +0.000 A 
ENDROOT
BRANCH   4   7
ATOM      7  C   UNL     1       6.324   4.784  14.391  0.00  0.00    +0.000 A 
ATOM      8  N   UNL     1       5.951   3.867  13.517  0.00  0.00    +0.000 NA
ATOM      9  C   UNL     1       6.846   3.951  12.485  0.00  0.00    +0.000 A 
ATOM     10  C   UNL     1       7.801   4.906  12.747  0.00  0.00    +0.000 A 
ATOM     11  N   UNL     1       7.456   5.419  13.966  0.00  0.00    +0.000 N 
ATOM     12  H   UNL     1       7.958   6.127  14.479  0.00  0.00    +0.000 HD
ENDBRANCH   4   7
BRANCH   1  13
ATOM     13  O   UNL     1       3.829   5.775  19.358  0.00  0.00    +0.000 OA
BRANCH  13  14
ATOM     14  C   UNL     1       2.781   6.761  19.263  0.00  0.00    +0.000 C 
BRANCH  14  15
ATOM     15  C   UNL     1       1.693   6.519  20.303  0.00  0.00    +0.000 C 
BRANCH  15  16
ATOM     16  O   UNL     1       1.760   7.511  21.331  0.00  0.00    +0.000 OA
ATOM     17  H   UNL     1       1.669   7.035  22.176  0.00  0.00    +0.000 HD
ENDBRANCH  15  16
BRANCH  15  18
ATOM     18  C   UNL     1       1.852   5.113  20.888  0.00  0.00    +0.000 C 
BRANCH  18  19
ATOM     19  N   UNL     1       0.771   4.239  20.429  0.00  0.00    +0.000 NA
ATOM     20  H   UNL     1      -0.043   4.406  21.029  0.00  0.00    +0.000 HD
BRANCH  19  22
ATOM     21  C   UNL     1       1.870   2.510  19.134  0.00  0.00    +0.000 C 
ATOM     22  C   UNL     1       1.141   2.822  20.441  0.00  0.00    +0.000 C 
ATOM     23  C   UNL     1       2.046   2.483  21.627  0.00  0.00    +0.000 C 
ENDBRANCH  19  22
ENDBRANCH  18  19
ENDBRANCH  15  18
ENDBRANCH  14  15
ENDBRANCH  13  14
ENDBRANCH   1  13
TORSDOF 8
ENDMDL
MODEL 5
REMARK VINA RESULT:      -6.2      1.594      2.774
REMARK  Name = 
REMARK  10 active torsions:
REMARK  status: ('A' for Active; 'I' for Inactive)
REMARK    1  A    between atoms: C_1  and  C_2
REMARK    2  A    between atoms: C_2  and  C_3
REMARK    3  A    between atoms: C_2  and  N_4
REMARK    4  A    between atoms: N_4  and  C_5
REMARK    5  A    between atoms: C_5  and  C_6
REMARK    6  A    between atoms: C_6  and  O_7
REMARK    7  A    between atoms: C_6  and  C_8
REMARK    8  A    between atoms: C_8  and  O_9
REMARK    9  A    between atoms: O_9  and  C_10
REMARK   10  A    between atoms: C_13  and  C_14
REMARK                            x       y       z     vdW  Elec       q    Type
REMARK                         _______ _______ _______ _____ _____    ______ ____
ROOT
ATOM      1  C   UNL     1       4.734   4.220  18.632  0.00  0.00    +0.000 A 
ATOM      2  C   UNL     1       4.022   3.922  17.471  0.00  0.00    +0.000 A 
ATOM      3  C   UNL     1       4.624   3.998  16.223  0.00  0.00    +0.000 A 
ATOM      4  C   UNL     1       5.958   4.367  16.105  0.00  0.00    +0.000 A 
ATOM      5  C   UNL     1       6.688   4.666  17.266  0.00  0.00    +0.000 A 
ATOM      6  C   UNL     1       6.077   4.594  18.527  0.00  0.00    +0.000 A 
ENDROOT
BRANCH   4   7
ATOM      7  C   UNL     1       6.550   4.435  14.770  0.00  0.00    +0.000 A 
ATOM      8  N   UNL     1       7.490   5.276  14.378  0.00  0.00    +0.000 NA
ATOM      9  C   UNL     1       7.719   4.988  13.059  0.00  0.00    +0.000 A 
ATOM     10  C   UNL     1       6.882   3.986  12.629  0.00  0.00    +0.000 A 
ATOM     11  N   UNL     1       6.142   3.652  13.728  0.00  0.00    +0.000 N 
ATOM     12  H   UNL     1       5.406   2.964  13.765  0.00  0.00    +0.000 HD
ENDBRANCH   4   7
BRANCH   1  13
ATOM     13  O   UNL     1       4.177   4.164  19.886  0.00  0.00    +0.000 OA
BRANCH  13  14
ATOM     14  C   UNL     1       3.100   3.210  19.992  0.00  0.00    +0.000 C 
BRANCH  14  15
ATOM     15  C   UNL     1       1.931   3.777  20.788  0.00  0.00    +0.000 C 
BRANCH  15  16
ATOM     16  O   UNL     1       0.839   2.852  20.791  0.00  0.00    +0.000 OA
ATOM     17  H   UNL     1       1.231   1.967  20.684  0.00  0.00    +0.000 HD
ENDBRANCH  15  16
BRANCH  15  18
ATOM     18  C   UNL     1       1.509   5.119  20.187  0.00  0.00    +0.000 C 
BRANCH  18  19
ATOM     19  N   UNL     1       2.268   6.216  20.790  0.00  0.00    +0.000 NA
ATOM     20  H   UNL     1       1.813   6.463  21.674  0.00  0.00    +0.000 HD
BRANCH  19  22
ATOM     21  C   UNL     1       2.170   6.921  18.473  0.00  0.00    +0.000 C 
ATOM     22  C   UNL     1       2.371   7.386  19.916  0.00  0.00    +0.000 C 
ATOM     23  C   UNL     1       1.325   8.447  20.263  0.00  0.00    +0.000 C 
ENDBRANCH  19  22
ENDBRANCH  18  19
ENDBRANCH  15  18
ENDBRANCH  14  15
ENDBRANCH  13  14
ENDBRANCH   1  13
TORSDOF 8
ENDMDL
MODEL 6
REMARK VINA RESULT:      -6.2      3.890      6.265
REMARK  Name = 
REMARK  10 active torsions:
REMARK  status: ('A' for Active; 'I' for Inactive)
REMARK    1  A    between atoms: C_1  and  C_2
REMARK    2  A    between atoms: C_2  and  C_3
REMARK    3  A    between atoms: C_2  and  N_4
REMARK    4  A    between atoms: N_4  and  C_5
REMARK    5  A    between atoms: C_5  and  C_6
REMARK    6  A    between atoms: C_6  and  O_7
REMARK    7  A    between atoms: C_6  and  C_8
REMARK    8  A    between atoms: C_8  and  O_9
REMARK    9  A    between atoms: O_9  and  C_10
REMARK   10  A    between atoms: C_13  and  C_14
REMARK                            x       y       z     vdW  Elec       q    Type
REMARK                         _______ _______ _______ _____ _____    ______ ____
ROOT
ATOM      1  C   UNL     1       3.756   5.955  18.376  0.00  0.00    +0.000 A 
ATOM      2  C   UNL     1       3.641   6.994  17.453  0.00  0.00    +0.000 A 
ATOM      3  C   UNL     1       2.833   8.093  17.708  0.00  0.00    +0.000 A 
ATOM      4  C   UNL     1       2.123   8.184  18.898  0.00  0.00    +0.000 A 
ATOM      5  C   UNL     1       2.230   7.146  19.838  0.00  0.00    +0.000 A 
ATOM      6  C   UNL     1       3.045   6.034  19.577  0.00  0.00    +0.000 A 
ENDROOT
BRANCH   4   7
ATOM      7  C   UNL     1       1.281   9.358  19.124  0.00  0.00    +0.000 A 
ATOM      8  N   UNL     1       0.783   9.747  20.283  0.00  0.00    +0.000 NA
ATOM      9  C   UNL     1       0.053  10.874  20.014  0.00  0.00    +0.000 A 
ATOM     10  C   UNL     1       0.074  11.156  18.669  0.00  0.00    +0.000 A 
ATOM     11  N   UNL     1       0.854  10.177  18.119  0.00  0.00    +0.000 N 
ATOM     12  H   UNL     1       1.062  10.062  17.139  0.00  0.00    +0.000 HD
ENDBRANCH   4   7
BRANCH   1  13
ATOM     13  O   UNL     1       4.540   4.848  18.161  0.00  0.00    +0.000 OA
BRANCH  13  14
ATOM     14  C   UNL     1       4.983   4.215  19.378  0.00  0.00    +0.000 C 
BRANCH  14  15
ATOM     15  C   UNL     1       4.296   2.871  19.590  0.00  0.00    +0.000 C 
BRANCH  15  16
ATOM     16  O   UNL     1       5.258   1.874  19.945  0.00  0.00    +0.000 OA
ATOM     17  H   UNL     1       4.884   1.020  19.661  0.00  0.00    +0.000 HD
ENDBRANCH  15  16
BRANCH  15  18
ATOM     18  C   UNL     1       3.546   2.477  18.315  0.00  0.00    +0.000 C 
BRANCH  18  19
ATOM     19  N   UNL     1       2.343   1.709  18.643  0.00  0.00    +0.000 NA
ATOM     20  H   UNL     1       2.271   0.939  17.971  0.00  0.00    +0.000 HD
BRANCH  19  22
ATOM     21  C   UNL     1       0.884   3.041  20.046  0.00  0.00    +0.000 C 
ATOM     22  C   UNL     1       1.126   2.523  18.629  0.00  0.00    +0.000 C 
ATOM     23  C   UNL     1       1.245   3.705  17.664  0.00  0.00    +0.000 C 
ENDBRANCH  19  22
ENDBRANCH  18  19
ENDBRANCH  15  18
ENDBRANCH  14  15
ENDBRANCH  13  14
ENDBRANCH   1  13
TORSDOF 8
ENDMDL
MODEL 7
REMARK VINA RESULT:      -6.1      1.694      3.024
REMARK  Name = 
REMARK  10 active torsions:
REMARK  status: ('A' for Active; 'I' for Inactive)
REMARK    1  A    between atoms: C_1  and  C_2
REMARK    2  A    between atoms: C_2  and  C_3
REMARK    3  A    between atoms: C_2  and  N_4
REMARK    4  A    between atoms: N_4  and  C_5
REMARK    5  A    between atoms: C_5  and  C_6
REMARK    6  A    between atoms: C_6  and  O_7
REMARK    7  A    between atoms: C_6  and  C_8
REMARK    8  A    between atoms: C_8  and  O_9
REMARK    9  A    between atoms: O_9  and  C_10
REMARK   10  A    between atoms: C_13  and  C_14
REMARK                            x       y       z     vdW  Elec       q    Type
REMARK                         _______ _______ _______ _____ _____    ______ ____
ROOT
ATOM      1  C   UNL     1       5.176   4.181  18.286  0.00  0.00    +0.000 A 
ATOM      2  C   UNL     1       4.444   3.777  17.170  0.00  0.00    +0.000 A 
ATOM      3  C   UNL     1       4.975   3.878  15.891  0.00  0.00    +0.000 A 
ATOM      4  C   UNL     1       6.255   4.378  15.697  0.00  0.00    +0.000 A 
ATOM      5  C   UNL     1       7.005   4.786  16.812  0.00  0.00    +0.000 A 
ATOM      6  C   UNL     1       6.465   4.689  18.104  0.00  0.00    +0.000 A 
ENDROOT
BRANCH   4   7
ATOM      7  C   UNL     1       6.773   4.469  14.333  0.00  0.00    +0.000 A 
ATOM      8  N   UNL     1       7.609   5.383  13.877  0.00  0.00    +0.000 NA
ATOM      9  C   UNL     1       7.800   5.085  12.554  0.00  0.00    +0.000 A 
ATOM     10  C   UNL     1       7.043   3.998  12.187  0.00  0.00    +0.000 A 
ATOM     11  N   UNL     1       6.392   3.624  13.330  0.00  0.00    +0.000 N 
ATOM     12  H   UNL     1       5.727   2.872  13.418  0.00  0.00    +0.000 HD
ENDBRANCH   4   7
BRANCH   1  13
ATOM     13  O   UNL     1       4.687   4.104  19.567  0.00  0.00    +0.000 OA
BRANCH  13  14
ATOM     14  C   UNL     1       3.517   3.269  19.685  0.00  0.00    +0.000 C 
BRANCH  14  15
ATOM     15  C   UNL     1       2.272   4.095  19.986  0.00  0.00    +0.000 C 
BRANCH  15  16
ATOM     16  O   UNL     1       1.235   3.786  19.050  0.00  0.00    +0.000 OA
ATOM     17  H   UNL     1       1.176   2.814  19.019  0.00  0.00    +0.000 HD
ENDBRANCH  15  16
BRANCH  15  18
ATOM     18  C   UNL     1       2.624   5.583  19.941  0.00  0.00    +0.000 C 
BRANCH  18  19
ATOM     19  N   UNL     1       2.282   6.154  18.637  0.00  0.00    +0.000 NA
ATOM     20  H   UNL     1       2.608   5.504  17.915  0.00  0.00    +0.000 HD
BRANCH  19  22
ATOM     21  C   UNL     1       3.930   7.379  17.349  0.00  0.00    +0.000 C 
ATOM     22  C   UNL     1       2.856   7.485  18.430  0.00  0.00    +0.000 C 
ATOM     23  C   UNL     1       1.793   8.499  17.999  0.00  0.00    +0.000 C 
ENDBRANCH  19  22
ENDBRANCH  18  19
ENDBRANCH  15  18
ENDBRANCH  14  15
ENDBRANCH  13  14
ENDBRANCH   1  13
TORSDOF 8
ENDMDL
MODEL 8
REMARK VINA RESULT:      -6.1      3.780      7.163
REMARK  Name = 
REMARK  10 active torsions:
REMARK  status: ('A' for Active; 'I' for Inactive)
REMARK    1  A    between atoms: C_1  and  C_2
REMARK    2  A    between atoms: C_2  and  C_3
REMARK    3  A    between atoms: C_2  and  N_4
REMARK    4  A    between atoms: N_4  and  C_5
REMARK    5  A    between atoms: C_5  and  C_6
REMARK    6  A    between atoms: C_6  and  O_7
REMARK    7  A    between atoms: C_6  and  C_8
REMARK    8  A    between atoms: C_8  and  O_9
REMARK    9  A    between atoms: O_9  and  C_10
REMARK   10  A    between atoms: C_13  and  C_14
REMARK                            x       y       z     vdW  Elec       q    Type
REMARK                         _______ _______ _______ _____ _____    ______ ____
ROOT
ATOM      1  C   UNL     1       2.636   6.879  18.667  0.00  0.00    +0.000 A 
ATOM      2  C   UNL     1       2.276   6.905  20.014  0.00  0.00    +0.000 A 
ATOM      3  C   UNL     1       1.597   7.989  20.554  0.00  0.00    +0.000 A 
ATOM      4  C   UNL     1       1.255   9.073  19.756  0.00  0.00    +0.000 A 
ATOM      5  C   UNL     1       1.608   9.060  18.397  0.00  0.00    +0.000 A 
ATOM      6  C   UNL     1       2.298   7.965  17.855  0.00  0.00    +0.000 A 
ENDROOT
BRANCH   4   7
ATOM      7  C   UNL     1       0.542  10.194  20.368  0.00  0.00    +0.000 A 
ATOM      8  N   UNL     1       0.997  10.971  21.334  0.00  0.00    +0.000 NA
ATOM      9  C   UNL     1      -0.007  11.864  21.596  0.00  0.00    +0.000 A 
ATOM     10  C   UNL     1      -1.103  11.607  20.806  0.00  0.00    +0.000 A 
ATOM     11  N   UNL     1      -0.737  10.538  20.037  0.00  0.00    +0.000 N 
ATOM     12  H   UNL     1      -1.315  10.066  19.359  0.00  0.00    +0.000 HD
ENDBRANCH   4   7
BRANCH   1  13
ATOM     13  O   UNL     1       3.312   5.830  18.095  0.00  0.00    +0.000 OA
BRANCH  13  14
ATOM     14  C   UNL     1       4.641   5.648  18.624  0.00  0.00    +0.000 C 
BRANCH  14  15
ATOM     15  C   UNL     1       4.856   4.219  19.107  0.00  0.00    +0.000 C 
BRANCH  15  16
ATOM     16  O   UNL     1       6.187   3.789  18.807  0.00  0.00    +0.000 OA
ATOM     17  H   UNL     1       6.171   3.475  17.885  0.00  0.00    +0.000 HD
ENDBRANCH  15  16
BRANCH  15  18
ATOM     18  C   UNL     1       3.824   3.298  18.452  0.00  0.00    +0.000 C 
BRANCH  18  19
ATOM     19  N   UNL     1       3.111   2.519  19.466  0.00  0.00    +0.000 NA
ATOM     20  H   UNL     1       2.543   1.819  18.980  0.00  0.00    +0.000 HD
BRANCH  19  22
ATOM     21  C   UNL     1       0.893   3.468  19.701  0.00  0.00    +0.000 C 
ATOM     22  C   UNL     1       2.277   3.348  20.338  0.00  0.00    +0.000 C 
ATOM     23  C   UNL     1       2.146   2.744  21.738  0.00  0.00    +0.000 C 
ENDBRANCH  19  22
ENDBRANCH  18  19
ENDBRANCH  15  18
ENDBRANCH  14  15
ENDBRANCH  13  14
ENDBRANCH   1  13
TORSDOF 8
ENDMDL
MODEL 9
REMARK VINA RESULT:      -6.1      3.661      6.835
REMARK  Name = 
REMARK  10 active torsions:
REMARK  status: ('A' for Active; 'I' for Inactive)
REMARK    1  A    between atoms: C_1  and  C_2
REMARK    2  A    between atoms: C_2  and  C_3
REMARK    3  A    between atoms: C_2  and  N_4
REMARK    4  A    between atoms: N_4  and  C_5
REMARK    5  A    between atoms: C_5  and  C_6
REMARK    6  A    between atoms: C_6  and  O_7
REMARK    7  A    between atoms: C_6  and  C_8
REMARK    8  A    between atoms: C_8  and  O_9
REMARK    9  A    between atoms: O_9  and  C_10
REMARK   10  A    between atoms: C_13  and  C_14
REMARK                            x       y       z     vdW  Elec       q    Type
REMARK                         _______ _______ _______ _____ _____    ______ ____
ROOT
ATOM      1  C   UNL     1       2.568   7.034  19.402  0.00  0.00    +0.000 A 
ATOM      2  C   UNL     1       1.841   7.650  20.420  0.00  0.00    +0.000 A 
ATOM      3  C   UNL     1       1.109   8.805  20.178  0.00  0.00    +0.000 A 
ATOM      4  C   UNL     1       1.080   9.368  18.909  0.00  0.00    +0.000 A 
ATOM      5  C   UNL     1       1.805   8.756  17.874  0.00  0.00    +0.000 A 
ATOM      6  C   UNL     1       2.548   7.592  18.120  0.00  0.00    +0.000 A 
ENDROOT
BRANCH   4   7
ATOM      7  C   UNL     1       0.297  10.586  18.702  0.00  0.00    +0.000 A 
ATOM      8  N   UNL     1       0.481  11.742  19.312  0.00  0.00    +0.000 NA
ATOM      9  C   UNL     1      -0.484  12.579  18.820  0.00  0.00    +0.000 A 
ATOM     10  C   UNL     1      -1.291  11.917  17.926  0.00  0.00    +0.000 A 
ATOM     11  N   UNL     1      -0.783  10.649  17.869  0.00  0.00    +0.000 N 
ATOM     12  H   UNL     1      -1.150   9.883  17.326  0.00  0.00    +0.000 HD
ENDBRANCH   4   7
BRANCH   1  13
ATOM     13  O   UNL     1       3.310   5.895  19.598  0.00  0.00    +0.000 OA
BRANCH  13  14
ATOM     14  C   UNL     1       3.989   5.441  18.410  0.00  0.00    +0.000 C 
BRANCH  14  15
ATOM     15  C   UNL     1       4.925   4.277  18.713  0.00  0.00    +0.000 C 
BRANCH  15  16
ATOM     16  O   UNL     1       5.375   3.674  17.497  0.00  0.00    +0.000 OA
ATOM     17  H   UNL     1       6.009   2.980  17.755  0.00  0.00    +0.000 HD
ENDBRANCH  15  16
BRANCH  15  18
ATOM     18  C   UNL     1       4.200   3.257  19.594  0.00  0.00    +0.000 C 
BRANCH  18  19
ATOM     19  N   UNL     1       2.859   2.985  19.071  0.00  0.00    +0.000 NA
ATOM     20  H   UNL     1       2.573   3.792  18.509  0.00  0.00    +0.000 HD
BRANCH  19  22
ATOM     21  C   UNL     1       2.614   2.716  21.467  0.00  0.00    +0.000 C 
ATOM     22  C   UNL     1       1.880   2.716  20.126  0.00  0.00    +0.000 C 
ATOM     23  C   UNL     1       0.769   3.768  20.149  0.00  0.00    +0.000 C 
ENDBRANCH  19  22
ENDBRANCH  18  19
ENDBRANCH  15  18
ENDBRANCH  14  15
ENDBRANCH  13  14
ENDBRANCH   1  13
TORSDOF 8
ENDMDL
