MODEL 1
REMARK VINA RESULT:      -8.5      0.000      0.000
REMARK  Name = 
REMARK  6 active torsions:
REMARK  status: ('A' for Active; 'I' for Inactive)
REMARK    1  A    between atoms: C_2  and  C_16
REMARK    2  A    between atoms: N_3  and  C_4
REMARK    3  A    between atoms: C_9  and  N_10
REMARK    4  A    between atoms: C_19  and  C_20
REMARK    5  A    between atoms: C_23  and  O_24
REMARK    6  A    between atoms: O_24  and  C_25
REMARK                            x       y       z     vdW  Elec       q    Type
REMARK                         _______ _______ _______ _____ _____    ______ ____
ROOT
ATOM      1  C   UNL     1       1.926   7.922  19.258  0.00  0.00    +0.000 A 
ATOM      2  C   UNL     1       2.291   8.740  18.201  0.00  0.00    +0.000 A 
ATOM      3  S   UNL     1       1.600  10.297  18.381  0.00  0.00    +0.000 S 
ATOM      4  C   UNL     1       0.922   9.819  19.880  0.00  0.00    +0.000 A 
ATOM      5  N   UNL     1       1.139   8.556  20.217  0.00  0.00    +0.000 NA
ENDROOT
BRANCH   4   6
ATOM      6  C   UNL     1       0.232  10.749  20.779  0.00  0.00    +0.000 A 
ATOM      7  C   UNL     1       0.112  12.130  20.563  0.00  0.00    +0.000 A 
ATOM      8  C   UNL     1      -0.590  12.925  21.480  0.00  0.00    +0.000 A 
ATOM      9  C   UNL     1      -1.172  12.350  22.612  0.00  0.00    +0.000 A 
ATOM     10  C   UNL     1      -1.009  10.986  22.851  0.00  0.00    +0.000 A 
ATOM     11  C   UNL     1      -0.345  10.193  21.927  0.00  0.00    +0.000 A 
BRANCH   9  12
ATOM     12  O   UNL     1      -1.857  13.190  23.459  0.00  0.00    +0.000 OA
BRANCH  12  13
ATOM     13  C   UNL     1      -3.235  13.184  23.449  0.00  0.00    +0.000 A 
ATOM     14  C   UNL     1      -3.869  12.529  24.505  0.00  0.00    +0.000 A 
ATOM     15  C   UNL     1      -5.261  12.472  24.554  0.00  0.00    +0.000 A 
ATOM     16  C   UNL     1      -6.025  13.067  23.549  0.00  0.00    +0.000 A 
ATOM     17  C   UNL     1      -5.397  13.740  22.504  0.00  0.00    +0.000 A 
ATOM     18  C   UNL     1      -4.012  13.830  22.472  0.00  0.00    +0.000 A 
ENDBRANCH  12  13
ENDBRANCH   9  12
ENDBRANCH   4   6
BRANCH   1  20
ATOM     19  O   UNL     1       2.696   6.098  20.492  0.00  0.00    +0.000 OA
ATOM     20  C   UNL     1       2.320   6.525  19.413  0.00  0.00    +0.000 C 
ATOM     21  N   UNL     1       2.205   5.783  18.261  0.00  0.00    +0.000 N 
ATOM     22  H   UNL     1       2.172   6.326  17.403  0.00  0.00    +0.000 HD
BRANCH  21  23
ATOM     23  C   UNL     1       2.637   4.439  18.156  0.00  0.00    +0.000 A 
ATOM     24  C   UNL     1       1.698   3.445  18.445  0.00  0.00    +0.000 A 
ATOM     25  C   UNL     1       2.018   2.100  18.314  0.00  0.00    +0.000 A 
ATOM     26  C   UNL     1       3.289   1.741  17.884  0.00  0.00    +0.000 A 
ATOM     27  C   UNL     1       4.232   2.732  17.605  0.00  0.00    +0.000 A 
ATOM     28  C   UNL     1       3.959   4.109  17.730  0.00  0.00    +0.000 A 
BRANCH  28  29
ATOM     29  N   UNL     1       4.922   5.040  17.387  0.00  0.00    +0.000 N 
ATOM     30  C   UNL     1       5.748   5.730  18.400  0.00  0.00    +0.000 C 
ATOM     31  C   UNL     1       7.228   5.696  17.955  0.00  0.00    +0.000 C 
ATOM     32  N   UNL     1       7.464   6.245  16.604  0.00  0.00    +0.000 NA
ATOM     33  C   UNL     1       6.547   5.613  15.631  0.00  0.00    +0.000 C 
ATOM     34  C   UNL     1       5.061   5.620  16.050  0.00  0.00    +0.000 C 
ATOM     35  H   UNL     1       8.421   6.020  16.334  0.00  0.00    +0.000 HD
ENDBRANCH  28  29
ENDBRANCH  21  23
ENDBRANCH   1  20
TORSDOF 6
ENDMDL
MODEL 2
REMARK VINA RESULT:      -8.4      1.989      3.513
REMARK  Name = 
REMARK  6 active torsions:
REMARK  status: ('A' for Active; 'I' for Inactive)
REMARK    1  A    between atoms: C_2  and  C_16
REMARK    2  A    between atoms: N_3  and  C_4
REMARK    3  A    between atoms: C_9  and  N_10
REMARK    4  A    between atoms: C_19  and  C_20
REMARK    5  A    between atoms: C_23  and  O_24
REMARK    6  A    between atoms: O_24  and  C_25
REMARK                            x       y       z     vdW  Elec       q    Type
REMARK                         _______ _______ _______ _____ _____    ______ ____
ROOT
ATOM      1  C   UNL     1       1.545   8.590  19.676  0.00  0.00    +0.000 A 
ATOM      2  C   UNL     1       1.641   8.099  20.967  0.00  0.00    +0.000 A 
ATOM      3  S   UNL     1       0.689   9.037  22.038  0.00  0.00    +0.000 S 
ATOM      4  C   UNL     1       0.149   9.989  20.719  0.00  0.00    +0.000 A 
ATOM      5  N   UNL     1       0.683   9.676  19.547  0.00  0.00    +0.000 NA
ENDROOT
BRANCH   4   6
ATOM      6  C   UNL     1      -0.893  11.012  20.844  0.00  0.00    +0.000 A 
ATOM      7  C   UNL     1      -1.517  11.654  19.763  0.00  0.00    +0.000 A 
ATOM      8  C   UNL     1      -2.520  12.607  19.998  0.00  0.00    +0.000 A 
ATOM      9  C   UNL     1      -2.902  12.921  21.304  0.00  0.00    +0.000 A 
ATOM     10  C   UNL     1      -2.245  12.320  22.377  0.00  0.00    +0.000 A 
ATOM     11  C   UNL     1      -1.279  11.353  22.146  0.00  0.00    +0.000 A 
BRANCH   9  12
ATOM     12  O   UNL     1      -3.902  13.854  21.455  0.00  0.00    +0.000 OA
BRANCH  12  13
ATOM     13  C   UNL     1      -5.092  13.480  22.040  0.00  0.00    +0.000 A 
ATOM     14  C   UNL     1      -5.923  12.642  21.295  0.00  0.00    +0.000 A 
ATOM     15  C   UNL     1      -7.149  12.233  21.818  0.00  0.00    +0.000 A 
ATOM     16  C   UNL     1      -7.550  12.658  23.085  0.00  0.00    +0.000 A 
ATOM     17  C   UNL     1      -6.715  13.477  23.840  0.00  0.00    +0.000 A 
ATOM     18  C   UNL     1      -5.479  13.857  23.337  0.00  0.00    +0.000 A 
ENDBRANCH  12  13
ENDBRANCH   9  12
ENDBRANCH   4   6
BRANCH   1  20
ATOM     19  O   UNL     1       2.123   8.556  17.415  0.00  0.00    +0.000 OA
ATOM     20  C   UNL     1       2.243   8.043  18.516  0.00  0.00    +0.000 C 
ATOM     21  N   UNL     1       3.026   6.950  18.801  0.00  0.00    +0.000 N 
ATOM     22  H   UNL     1       2.793   6.471  19.667  0.00  0.00    +0.000 HD
BRANCH  21  23
ATOM     23  C   UNL     1       3.700   6.196  17.811  0.00  0.00    +0.000 A 
ATOM     24  C   UNL     1       4.510   6.902  16.918  0.00  0.00    +0.000 A 
ATOM     25  C   UNL     1       5.252   6.238  15.949  0.00  0.00    +0.000 A 
ATOM     26  C   UNL     1       5.189   4.852  15.874  0.00  0.00    +0.000 A 
ATOM     27  C   UNL     1       4.372   4.146  16.759  0.00  0.00    +0.000 A 
ATOM     28  C   UNL     1       3.595   4.773  17.752  0.00  0.00    +0.000 A 
BRANCH  28  29
ATOM     29  N   UNL     1       2.847   4.011  18.632  0.00  0.00    +0.000 N 
ATOM     30  C   UNL     1       2.905   4.211  20.094  0.00  0.00    +0.000 C 
ATOM     31  C   UNL     1       1.465   4.243  20.658  0.00  0.00    +0.000 C 
ATOM     32  N   UNL     1       0.655   3.059  20.308  0.00  0.00    +0.000 NA
ATOM     33  C   UNL     1       0.705   2.821  18.850  0.00  0.00    +0.000 C 
ATOM     34  C   UNL     1       2.129   2.793  18.252  0.00  0.00    +0.000 C 
ATOM     35  H   UNL     1      -0.313   3.251  20.567  0.00  0.00    +0.000 HD
ENDBRANCH  28  29
ENDBRANCH  21  23
ENDBRANCH   1  20
TORSDOF 6
ENDMDL
MODEL 3
REMARK VINA RESULT:      -8.4      1.341      1.578
REMARK  Name = 
REMARK  6 active torsions:
REMARK  status: ('A' for Active; 'I' for Inactive)
REMARK    1  A    between atoms: C_2  and  C_16
REMARK    2  A    between atoms: N_3  and  C_4
REMARK    3  A    between atoms: C_9  and  N_10
REMARK    4  A    between atoms: C_19  and  C_20
REMARK    5  A    between atoms: C_23  and  O_24
REMARK    6  A    between atoms: O_24  and  C_25
REMARK                            x       y       z     vdW  Elec       q    Type
REMARK                         _______ _______ _______ _____ _____    ______ ____
ROOT
ATOM      1  C   UNL     1       2.017   7.976  18.770  0.00  0.00    +0.000 A 
ATOM      2  C   UNL     1       2.526   8.882  17.856  0.00  0.00    +0.000 A 
ATOM      3  S   UNL     1       1.945  10.459  18.187  0.00  0.00    +0.000 S 
ATOM      4  C   UNL     1       1.116   9.861  19.562  0.00  0.00    +0.000 A 
ATOM      5  N   UNL     1       1.209   8.552  19.747  0.00  0.00    +0.000 NA
ENDROOT
BRANCH   4   6
ATOM      6  C   UNL     1       0.431  10.729  20.524  0.00  0.00    +0.000 A 
ATOM      7  C   UNL     1       0.379  12.129  20.443  0.00  0.00    +0.000 A 
ATOM      8  C   UNL     1      -0.325  12.862  21.410  0.00  0.00    +0.000 A 
ATOM      9  C   UNL     1      -0.975  12.206  22.457  0.00  0.00    +0.000 A 
ATOM     10  C   UNL     1      -0.880  10.819  22.565  0.00  0.00    +0.000 A 
ATOM     11  C   UNL     1      -0.214  10.091  21.590  0.00  0.00    +0.000 A 
BRANCH   9  12
ATOM     12  O   UNL     1      -1.656  12.990  23.359  0.00  0.00    +0.000 OA
BRANCH  12  13
ATOM     13  C   UNL     1      -3.034  12.967  23.370  0.00  0.00    +0.000 A 
ATOM     14  C   UNL     1      -3.679  13.335  22.188  0.00  0.00    +0.000 A 
ATOM     15  C   UNL     1      -5.072  13.347  22.130  0.00  0.00    +0.000 A 
ATOM     16  C   UNL     1      -5.826  12.991  23.248  0.00  0.00    +0.000 A 
ATOM     17  C   UNL     1      -5.187  12.602  24.423  0.00  0.00    +0.000 A 
ATOM     18  C   UNL     1      -3.801  12.555  24.473  0.00  0.00    +0.000 A 
ENDBRANCH  12  13
ENDBRANCH   9  12
ENDBRANCH   4   6
BRANCH   1  20
ATOM     19  O   UNL     1       1.896   5.831  17.859  0.00  0.00    +0.000 OA
ATOM     20  C   UNL     1       2.289   6.542  18.770  0.00  0.00    +0.000 C 
ATOM     21  N   UNL     1       3.018   6.112  19.853  0.00  0.00    +0.000 N 
ATOM     22  H   UNL     1       3.009   6.741  20.652  0.00  0.00    +0.000 HD
BRANCH  21  23
ATOM     23  C   UNL     1       3.299   4.749  20.112  0.00  0.00    +0.000 A 
ATOM     24  C   UNL     1       2.443   4.079  20.989  0.00  0.00    +0.000 A 
ATOM     25  C   UNL     1       2.610   2.727  21.258  0.00  0.00    +0.000 A 
ATOM     26  C   UNL     1       3.641   2.032  20.638  0.00  0.00    +0.000 A 
ATOM     27  C   UNL     1       4.505   2.702  19.769  0.00  0.00    +0.000 A 
ATOM     28  C   UNL     1       4.382   4.074  19.471  0.00  0.00    +0.000 A 
BRANCH  28  29
ATOM     29  N   UNL     1       5.239   4.665  18.561  0.00  0.00    +0.000 N 
ATOM     30  C   UNL     1       6.366   5.523  18.981  0.00  0.00    +0.000 C 
ATOM     31  C   UNL     1       7.637   5.104  18.207  0.00  0.00    +0.000 C 
ATOM     32  N   UNL     1       7.477   5.107  16.739  0.00  0.00    +0.000 NA
ATOM     33  C   UNL     1       6.279   4.331  16.356  0.00  0.00    +0.000 C 
ATOM     34  C   UNL     1       4.992   4.717  17.118  0.00  0.00    +0.000 C 
ATOM     35  H   UNL     1       8.295   4.655  16.331  0.00  0.00    +0.000 HD
ENDBRANCH  28  29
ENDBRANCH  21  23
ENDBRANCH   1  20
TORSDOF 6
ENDMDL
MODEL 4
REMARK VINA RESULT:      -8.3      0.783      1.224
REMARK  Name = 
REMARK  6 active torsions:
REMARK  status: ('A' for Active; 'I' for Inactive)
REMARK    1  A    between atoms: C_2  and  C_16
REMARK    2  A    between atoms: N_3  and  C_4
REMARK    3  A    between atoms: C_9  and  N_10
REMARK    4  A    between atoms: C_19  and  C_20
REMARK    5  A    between atoms: C_23  and  O_24
REMARK    6  A    between atoms: O_24  and  C_25
REMARK                            x       y       z     vdW  Elec       q    Type
REMARK                         _______ _______ _______ _____ _____    ______ ____
ROOT
ATOM      1  C   UNL     1       1.992   8.141  18.923  0.00  0.00    +0.000 A 
ATOM      2  C   UNL     1       2.558   8.903  17.914  0.00  0.00    +0.000 A 
ATOM      3  S   UNL     1       1.904  10.485  17.918  0.00  0.00    +0.000 S 
ATOM      4  C   UNL     1       0.968  10.091  19.299  0.00  0.00    +0.000 A 
ATOM      5  N   UNL     1       1.081   8.837  19.713  0.00  0.00    +0.000 NA
ENDROOT
BRANCH   4   6
ATOM      6  C   UNL     1       0.172  11.078  20.035  0.00  0.00    +0.000 A 
ATOM      7  C   UNL     1       0.630  11.809  21.142  0.00  0.00    +0.000 A 
ATOM      8  C   UNL     1      -0.212  12.746  21.759  0.00  0.00    +0.000 A 
ATOM      9  C   UNL     1      -1.507  12.955  21.280  0.00  0.00    +0.000 A 
ATOM     10  C   UNL     1      -1.977  12.190  20.213  0.00  0.00    +0.000 A 
ATOM     11  C   UNL     1      -1.134  11.290  19.579  0.00  0.00    +0.000 A 
BRANCH   9  12
ATOM     12  O   UNL     1      -2.269  13.899  21.928  0.00  0.00    +0.000 OA
BRANCH  12  13
ATOM     13  C   UNL     1      -3.355  13.495  22.675  0.00  0.00    +0.000 A 
ATOM     14  C   UNL     1      -4.615  13.872  22.208  0.00  0.00    +0.000 A 
ATOM     15  C   UNL     1      -5.758  13.509  22.919  0.00  0.00    +0.000 A 
ATOM     16  C   UNL     1      -5.648  12.769  24.097  0.00  0.00    +0.000 A 
ATOM     17  C   UNL     1      -4.394  12.373  24.555  0.00  0.00    +0.000 A 
ATOM     18  C   UNL     1      -3.257  12.702  23.831  0.00  0.00    +0.000 A 
ENDBRANCH  12  13
ENDBRANCH   9  12
ENDBRANCH   4   6
BRANCH   1  20
ATOM     19  O   UNL     1       2.605   6.372  20.315  0.00  0.00    +0.000 OA
ATOM     20  C   UNL     1       2.304   6.741  19.192  0.00  0.00    +0.000 C 
ATOM     21  N   UNL     1       2.205   5.926  18.089  0.00  0.00    +0.000 N 
ATOM     22  H   UNL     1       2.243   6.409  17.195  0.00  0.00    +0.000 HD
BRANCH  21  23
ATOM     23  C   UNL     1       2.570   4.558  18.097  0.00  0.00    +0.000 A 
ATOM     24  C   UNL     1       1.579   3.638  18.450  0.00  0.00    +0.000 A 
ATOM     25  C   UNL     1       1.833   2.273  18.431  0.00  0.00    +0.000 A 
ATOM     26  C   UNL     1       3.089   1.818  18.050  0.00  0.00    +0.000 A 
ATOM     27  C   UNL     1       4.084   2.736  17.707  0.00  0.00    +0.000 A 
ATOM     28  C   UNL     1       3.878   4.130  17.719  0.00  0.00    +0.000 A 
BRANCH  28  29
ATOM     29  N   UNL     1       4.891   4.983  17.317  0.00  0.00    +0.000 N 
ATOM     30  C   UNL     1       5.774   5.668  18.283  0.00  0.00    +0.000 C 
ATOM     31  C   UNL     1       7.242   5.521  17.820  0.00  0.00    +0.000 C 
ATOM     32  N   UNL     1       7.488   5.989  16.441  0.00  0.00    +0.000 NA
ATOM     33  C   UNL     1       6.519   5.369  15.512  0.00  0.00    +0.000 C 
ATOM     34  C   UNL     1       5.042   5.488  15.951  0.00  0.00    +0.000 C 
ATOM     35  H   UNL     1       8.425   5.692  16.169  0.00  0.00    +0.000 HD
ENDBRANCH  28  29
ENDBRANCH  21  23
ENDBRANCH   1  20
TORSDOF 6
ENDMDL
MODEL 5
REMARK VINA RESULT:      -8.3      2.159      3.591
REMARK  Name = 
REMARK  6 active torsions:
REMARK  status: ('A' for Active; 'I' for Inactive)
REMARK    1  A    between atoms: C_2  and  C_16
REMARK    2  A    between atoms: N_3  and  C_4
REMARK    3  A    between atoms: C_9  and  N_10
REMARK    4  A    between atoms: C_19  and  C_20
REMARK    5  A    between atoms: C_23  and  O_24
REMARK    6  A    between atoms: O_24  and  C_25
REMARK                            x       y       z     vdW  Elec       q    Type
REMARK                         _______ _______ _______ _____ _____    ______ ____
ROOT
ATOM      1  C   UNL     1       1.833   8.244  19.336  0.00  0.00    +0.000 A 
ATOM      2  C   UNL     1       1.855   7.717  20.617  0.00  0.00    +0.000 A 
ATOM      3  S   UNL     1       0.857   8.637  21.661  0.00  0.00    +0.000 S 
ATOM      4  C   UNL     1       0.397   9.630  20.343  0.00  0.00    +0.000 A 
ATOM      5  N   UNL     1       0.990   9.343  19.192  0.00  0.00    +0.000 NA
ENDROOT
BRANCH   4   6
ATOM      6  C   UNL     1      -0.639  10.661  20.440  0.00  0.00    +0.000 A 
ATOM      7  C   UNL     1      -0.947  11.379  21.606  0.00  0.00    +0.000 A 
ATOM      8  C   UNL     1      -1.948  12.362  21.581  0.00  0.00    +0.000 A 
ATOM      9  C   UNL     1      -2.643  12.630  20.400  0.00  0.00    +0.000 A 
ATOM     10  C   UNL     1      -2.372  11.881  19.256  0.00  0.00    +0.000 A 
ATOM     11  C   UNL     1      -1.359  10.934  19.270  0.00  0.00    +0.000 A 
BRANCH   9  12
ATOM     12  O   UNL     1      -3.601  13.617  20.450  0.00  0.00    +0.000 OA
BRANCH  12  13
ATOM     13  C   UNL     1      -4.931  13.264  20.533  0.00  0.00    +0.000 A 
ATOM     14  C   UNL     1      -5.440  13.026  21.810  0.00  0.00    +0.000 A 
ATOM     15  C   UNL     1      -6.774  12.653  21.970  0.00  0.00    +0.000 A 
ATOM     16  C   UNL     1      -7.603  12.516  20.856  0.00  0.00    +0.000 A 
ATOM     17  C   UNL     1      -7.105  12.772  19.582  0.00  0.00    +0.000 A 
ATOM     18  C   UNL     1      -5.788  13.179  19.423  0.00  0.00    +0.000 A 
ENDBRANCH  12  13
ENDBRANCH   9  12
ENDBRANCH   4   6
BRANCH   1  20
ATOM     19  O   UNL     1       2.558   8.284  17.119  0.00  0.00    +0.000 OA
ATOM     20  C   UNL     1       2.586   7.721  18.201  0.00  0.00    +0.000 C 
ATOM     21  N   UNL     1       3.309   6.587  18.487  0.00  0.00    +0.000 N 
ATOM     22  H   UNL     1       3.003   6.081  19.314  0.00  0.00    +0.000 HD
BRANCH  21  23
ATOM     23  C   UNL     1       4.020   5.851  17.509  0.00  0.00    +0.000 A 
ATOM     24  C   UNL     1       4.841   6.575  16.641  0.00  0.00    +0.000 A 
ATOM     25  C   UNL     1       5.618   5.930  15.687  0.00  0.00    +0.000 A 
ATOM     26  C   UNL     1       5.579   4.543  15.602  0.00  0.00    +0.000 A 
ATOM     27  C   UNL     1       4.752   3.818  16.461  0.00  0.00    +0.000 A 
ATOM     28  C   UNL     1       3.940   4.427  17.439  0.00  0.00    +0.000 A 
BRANCH  28  29
ATOM     29  N   UNL     1       3.182   3.647  18.294  0.00  0.00    +0.000 N 
ATOM     30  C   UNL     1       3.796   2.702  19.250  0.00  0.00    +0.000 C 
ATOM     31  C   UNL     1       3.132   2.882  20.635  0.00  0.00    +0.000 C 
ATOM     32  N   UNL     1       1.661   2.752  20.619  0.00  0.00    +0.000 NA
ATOM     33  C   UNL     1       1.083   3.628  19.578  0.00  0.00    +0.000 C 
ATOM     34  C   UNL     1       1.731   3.483  18.183  0.00  0.00    +0.000 C 
ATOM     35  H   UNL     1       1.307   3.057  21.526  0.00  0.00    +0.000 HD
ENDBRANCH  28  29
ENDBRANCH  21  23
ENDBRANCH   1  20
TORSDOF 6
ENDMDL
MODEL 6
REMARK VINA RESULT:      -8.2      2.110      3.673
REMARK  Name = 
REMARK  6 active torsions:
REMARK  status: ('A' for Active; 'I' for Inactive)
REMARK    1  A    between atoms: C_2  and  C_16
REMARK    2  A    between atoms: N_3  and  C_4
REMARK    3  A    between atoms: C_9  and  N_10
REMARK    4  A    between atoms: C_19  and  C_20
REMARK    5  A    between atoms: C_23  and  O_24
REMARK    6  A    between atoms: O_24  and  C_25
REMARK                            x       y       z     vdW  Elec       q    Type
REMARK                         _______ _______ _______ _____ _____    ______ ____
ROOT
ATOM      1  C   UNL     1       1.573   8.506  19.650  0.00  0.00    +0.000 A 
ATOM      2  C   UNL     1       1.563   7.983  20.933  0.00  0.00    +0.000 A 
ATOM      3  S   UNL     1       0.602   8.953  21.968  0.00  0.00    +0.000 S 
ATOM      4  C   UNL     1       0.197   9.961  20.643  0.00  0.00    +0.000 A 
ATOM      5  N   UNL     1       0.782   9.642  19.497  0.00  0.00    +0.000 NA
ENDROOT
BRANCH   4   6
ATOM      6  C   UNL     1      -0.791  11.039  20.730  0.00  0.00    +0.000 A 
ATOM      7  C   UNL     1      -1.461  11.601  19.632  0.00  0.00    +0.000 A 
ATOM      8  C   UNL     1      -2.407  12.618  19.833  0.00  0.00    +0.000 A 
ATOM      9  C   UNL     1      -2.684  13.078  21.122  0.00  0.00    +0.000 A 
ATOM     10  C   UNL     1      -1.980  12.555  22.206  0.00  0.00    +0.000 A 
ATOM     11  C   UNL     1      -1.072  11.525  22.012  0.00  0.00    +0.000 A 
BRANCH   9  12
ATOM     12  O   UNL     1      -3.633  14.067  21.241  0.00  0.00    +0.000 OA
BRANCH  12  13
ATOM     13  C   UNL     1      -4.960  13.759  21.037  0.00  0.00    +0.000 A 
ATOM     14  C   UNL     1      -5.671  14.582  20.162  0.00  0.00    +0.000 A 
ATOM     15  C   UNL     1      -7.021  14.337  19.917  0.00  0.00    +0.000 A 
ATOM     16  C   UNL     1      -7.667  13.271  20.544  0.00  0.00    +0.000 A 
ATOM     17  C   UNL     1      -6.958  12.435  21.401  0.00  0.00    +0.000 A 
ATOM     18  C   UNL     1      -5.605  12.654  21.619  0.00  0.00    +0.000 A 
ENDBRANCH  12  13
ENDBRANCH   9  12
ENDBRANCH   4   6
BRANCH   1  20
ATOM     19  O   UNL     1       2.285   8.485  17.428  0.00  0.00    +0.000 OA
ATOM     20  C   UNL     1       2.308   7.943  18.522  0.00  0.00    +0.000 C 
ATOM     21  N   UNL     1       3.008   6.800  18.826  0.00  0.00    +0.000 N 
ATOM     22  H   UNL     1       2.696   6.318  19.665  0.00  0.00    +0.000 HD
BRANCH  21  23
ATOM     23  C   UNL     1       3.697   6.028  17.860  0.00  0.00    +0.000 A 
ATOM     24  C   UNL     1       4.516   6.719  16.963  0.00  0.00    +0.000 A 
ATOM     25  C   UNL     1       5.272   6.038  16.017  0.00  0.00    +0.000 A 
ATOM     26  C   UNL     1       5.214   4.651  15.969  0.00  0.00    +0.000 A 
ATOM     27  C   UNL     1       4.388   3.960  16.857  0.00  0.00    +0.000 A 
ATOM     28  C   UNL     1       3.596   4.605  17.828  0.00  0.00    +0.000 A 
BRANCH  28  29
ATOM     29  N   UNL     1       2.840   3.857  18.713  0.00  0.00    +0.000 N 
ATOM     30  C   UNL     1       3.421   3.248  19.927  0.00  0.00    +0.000 C 
ATOM     31  C   UNL     1       2.496   3.540  21.131  0.00  0.00    +0.000 C 
ATOM     32  N   UNL     1       1.096   3.114  20.934  0.00  0.00    +0.000 NA
ATOM     33  C   UNL     1       0.577   3.651  19.657  0.00  0.00    +0.000 C 
ATOM     34  C   UNL     1       1.482   3.386  18.433  0.00  0.00    +0.000 C 
ATOM     35  H   UNL     1       0.537   3.502  21.693  0.00  0.00    +0.000 HD
ENDBRANCH  28  29
ENDBRANCH  21  23
ENDBRANCH   1  20
TORSDOF 6
ENDMDL
MODEL 7
REMARK VINA RESULT:      -8.2      2.038      3.532
REMARK  Name = 
REMARK  6 active torsions:
REMARK  status: ('A' for Active; 'I' for Inactive)
REMARK    1  A    between atoms: C_2  and  C_16
REMARK    2  A    between atoms: N_3  and  C_4
REMARK    3  A    between atoms: C_9  and  N_10
REMARK    4  A    between atoms: C_19  and  C_20
REMARK    5  A    between atoms: C_23  and  O_24
REMARK    6  A    between atoms: O_24  and  C_25
REMARK                            x       y       z     vdW  Elec       q    Type
REMARK                         _______ _______ _______ _____ _____    ______ ____
ROOT
ATOM      1  C   UNL     1       1.570   8.556  19.680  0.00  0.00    +0.000 A 
ATOM      2  C   UNL     1       1.602   8.011  20.953  0.00  0.00    +0.000 A 
ATOM      3  S   UNL     1       0.667   8.956  22.033  0.00  0.00    +0.000 S 
ATOM      4  C   UNL     1       0.216   9.984  20.739  0.00  0.00    +0.000 A 
ATOM      5  N   UNL     1       0.768   9.689  19.571  0.00  0.00    +0.000 NA
ENDROOT
BRANCH   4   6
ATOM      6  C   UNL     1      -0.776  11.054  20.875  0.00  0.00    +0.000 A 
ATOM      7  C   UNL     1      -1.095  11.701  22.079  0.00  0.00    +0.000 A 
ATOM      8  C   UNL     1      -2.048  12.730  22.091  0.00  0.00    +0.000 A 
ATOM      9  C   UNL     1      -2.685  13.115  20.909  0.00  0.00    +0.000 A 
ATOM     10  C   UNL     1      -2.404  12.437  19.724  0.00  0.00    +0.000 A 
ATOM     11  C   UNL     1      -1.436  11.444  19.704  0.00  0.00    +0.000 A 
BRANCH   9  12
ATOM     12  O   UNL     1      -3.598  14.140  20.997  0.00  0.00    +0.000 OA
BRANCH  12  13
ATOM     13  C   UNL     1      -4.736  13.968  21.755  0.00  0.00    +0.000 A 
ATOM     14  C   UNL     1      -4.983  14.920  22.746  0.00  0.00    +0.000 A 
ATOM     15  C   UNL     1      -6.108  14.803  23.559  0.00  0.00    +0.000 A 
ATOM     16  C   UNL     1      -6.992  13.737  23.387  0.00  0.00    +0.000 A 
ATOM     17  C   UNL     1      -6.762  12.797  22.387  0.00  0.00    +0.000 A 
ATOM     18  C   UNL     1      -5.661  12.930  21.552  0.00  0.00    +0.000 A 
ENDBRANCH  12  13
ENDBRANCH   9  12
ENDBRANCH   4   6
BRANCH   1  20
ATOM     19  O   UNL     1       2.173   8.550  17.426  0.00  0.00    +0.000 OA
ATOM     20  C   UNL     1       2.274   8.018  18.520  0.00  0.00    +0.000 C 
ATOM     21  N   UNL     1       3.038   6.910  18.796  0.00  0.00    +0.000 N 
ATOM     22  H   UNL     1       2.790   6.421  19.651  0.00  0.00    +0.000 HD
BRANCH  21  23
ATOM     23  C   UNL     1       3.714   6.163  17.801  0.00  0.00    +0.000 A 
ATOM     24  C   UNL     1       4.524   6.875  16.912  0.00  0.00    +0.000 A 
ATOM     25  C   UNL     1       5.266   6.218  15.939  0.00  0.00    +0.000 A 
ATOM     26  C   UNL     1       5.205   4.832  15.856  0.00  0.00    +0.000 A 
ATOM     27  C   UNL     1       4.388   4.120  16.736  0.00  0.00    +0.000 A 
ATOM     28  C   UNL     1       3.610   4.740  17.733  0.00  0.00    +0.000 A 
BRANCH  28  29
ATOM     29  N   UNL     1       2.862   3.972  18.607  0.00  0.00    +0.000 N 
ATOM     30  C   UNL     1       2.966   4.120  20.073  0.00  0.00    +0.000 C 
ATOM     31  C   UNL     1       1.544   4.177  20.678  0.00  0.00    +0.000 C 
ATOM     32  N   UNL     1       0.687   3.032  20.313  0.00  0.00    +0.000 NA
ATOM     33  C   UNL     1       0.689   2.842  18.846  0.00  0.00    +0.000 C 
ATOM     34  C   UNL     1       2.095   2.791  18.207  0.00  0.00    +0.000 C 
ATOM     35  H   UNL     1      -0.267   3.245  20.605  0.00  0.00    +0.000 HD
ENDBRANCH  28  29
ENDBRANCH  21  23
ENDBRANCH   1  20
TORSDOF 6
ENDMDL
MODEL 8
REMARK VINA RESULT:      -8.2      3.458     11.522
REMARK  Name = 
REMARK  6 active torsions:
REMARK  status: ('A' for Active; 'I' for Inactive)
REMARK    1  A    between atoms: C_2  and  C_16
REMARK    2  A    between atoms: N_3  and  C_4
REMARK    3  A    between atoms: C_9  and  N_10
REMARK    4  A    between atoms: C_19  and  C_20
REMARK    5  A    between atoms: C_23  and  O_24
REMARK    6  A    between atoms: O_24  and  C_25
REMARK                            x       y       z     vdW  Elec       q    Type
REMARK                         _______ _______ _______ _____ _____    ______ ____
ROOT
ATOM      1  C   UNL     1      -0.735  12.922  21.022  0.00  0.00    +0.000 A 
ATOM      2  C   UNL     1      -1.352  13.143  19.802  0.00  0.00    +0.000 A 
ATOM      3  S   UNL     1      -0.814  12.003  18.643  0.00  0.00    +0.000 S 
ATOM      4  C   UNL     1       0.145  11.241  19.842  0.00  0.00    +0.000 A 
ATOM      5  N   UNL     1       0.122  11.824  21.031  0.00  0.00    +0.000 NA
ENDROOT
BRANCH   4   6
ATOM      6  C   UNL     1       0.866   9.986  19.612  0.00  0.00    +0.000 A 
ATOM      7  C   UNL     1       1.452   9.611  18.393  0.00  0.00    +0.000 A 
ATOM      8  C   UNL     1       2.138   8.392  18.290  0.00  0.00    +0.000 A 
ATOM      9  C   UNL     1       2.241   7.545  19.396  0.00  0.00    +0.000 A 
ATOM     10  C   UNL     1       1.614   7.895  20.591  0.00  0.00    +0.000 A 
ATOM     11  C   UNL     1       0.966   9.116  20.704  0.00  0.00    +0.000 A 
BRANCH   9  12
ATOM     12  O   UNL     1       2.941   6.373  19.223  0.00  0.00    +0.000 OA
BRANCH  12  13
ATOM     13  C   UNL     1       2.298   5.169  19.409  0.00  0.00    +0.000 A 
ATOM     14  C   UNL     1       1.815   4.529  18.267  0.00  0.00    +0.000 A 
ATOM     15  C   UNL     1       1.143   3.313  18.381  0.00  0.00    +0.000 A 
ATOM     16  C   UNL     1       0.950   2.731  19.634  0.00  0.00    +0.000 A 
ATOM     17  C   UNL     1       1.448   3.355  20.775  0.00  0.00    +0.000 A 
ATOM     18  C   UNL     1       2.149   4.547  20.661  0.00  0.00    +0.000 A 
ENDBRANCH  12  13
ENDBRANCH   9  12
ENDBRANCH   4   6
BRANCH   1  20
ATOM     19  O   UNL     1      -0.402  13.424  23.276  0.00  0.00    +0.000 OA
ATOM     20  C   UNL     1      -0.945  13.721  22.225  0.00  0.00    +0.000 C 
ATOM     21  N   UNL     1      -1.772  14.804  22.038  0.00  0.00    +0.000 N 
ATOM     22  H   UNL     1      -2.369  14.749  21.217  0.00  0.00    +0.000 HD
BRANCH  21  23
ATOM     23  C   UNL     1      -2.200  15.647  23.090  0.00  0.00    +0.000 A 
ATOM     24  C   UNL     1      -1.464  16.815  23.309  0.00  0.00    +0.000 A 
ATOM     25  C   UNL     1      -1.845  17.727  24.285  0.00  0.00    +0.000 A 
ATOM     26  C   UNL     1      -2.978  17.476  25.047  0.00  0.00    +0.000 A 
ATOM     27  C   UNL     1      -3.709  16.304  24.838  0.00  0.00    +0.000 A 
ATOM     28  C   UNL     1      -3.359  15.345  23.868  0.00  0.00    +0.000 A 
BRANCH  28  29
ATOM     29  N   UNL     1      -4.156  14.231  23.675  0.00  0.00    +0.000 N 
ATOM     30  C   UNL     1      -3.786  12.898  24.193  0.00  0.00    +0.000 C 
ATOM     31  C   UNL     1      -5.013  12.267  24.891  0.00  0.00    +0.000 C 
ATOM     32  N   UNL     1      -6.220  12.198  24.042  0.00  0.00    +0.000 NA
ATOM     33  C   UNL     1      -6.503  13.524  23.452  0.00  0.00    +0.000 C 
ATOM     34  C   UNL     1      -5.295  14.188  22.755  0.00  0.00    +0.000 C 
ATOM     35  H   UNL     1      -7.008  11.938  24.634  0.00  0.00    +0.000 HD
ENDBRANCH  28  29
ENDBRANCH  21  23
ENDBRANCH   1  20
TORSDOF 6
ENDMDL
MODEL 9
REMARK VINA RESULT:      -8.2      3.530     10.890
REMARK  Name = 
REMARK  6 active torsions:
REMARK  status: ('A' for Active; 'I' for Inactive)
REMARK    1  A    between atoms: C_2  and  C_16
REMARK    2  A    between atoms: N_3  and  C_4
REMARK    3  A    between atoms: C_9  and  N_10
REMARK    4  A    between atoms: C_19  and  C_20
REMARK    5  A    between atoms: C_23  and  O_24
REMARK    6  A    between atoms: O_24  and  C_25
REMARK                            x       y       z     vdW  Elec       q    Type
REMARK                         _______ _______ _______ _____ _____    ______ ____
ROOT
ATOM      1  C   UNL     1      -1.710  12.546  20.562  0.00  0.00    +0.000 A 
ATOM      2  C   UNL     1      -1.274  13.288  19.477  0.00  0.00    +0.000 A 
ATOM      3  S   UNL     1       0.035  12.503  18.701  0.00  0.00    +0.000 S 
ATOM      4  C   UNL     1      -0.101  11.195  19.801  0.00  0.00    +0.000 A 
ATOM      5  N   UNL     1      -1.028  11.345  20.736  0.00  0.00    +0.000 NA
ENDROOT
BRANCH   4   6
ATOM      6  C   UNL     1       0.674   9.959  19.674  0.00  0.00    +0.000 A 
ATOM      7  C   UNL     1       1.337   9.546  18.508  0.00  0.00    +0.000 A 
ATOM      8  C   UNL     1       2.071   8.350  18.504  0.00  0.00    +0.000 A 
ATOM      9  C   UNL     1       2.144   7.564  19.656  0.00  0.00    +0.000 A 
ATOM     10  C   UNL     1       1.442   7.949  20.798  0.00  0.00    +0.000 A 
ATOM     11  C   UNL     1       0.747   9.149  20.814  0.00  0.00    +0.000 A 
BRANCH   9  12
ATOM     12  O   UNL     1       2.892   6.412  19.580  0.00  0.00    +0.000 OA
BRANCH  12  13
ATOM     13  C   UNL     1       2.254   5.201  19.424  0.00  0.00    +0.000 A 
ATOM     14  C   UNL     1       1.762   4.595  20.581  0.00  0.00    +0.000 A 
ATOM     15  C   UNL     1       1.116   3.362  20.501  0.00  0.00    +0.000 A 
ATOM     16  C   UNL     1       0.959   2.730  19.267  0.00  0.00    +0.000 A 
ATOM     17  C   UNL     1       1.430   3.340  18.108  0.00  0.00    +0.000 A 
ATOM     18  C   UNL     1       2.041   4.583  18.180  0.00  0.00    +0.000 A 
ENDBRANCH  12  13
ENDBRANCH   9  12
ENDBRANCH   4   6
BRANCH   1  20
ATOM     19  O   UNL     1      -2.575  13.594  22.459  0.00  0.00    +0.000 OA
ATOM     20  C   UNL     1      -2.796  12.931  21.459  0.00  0.00    +0.000 C 
ATOM     21  N   UNL     1      -4.035  12.494  21.054  0.00  0.00    +0.000 N 
ATOM     22  H   UNL     1      -4.022  11.724  20.392  0.00  0.00    +0.000 HD
BRANCH  21  23
ATOM     23  C   UNL     1      -5.209  12.658  21.828  0.00  0.00    +0.000 A 
ATOM     24  C   UNL     1      -5.040  12.963  23.181  0.00  0.00    +0.000 A 
ATOM     25  C   UNL     1      -6.136  13.194  24.003  0.00  0.00    +0.000 A 
ATOM     26  C   UNL     1      -7.416  13.126  23.467  0.00  0.00    +0.000 A 
ATOM     27  C   UNL     1      -7.587  12.811  22.117  0.00  0.00    +0.000 A 
ATOM     28  C   UNL     1      -6.509  12.559  21.246  0.00  0.00    +0.000 A 
BRANCH  28  29
ATOM     29  N   UNL     1      -6.745  12.303  19.907  0.00  0.00    +0.000 N 
ATOM     30  C   UNL     1      -7.360  13.304  19.011  0.00  0.00    +0.000 C 
ATOM     31  C   UNL     1      -6.547  13.375  17.698  0.00  0.00    +0.000 C 
ATOM     32  N   UNL     1      -6.383  12.073  17.019  0.00  0.00    +0.000 NA
ATOM     33  C   UNL     1      -5.868  11.065  17.970  0.00  0.00    +0.000 C 
ATOM     34  C   UNL     1      -6.652  10.975  19.298  0.00  0.00    +0.000 C 
ATOM     35  H   UNL     1      -5.696  12.189  16.274  0.00  0.00    +0.000 HD
ENDBRANCH  28  29
ENDBRANCH  21  23
ENDBRANCH   1  20
TORSDOF 6
ENDMDL
