MODEL 1
REMARK VINA RESULT:      -6.8      0.000      0.000
REMARK  Name = 
REMARK  11 active torsions:
REMARK  status: ('A' for Active; 'I' for Inactive)
REMARK    1  A    between atoms: C_1  and  C_2
REMARK    2  A    between atoms: C_2  and  C_3
REMARK    3  A    between atoms: C_3  and  C_4
REMARK    4  A    between atoms: C_4  and  C_5
REMARK    5  A    between atoms: C_9  and  C_10
REMARK    6  A    between atoms: C_13  and  O_14
REMARK    7  A    between atoms: O_14  and  C_15
REMARK    8  A    between atoms: C_18  and  C_19
REMARK    9  A    between atoms: C_21  and  C_22
REMARK   10  A    between atoms: C_22  and  C_23
REMARK   11  A    between atoms: C_23  and  C_24
REMARK                            x       y       z     vdW  Elec       q    Type
REMARK                         _______ _______ _______ _____ _____    ______ ____
ROOT
ATOM      1  C   UNL     1       1.908   6.456  20.294  0.00  0.00    +0.000 A 
ATOM      2  N   UNL     1       2.243   7.358  19.347  0.00  0.00    +0.000 NA
ATOM      3  C   UNL     1       3.185   7.075  18.434  0.00  0.00    +0.000 A 
ATOM      4  N   UNL     1       3.351   8.115  17.525  0.00  0.00    +0.000 N 
ATOM      5  C   UNL     1       3.935   5.888  18.419  0.00  0.00    +0.000 A 
ATOM      6  C   UNL     1       3.623   4.983  19.470  0.00  0.00    +0.000 A 
ATOM      7  C   UNL     1       2.566   5.232  20.400  0.00  0.00    +0.000 A 
ATOM      8  H   UNL     1       2.650   8.819  17.749  0.00  0.00    +0.000 HD
ATOM      9  H   UNL     1       3.286   7.798  16.565  0.00  0.00    +0.000 HD
ENDROOT
BRANCH   5  10
ATOM     10  C   UNL     1       4.953   5.607  17.350  0.00  0.00    +0.000 A 
ATOM     11  C   UNL     1       6.273   6.093  17.430  0.00  0.00    +0.000 A 
ATOM     12  C   UNL     1       7.196   5.919  16.391  0.00  0.00    +0.000 A 
ATOM     13  C   UNL     1       6.865   5.161  15.275  0.00  0.00    +0.000 A 
ATOM     14  C   UNL     1       5.584   4.634  15.177  0.00  0.00    +0.000 A 
ATOM     15  C   UNL     1       4.636   4.891  16.180  0.00  0.00    +0.000 A 
BRANCH  13  16
ATOM     16  O   UNL     1       7.828   5.064  14.311  0.00  0.00    +0.000 OA
ATOM     17  C   UNL     1       7.344   4.834  12.992  0.00  0.00    +0.000 C 
ENDBRANCH  13  16
ENDBRANCH   5  10
BRANCH   6  18
ATOM     18  C   UNL     1       4.393   3.779  19.647  0.00  0.00    +0.000 C 
ATOM     19  N   UNL     1       5.022   2.803  19.744  0.00  0.00    +0.000 NA
ENDBRANCH   6  18
BRANCH   1  20
ATOM     20  C   UNL     1       0.810   6.944  21.211  0.00  0.00    +0.000 C 
BRANCH  20  21
ATOM     21  C   UNL     1       0.626   8.466  21.119  0.00  0.00    +0.000 C 
BRANCH  21  23
ATOM     22  C   UNL     1      -0.178   9.616  23.207  0.00  0.00    +0.000 C 
ATOM     23  C   UNL     1       1.037   9.160  22.415  0.00  0.00    +0.000 C 
ENDBRANCH  21  23
ENDBRANCH  20  21
ENDBRANCH   1  20
BRANCH   7  24
ATOM     24  C   UNL     1       2.175   4.183  21.427  0.00  0.00    +0.000 C 
BRANCH  24  25
ATOM     25  C   UNL     1       1.377   2.994  20.881  0.00  0.00    +0.000 C 
ATOM     26  C   UNL     1       0.649   3.286  19.580  0.00  0.00    +0.000 C 
ENDBRANCH  24  25
ENDBRANCH   7  24
TORSDOF 8
ENDMDL
MODEL 2
REMARK VINA RESULT:      -6.7      0.396      1.046
REMARK  Name = 
REMARK  11 active torsions:
REMARK  status: ('A' for Active; 'I' for Inactive)
REMARK    1  A    between atoms: C_1  and  C_2
REMARK    2  A    between atoms: C_2  and  C_3
REMARK    3  A    between atoms: C_3  and  C_4
REMARK    4  A    between atoms: C_4  and  C_5
REMARK    5  A    between atoms: C_9  and  C_10
REMARK    6  A    between atoms: C_13  and  O_14
REMARK    7  A    between atoms: O_14  and  C_15
REMARK    8  A    between atoms: C_18  and  C_19
REMARK    9  A    between atoms: C_21  and  C_22
REMARK   10  A    between atoms: C_22  and  C_23
REMARK   11  A    between atoms: C_23  and  C_24
REMARK                            x       y       z     vdW  Elec       q    Type
REMARK                         _______ _______ _______ _____ _____    ______ ____
ROOT
ATOM      1  C   UNL     1       1.956   6.473  20.329  0.00  0.00    +0.000 A 
ATOM      2  N   UNL     1       2.231   7.341  19.331  0.00  0.00    +0.000 NA
ATOM      3  C   UNL     1       3.094   7.014  18.356  0.00  0.00    +0.000 A 
ATOM      4  N   UNL     1       3.204   8.025  17.407  0.00  0.00    +0.000 N 
ATOM      5  C   UNL     1       3.820   5.813  18.318  0.00  0.00    +0.000 A 
ATOM      6  C   UNL     1       3.576   4.945  19.417  0.00  0.00    +0.000 A 
ATOM      7  C   UNL     1       2.600   5.240  20.419  0.00  0.00    +0.000 A 
ATOM      8  H   UNL     1       2.535   8.747  17.663  0.00  0.00    +0.000 HD
ATOM      9  H   UNL     1       3.059   7.682  16.464  0.00  0.00    +0.000 HD
ENDROOT
BRANCH   5  10
ATOM     10  C   UNL     1       4.746   5.483  17.182  0.00  0.00    +0.000 A 
ATOM     11  C   UNL     1       4.390   4.574  16.168  0.00  0.00    +0.000 A 
ATOM     12  C   UNL     1       5.287   4.188  15.163  0.00  0.00    +0.000 A 
ATOM     13  C   UNL     1       6.542   4.778  15.075  0.00  0.00    +0.000 A 
ATOM     14  C   UNL     1       6.915   5.708  16.037  0.00  0.00    +0.000 A 
ATOM     15  C   UNL     1       6.046   6.019  17.093  0.00  0.00    +0.000 A 
BRANCH  13  16
ATOM     16  O   UNL     1       7.347   4.323  14.071  0.00  0.00    +0.000 OA
ATOM     17  C   UNL     1       6.666   3.881  12.901  0.00  0.00    +0.000 C 
ENDBRANCH  13  16
ENDBRANCH   5  10
BRANCH   6  18
ATOM     18  C   UNL     1       4.338   3.731  19.570  0.00  0.00    +0.000 C 
ATOM     19  N   UNL     1       4.914   2.726  19.687  0.00  0.00    +0.000 NA
ENDBRANCH   6  18
BRANCH   1  20
ATOM     20  C   UNL     1       0.942   7.007  21.314  0.00  0.00    +0.000 C 
BRANCH  20  21
ATOM     21  C   UNL     1       0.753   8.525  21.169  0.00  0.00    +0.000 C 
BRANCH  21  23
ATOM     22  C   UNL     1      -0.291   9.676  23.147  0.00  0.00    +0.000 C 
ATOM     23  C   UNL     1       1.011   9.250  22.487  0.00  0.00    +0.000 C 
ENDBRANCH  21  23
ENDBRANCH  20  21
ENDBRANCH   1  20
BRANCH   7  24
ATOM     24  C   UNL     1       2.274   4.228  21.505  0.00  0.00    +0.000 C 
BRANCH  24  25
ATOM     25  C   UNL     1       1.404   3.046  21.062  0.00  0.00    +0.000 C 
ATOM     26  C   UNL     1       0.650   3.289  19.765  0.00  0.00    +0.000 C 
ENDBRANCH  24  25
ENDBRANCH   7  24
TORSDOF 8
ENDMDL
MODEL 3
REMARK VINA RESULT:      -6.3      2.951      7.006
REMARK  Name = 
REMARK  11 active torsions:
REMARK  status: ('A' for Active; 'I' for Inactive)
REMARK    1  A    between atoms: C_1  and  C_2
REMARK    2  A    between atoms: C_2  and  C_3
REMARK    3  A    between atoms: C_3  and  C_4
REMARK    4  A    between atoms: C_4  and  C_5
REMARK    5  A    between atoms: C_9  and  C_10
REMARK    6  A    between atoms: C_13  and  O_14
REMARK    7  A    between atoms: O_14  and  C_15
REMARK    8  A    between atoms: C_18  and  C_19
REMARK    9  A    between atoms: C_21  and  C_22
REMARK   10  A    between atoms: C_22  and  C_23
REMARK   11  A    between atoms: C_23  and  C_24
REMARK                            x       y       z     vdW  Elec       q    Type
REMARK                         _______ _______ _______ _____ _____    ______ ____
ROOT
ATOM      1  C   UNL     1       4.731   4.147  16.600  0.00  0.00    +0.000 A 
ATOM      2  N   UNL     1       5.050   5.458  16.524  0.00  0.00    +0.000 NA
ATOM      3  C   UNL     1       4.347   6.375  17.207  0.00  0.00    +0.000 A 
ATOM      4  N   UNL     1       4.861   7.655  17.027  0.00  0.00    +0.000 N 
ATOM      5  C   UNL     1       3.213   6.082  17.980  0.00  0.00    +0.000 A 
ATOM      6  C   UNL     1       2.845   4.709  17.985  0.00  0.00    +0.000 A 
ATOM      7  C   UNL     1       3.630   3.707  17.333  0.00  0.00    +0.000 A 
ATOM      8  H   UNL     1       5.703   7.560  16.462  0.00  0.00    +0.000 HD
ATOM      9  H   UNL     1       5.040   8.123  17.908  0.00  0.00    +0.000 HD
ENDROOT
BRANCH   5  10
ATOM     10  C   UNL     1       2.485   7.144  18.754  0.00  0.00    +0.000 A 
ATOM     11  C   UNL     1       2.254   7.035  20.138  0.00  0.00    +0.000 A 
ATOM     12  C   UNL     1       1.491   7.973  20.844  0.00  0.00    +0.000 A 
ATOM     13  C   UNL     1       1.016   9.115  20.210  0.00  0.00    +0.000 A 
ATOM     14  C   UNL     1       1.256   9.277  18.852  0.00  0.00    +0.000 A 
ATOM     15  C   UNL     1       1.942   8.286  18.133  0.00  0.00    +0.000 A 
BRANCH  13  16
ATOM     16  O   UNL     1       0.270   9.960  20.980  0.00  0.00    +0.000 OA
ATOM     17  C   UNL     1      -0.200   9.408  22.206  0.00  0.00    +0.000 C 
ENDBRANCH  13  16
ENDBRANCH   5  10
BRANCH   6  18
ATOM     18  C   UNL     1       1.635   4.281  18.641  0.00  0.00    +0.000 C 
ATOM     19  N   UNL     1       0.678   3.894  19.179  0.00  0.00    +0.000 NA
ENDBRANCH   6  18
BRANCH   1  20
ATOM     20  C   UNL     1       5.652   3.267  15.786  0.00  0.00    +0.000 C 
BRANCH  20  21
ATOM     21  C   UNL     1       6.348   4.055  14.666  0.00  0.00    +0.000 C 
BRANCH  21  23
ATOM     22  C   UNL     1       6.849   3.848  12.209  0.00  0.00    +0.000 C 
ATOM     23  C   UNL     1       5.796   3.682  13.293  0.00  0.00    +0.000 C 
ENDBRANCH  21  23
ENDBRANCH  20  21
ENDBRANCH   1  20
BRANCH   7  24
ATOM     24  C   UNL     1       3.279   2.236  17.471  0.00  0.00    +0.000 C 
BRANCH  24  25
ATOM     25  C   UNL     1       4.029   1.482  18.575  0.00  0.00    +0.000 C 
ATOM     26  C   UNL     1       4.340   2.330  19.797  0.00  0.00    +0.000 C 
ENDBRANCH  24  25
ENDBRANCH   7  24
TORSDOF 8
ENDMDL
MODEL 4
REMARK VINA RESULT:      -6.2      3.043      6.916
REMARK  Name = 
REMARK  11 active torsions:
REMARK  status: ('A' for Active; 'I' for Inactive)
REMARK    1  A    between atoms: C_1  and  C_2
REMARK    2  A    between atoms: C_2  and  C_3
REMARK    3  A    between atoms: C_3  and  C_4
REMARK    4  A    between atoms: C_4  and  C_5
REMARK    5  A    between atoms: C_9  and  C_10
REMARK    6  A    between atoms: C_13  and  O_14
REMARK    7  A    between atoms: O_14  and  C_15
REMARK    8  A    between atoms: C_18  and  C_19
REMARK    9  A    between atoms: C_21  and  C_22
REMARK   10  A    between atoms: C_22  and  C_23
REMARK   11  A    between atoms: C_23  and  C_24
REMARK                            x       y       z     vdW  Elec       q    Type
REMARK                         _______ _______ _______ _____ _____    ______ ____
ROOT
ATOM      1  C   UNL     1       4.856   4.196  16.675  0.00  0.00    +0.000 A 
ATOM      2  N   UNL     1       5.166   5.510  16.626  0.00  0.00    +0.000 NA
ATOM      3  C   UNL     1       4.409   6.417  17.262  0.00  0.00    +0.000 A 
ATOM      4  N   UNL     1       4.921   7.703  17.122  0.00  0.00    +0.000 N 
ATOM      5  C   UNL     1       3.227   6.110  17.954  0.00  0.00    +0.000 A 
ATOM      6  C   UNL     1       2.873   4.733  17.929  0.00  0.00    +0.000 A 
ATOM      7  C   UNL     1       3.711   3.742  17.328  0.00  0.00    +0.000 A 
ATOM      8  H   UNL     1       5.801   7.619  16.617  0.00  0.00    +0.000 HD
ATOM      9  H   UNL     1       5.034   8.169  18.015  0.00  0.00    +0.000 HD
ENDROOT
BRANCH   5  10
ATOM     10  C   UNL     1       2.437   7.162  18.678  0.00  0.00    +0.000 A 
ATOM     11  C   UNL     1       1.898   8.282  18.015  0.00  0.00    +0.000 A 
ATOM     12  C   UNL     1       1.248   9.314  18.703  0.00  0.00    +0.000 A 
ATOM     13  C   UNL     1       1.019   9.216  20.069  0.00  0.00    +0.000 A 
ATOM     14  C   UNL     1       1.502   8.108  20.752  0.00  0.00    +0.000 A 
ATOM     15  C   UNL     1       2.234   7.122  20.072  0.00  0.00    +0.000 A 
BRANCH  13  16
ATOM     16  O   UNL     1       0.391  10.281  20.649  0.00  0.00    +0.000 OA
ATOM     17  C   UNL     1       1.021  11.541  20.443  0.00  0.00    +0.000 C 
ENDBRANCH  13  16
ENDBRANCH   5  10
BRANCH   6  18
ATOM     18  C   UNL     1       1.625   4.291  18.497  0.00  0.00    +0.000 C 
ATOM     19  N   UNL     1       0.640   3.899  18.979  0.00  0.00    +0.000 NA
ENDBRANCH   6  18
BRANCH   1  20
ATOM     20  C   UNL     1       5.839   3.328  15.924  0.00  0.00    +0.000 C 
BRANCH  20  21
ATOM     21  C   UNL     1       6.431   4.059  14.709  0.00  0.00    +0.000 C 
BRANCH  21  23
ATOM     22  C   UNL     1       6.372   3.438  12.272  0.00  0.00    +0.000 C 
ATOM     23  C   UNL     1       5.554   3.890  13.472  0.00  0.00    +0.000 C 
ENDBRANCH  21  23
ENDBRANCH  20  21
ENDBRANCH   1  20
BRANCH   7  24
ATOM     24  C   UNL     1       3.366   2.267  17.437  0.00  0.00    +0.000 C 
BRANCH  24  25
ATOM     25  C   UNL     1       4.081   1.505  18.558  0.00  0.00    +0.000 C 
ATOM     26  C   UNL     1       4.248   2.308  19.838  0.00  0.00    +0.000 C 
ENDBRANCH  24  25
ENDBRANCH   7  24
TORSDOF 8
ENDMDL
MODEL 5
REMARK VINA RESULT:      -6.0      1.232      1.450
REMARK  Name = 
REMARK  11 active torsions:
REMARK  status: ('A' for Active; 'I' for Inactive)
REMARK    1  A    between atoms: C_1  and  C_2
REMARK    2  A    between atoms: C_2  and  C_3
REMARK    3  A    between atoms: C_3  and  C_4
REMARK    4  A    between atoms: C_4  and  C_5
REMARK    5  A    between atoms: C_9  and  C_10
REMARK    6  A    between atoms: C_13  and  O_14
REMARK    7  A    between atoms: O_14  and  C_15
REMARK    8  A    between atoms: C_18  and  C_19
REMARK    9  A    between atoms: C_21  and  C_22
REMARK   10  A    between atoms: C_22  and  C_23
REMARK   11  A    between atoms: C_23  and  C_24
REMARK                            x       y       z     vdW  Elec       q    Type
REMARK                         _______ _______ _______ _____ _____    ______ ____
ROOT
ATOM      1  C   UNL     1       2.137   5.945  19.740  0.00  0.00    +0.000 A 
ATOM      2  N   UNL     1       2.944   6.857  19.155  0.00  0.00    +0.000 NA
ATOM      3  C   UNL     1       3.777   6.500  18.165  0.00  0.00    +0.000 A 
ATOM      4  N   UNL     1       4.486   7.591  17.671  0.00  0.00    +0.000 N 
ATOM      5  C   UNL     1       3.936   5.183  17.707  0.00  0.00    +0.000 A 
ATOM      6  C   UNL     1       3.137   4.224  18.387  0.00  0.00    +0.000 A 
ATOM      7  C   UNL     1       2.184   4.598  19.385  0.00  0.00    +0.000 A 
ATOM      8  H   UNL     1       4.135   8.416  18.154  0.00  0.00    +0.000 HD
ATOM      9  H   UNL     1       4.411   7.672  16.664  0.00  0.00    +0.000 HD
ENDROOT
BRANCH   5  10
ATOM     10  C   UNL     1       4.858   4.846  16.569  0.00  0.00    +0.000 A 
ATOM     11  C   UNL     1       6.259   4.887  16.705  0.00  0.00    +0.000 A 
ATOM     12  C   UNL     1       7.121   4.672  15.622  0.00  0.00    +0.000 A 
ATOM     13  C   UNL     1       6.615   4.303  14.382  0.00  0.00    +0.000 A 
ATOM     14  C   UNL     1       5.238   4.214  14.219  0.00  0.00    +0.000 A 
ATOM     15  C   UNL     1       4.379   4.523  15.284  0.00  0.00    +0.000 A 
BRANCH  13  16
ATOM     16  O   UNL     1       7.534   4.130  13.388  0.00  0.00    +0.000 OA
ATOM     17  C   UNL     1       6.993   3.818  12.109  0.00  0.00    +0.000 C 
ENDBRANCH  13  16
ENDBRANCH   5  10
BRANCH   6  18
ATOM     18  C   UNL     1       3.284   2.819  18.102  0.00  0.00    +0.000 C 
ATOM     19  N   UNL     1       3.375   1.674  17.909  0.00  0.00    +0.000 NA
ENDBRANCH   6  18
BRANCH   1  20
ATOM     20  C   UNL     1       1.253   6.540  20.811  0.00  0.00    +0.000 C 
BRANCH  20  21
ATOM     21  C   UNL     1       1.352   8.072  20.845  0.00  0.00    +0.000 C 
BRANCH  21  23
ATOM     22  C   UNL     1       0.357   9.314  22.793  0.00  0.00    +0.000 C 
ATOM     23  C   UNL     1       0.089   8.702  21.427  0.00  0.00    +0.000 C 
ENDBRANCH  21  23
ENDBRANCH  20  21
ENDBRANCH   1  20
BRANCH   7  24
ATOM     24  C   UNL     1       1.255   3.562  19.995  0.00  0.00    +0.000 C 
BRANCH  24  25
ATOM     25  C   UNL     1       1.573   3.164  21.441  0.00  0.00    +0.000 C 
ATOM     26  C   UNL     1       2.866   2.382  21.593  0.00  0.00    +0.000 C 
ENDBRANCH  24  25
ENDBRANCH   7  24
TORSDOF 8
ENDMDL
MODEL 6
REMARK VINA RESULT:      -5.9      1.296      1.735
REMARK  Name = 
REMARK  11 active torsions:
REMARK  status: ('A' for Active; 'I' for Inactive)
REMARK    1  A    between atoms: C_1  and  C_2
REMARK    2  A    between atoms: C_2  and  C_3
REMARK    3  A    between atoms: C_3  and  C_4
REMARK    4  A    between atoms: C_4  and  C_5
REMARK    5  A    between atoms: C_9  and  C_10
REMARK    6  A    between atoms: C_13  and  O_14
REMARK    7  A    between atoms: O_14  and  C_15
REMARK    8  A    between atoms: C_18  and  C_19
REMARK    9  A    between atoms: C_21  and  C_22
REMARK   10  A    between atoms: C_22  and  C_23
REMARK   11  A    between atoms: C_23  and  C_24
REMARK                            x       y       z     vdW  Elec       q    Type
REMARK                         _______ _______ _______ _____ _____    ______ ____
ROOT
ATOM      1  C   UNL     1       2.174   6.042  19.739  0.00  0.00    +0.000 A 
ATOM      2  N   UNL     1       3.011   6.934  19.166  0.00  0.00    +0.000 NA
ATOM      3  C   UNL     1       3.832   6.562  18.172  0.00  0.00    +0.000 A 
ATOM      4  N   UNL     1       4.578   7.634  17.693  0.00  0.00    +0.000 N 
ATOM      5  C   UNL     1       3.949   5.246  17.698  0.00  0.00    +0.000 A 
ATOM      6  C   UNL     1       3.117   4.306  18.366  0.00  0.00    +0.000 A 
ATOM      7  C   UNL     1       2.176   4.699  19.368  0.00  0.00    +0.000 A 
ATOM      8  H   UNL     1       4.254   8.464  18.185  0.00  0.00    +0.000 HD
ATOM      9  H   UNL     1       4.507   7.731  16.687  0.00  0.00    +0.000 HD
ENDROOT
BRANCH   5  10
ATOM     10  C   UNL     1       4.860   4.892  16.557  0.00  0.00    +0.000 A 
ATOM     11  C   UNL     1       4.382   4.725  15.243  0.00  0.00    +0.000 A 
ATOM     12  C   UNL     1       5.210   4.298  14.197  0.00  0.00    +0.000 A 
ATOM     13  C   UNL     1       6.573   4.124  14.403  0.00  0.00    +0.000 A 
ATOM     14  C   UNL     1       7.088   4.316  15.678  0.00  0.00    +0.000 A 
ATOM     15  C   UNL     1       6.236   4.653  16.741  0.00  0.00    +0.000 A 
BRANCH  13  16
ATOM     16  O   UNL     1       7.290   3.692  13.325  0.00  0.00    +0.000 OA
ATOM     17  C   UNL     1       6.526   3.435  12.151  0.00  0.00    +0.000 C 
ENDBRANCH  13  16
ENDBRANCH   5  10
BRANCH   6  18
ATOM     18  C   UNL     1       3.218   2.900  18.063  0.00  0.00    +0.000 C 
ATOM     19  N   UNL     1       3.329   1.760  17.855  0.00  0.00    +0.000 NA
ENDBRANCH   6  18
BRANCH   1  20
ATOM     20  C   UNL     1       1.308   6.652  20.817  0.00  0.00    +0.000 C 
BRANCH  20  21
ATOM     21  C   UNL     1       1.264   8.185  20.712  0.00  0.00    +0.000 C 
BRANCH  21  23
ATOM     22  C   UNL     1      -0.280   9.183  22.429  0.00  0.00    +0.000 C 
ATOM     23  C   UNL     1       1.161   8.838  22.088  0.00  0.00    +0.000 C 
ENDBRANCH  21  23
ENDBRANCH  20  21
ENDBRANCH   1  20
BRANCH   7  24
ATOM     24  C   UNL     1       1.212   3.687  19.964  0.00  0.00    +0.000 C 
BRANCH  24  25
ATOM     25  C   UNL     1       1.507   3.271  21.410  0.00  0.00    +0.000 C 
ATOM     26  C   UNL     1       2.802   2.494  21.575  0.00  0.00    +0.000 C 
ENDBRANCH  24  25
ENDBRANCH   7  24
TORSDOF 8
ENDMDL
MODEL 7
REMARK VINA RESULT:      -5.9      3.164      6.961
REMARK  Name = 
REMARK  11 active torsions:
REMARK  status: ('A' for Active; 'I' for Inactive)
REMARK    1  A    between atoms: C_1  and  C_2
REMARK    2  A    between atoms: C_2  and  C_3
REMARK    3  A    between atoms: C_3  and  C_4
REMARK    4  A    between atoms: C_4  and  C_5
REMARK    5  A    between atoms: C_9  and  C_10
REMARK    6  A    between atoms: C_13  and  O_14
REMARK    7  A    between atoms: O_14  and  C_15
REMARK    8  A    between atoms: C_18  and  C_19
REMARK    9  A    between atoms: C_21  and  C_22
REMARK   10  A    between atoms: C_22  and  C_23
REMARK   11  A    between atoms: C_23  and  C_24
REMARK                            x       y       z     vdW  Elec       q    Type
REMARK                         _______ _______ _______ _____ _____    ______ ____
ROOT
ATOM      1  C   UNL     1       4.015   5.807  17.582  0.00  0.00    +0.000 A 
ATOM      2  N   UNL     1       3.556   7.061  17.373  0.00  0.00    +0.000 NA
ATOM      3  C   UNL     1       2.806   7.679  18.298  0.00  0.00    +0.000 A 
ATOM      4  N   UNL     1       2.473   8.973  17.910  0.00  0.00    +0.000 N 
ATOM      5  C   UNL     1       2.381   7.080  19.495  0.00  0.00    +0.000 A 
ATOM      6  C   UNL     1       2.808   5.734  19.662  0.00  0.00    +0.000 A 
ATOM      7  C   UNL     1       3.676   5.089  18.727  0.00  0.00    +0.000 A 
ATOM      8  H   UNL     1       2.952   9.151  17.030  0.00  0.00    +0.000 HD
ATOM      9  H   UNL     1       2.706   9.657  18.621  0.00  0.00    +0.000 HD
ENDROOT
BRANCH   5  10
ATOM     10  C   UNL     1       1.571   7.832  20.513  0.00  0.00    +0.000 A 
ATOM     11  C   UNL     1       2.162   8.729  21.424  0.00  0.00    +0.000 A 
ATOM     12  C   UNL     1       1.426   9.355  22.438  0.00  0.00    +0.000 A 
ATOM     13  C   UNL     1       0.049   9.189  22.514  0.00  0.00    +0.000 A 
ATOM     14  C   UNL     1      -0.576   8.341  21.609  0.00  0.00    +0.000 A 
ATOM     15  C   UNL     1       0.182   7.645  20.655  0.00  0.00    +0.000 A 
BRANCH  13  16
ATOM     16  O   UNL     1      -0.574   9.829  23.547  0.00  0.00    +0.000 OA
ATOM     17  C   UNL     1      -1.318  10.987  23.181  0.00  0.00    +0.000 C 
ENDBRANCH  13  16
ENDBRANCH   5  10
BRANCH   6  18
ATOM     18  C   UNL     1       2.349   4.959  20.787  0.00  0.00    +0.000 C 
ATOM     19  N   UNL     1       1.977   4.294  21.667  0.00  0.00    +0.000 NA
ENDBRANCH   6  18
BRANCH   1  20
ATOM     20  C   UNL     1       4.864   5.292  16.442  0.00  0.00    +0.000 C 
BRANCH  20  21
ATOM     21  C   UNL     1       6.281   5.884  16.476  0.00  0.00    +0.000 C 
BRANCH  21  23
ATOM     22  C   UNL     1       7.638   5.665  18.583  0.00  0.00    +0.000 C 
ATOM     23  C   UNL     1       7.238   5.002  17.274  0.00  0.00    +0.000 C 
ENDBRANCH  21  23
ENDBRANCH  20  21
ENDBRANCH   1  20
BRANCH   7  24
ATOM     24  C   UNL     1       4.217   3.697  19.005  0.00  0.00    +0.000 C 
BRANCH  24  25
ATOM     25  C   UNL     1       3.709   2.595  18.070  0.00  0.00    +0.000 C 
ATOM     26  C   UNL     1       2.194   2.506  17.990  0.00  0.00    +0.000 C 
ENDBRANCH  24  25
ENDBRANCH   7  24
TORSDOF 8
ENDMDL
MODEL 8
REMARK VINA RESULT:      -5.9      3.258      7.289
REMARK  Name = 
REMARK  11 active torsions:
REMARK  status: ('A' for Active; 'I' for Inactive)
REMARK    1  A    between atoms: C_1  and  C_2
REMARK    2  A    between atoms: C_2  and  C_3
REMARK    3  A    between atoms: C_3  and  C_4
REMARK    4  A    between atoms: C_4  and  C_5
REMARK    5  A    between atoms: C_9  and  C_10
REMARK    6  A    between atoms: C_13  and  O_14
REMARK    7  A    between atoms: O_14  and  C_15
REMARK    8  A    between atoms: C_18  and  C_19
REMARK    9  A    between atoms: C_21  and  C_22
REMARK   10  A    between atoms: C_22  and  C_23
REMARK   11  A    between atoms: C_23  and  C_24
REMARK                            x       y       z     vdW  Elec       q    Type
REMARK                         _______ _______ _______ _____ _____    ______ ____
ROOT
ATOM      1  C   UNL     1       3.907   6.581  17.343  0.00  0.00    +0.000 A 
ATOM      2  N   UNL     1       3.525   7.871  17.224  0.00  0.00    +0.000 NA
ATOM      3  C   UNL     1       2.737   8.440  18.150  0.00  0.00    +0.000 A 
ATOM      4  N   UNL     1       2.496   9.781  17.866  0.00  0.00    +0.000 N 
ATOM      5  C   UNL     1       2.195   7.757  19.250  0.00  0.00    +0.000 A 
ATOM      6  C   UNL     1       2.544   6.380  19.315  0.00  0.00    +0.000 A 
ATOM      7  C   UNL     1       3.449   5.779  18.386  0.00  0.00    +0.000 A 
ATOM      8  H   UNL     1       3.048  10.014  17.043  0.00  0.00    +0.000 HD
ATOM      9  H   UNL     1       2.706  10.382  18.654  0.00  0.00    +0.000 HD
ENDROOT
BRANCH   5  10
ATOM     10  C   UNL     1       1.347   8.454  20.276  0.00  0.00    +0.000 A 
ATOM     11  C   UNL     1       0.200   9.190  19.922  0.00  0.00    +0.000 A 
ATOM     12  C   UNL     1      -0.536   9.922  20.862  0.00  0.00    +0.000 A 
ATOM     13  C   UNL     1      -0.212   9.862  22.212  0.00  0.00    +0.000 A 
ATOM     14  C   UNL     1       0.891   9.116  22.604  0.00  0.00    +0.000 A 
ATOM     15  C   UNL     1       1.678   8.460  21.645  0.00  0.00    +0.000 A 
BRANCH  13  16
ATOM     16  O   UNL     1      -0.980  10.624  23.045  0.00  0.00    +0.000 OA
ATOM     17  C   UNL     1      -1.344  11.902  22.535  0.00  0.00    +0.000 C 
ENDBRANCH  13  16
ENDBRANCH   5  10
BRANCH   6  18
ATOM     18  C   UNL     1       1.965   5.530  20.324  0.00  0.00    +0.000 C 
ATOM     19  N   UNL     1       1.472   4.821  21.106  0.00  0.00    +0.000 NA
ENDBRANCH   6  18
BRANCH   1  20
ATOM     20  C   UNL     1       4.814   6.129  16.222  0.00  0.00    +0.000 C 
BRANCH  20  21
ATOM     21  C   UNL     1       6.288   6.108  16.656  0.00  0.00    +0.000 C 
BRANCH  21  23
ATOM     22  C   UNL     1       6.085   3.908  15.453  0.00  0.00    +0.000 C 
ATOM     23  C   UNL     1       6.926   4.744  16.404  0.00  0.00    +0.000 C 
ENDBRANCH  21  23
ENDBRANCH  20  21
ENDBRANCH   1  20
BRANCH   7  24
ATOM     24  C   UNL     1       3.901   4.340  18.566  0.00  0.00    +0.000 C 
BRANCH  24  25
ATOM     25  C   UNL     1       3.148   3.304  17.724  0.00  0.00    +0.000 C 
ATOM     26  C   UNL     1       3.514   1.865  18.046  0.00  0.00    +0.000 C 
ENDBRANCH  24  25
ENDBRANCH   7  24
TORSDOF 8
ENDMDL
MODEL 9
REMARK VINA RESULT:      -5.9      6.460     10.849
REMARK  Name = 
REMARK  11 active torsions:
REMARK  status: ('A' for Active; 'I' for Inactive)
REMARK    1  A    between atoms: C_1  and  C_2
REMARK    2  A    between atoms: C_2  and  C_3
REMARK    3  A    between atoms: C_3  and  C_4
REMARK    4  A    between atoms: C_4  and  C_5
REMARK    5  A    between atoms: C_9  and  C_10
REMARK    6  A    between atoms: C_13  and  O_14
REMARK    7  A    between atoms: O_14  and  C_15
REMARK    8  A    between atoms: C_18  and  C_19
REMARK    9  A    between atoms: C_21  and  C_22
REMARK   10  A    between atoms: C_22  and  C_23
REMARK   11  A    between atoms: C_23  and  C_24
REMARK                            x       y       z     vdW  Elec       q    Type
REMARK                         _______ _______ _______ _____ _____    ______ ____
ROOT
ATOM      1  C   UNL     1      -1.704  10.811  18.656  0.00  0.00    +0.000 A 
ATOM      2  N   UNL     1      -2.649  11.767  18.792  0.00  0.00    +0.000 NA
ATOM      3  C   UNL     1      -2.768  12.454  19.938  0.00  0.00    +0.000 A 
ATOM      4  N   UNL     1      -3.768  13.418  19.858  0.00  0.00    +0.000 N 
ATOM      5  C   UNL     1      -2.001  12.207  21.088  0.00  0.00    +0.000 A 
ATOM      6  C   UNL     1      -1.066  11.144  20.952  0.00  0.00    +0.000 A 
ATOM      7  C   UNL     1      -0.868  10.458  19.713  0.00  0.00    +0.000 A 
ATOM      8  H   UNL     1      -4.119  13.403  18.903  0.00  0.00    +0.000 HD
ATOM      9  H   UNL     1      -3.437  14.336  20.132  0.00  0.00    +0.000 HD
ENDROOT
BRANCH   5  10
ATOM     10  C   UNL     1      -2.153  13.032  22.334  0.00  0.00    +0.000 A 
ATOM     11  C   UNL     1      -1.228  14.034  22.684  0.00  0.00    +0.000 A 
ATOM     12  C   UNL     1      -1.310  14.737  23.893  0.00  0.00    +0.000 A 
ATOM     13  C   UNL     1      -2.383  14.536  24.753  0.00  0.00    +0.000 A 
ATOM     14  C   UNL     1      -3.336  13.582  24.423  0.00  0.00    +0.000 A 
ATOM     15  C   UNL     1      -3.196  12.816  23.255  0.00  0.00    +0.000 A 
BRANCH  13  16
ATOM     16  O   UNL     1      -2.364  15.257  25.912  0.00  0.00    +0.000 OA
ATOM     17  C   UNL     1      -1.907  16.599  25.782  0.00  0.00    +0.000 C 
ENDBRANCH  13  16
ENDBRANCH   5  10
BRANCH   6  18
ATOM     18  C   UNL     1      -0.295  10.704  22.086  0.00  0.00    +0.000 C 
ATOM     19  N   UNL     1       0.307  10.380  23.029  0.00  0.00    +0.000 NA
ENDBRANCH   6  18
BRANCH   1  20
ATOM     20  C   UNL     1      -1.706  10.169  17.287  0.00  0.00    +0.000 C 
BRANCH  20  21
ATOM     21  C   UNL     1      -3.133   9.963  16.757  0.00  0.00    +0.000 C 
BRANCH  21  23
ATOM     22  C   UNL     1      -3.041  10.006  14.244  0.00  0.00    +0.000 C 
ATOM     23  C   UNL     1      -3.388  10.790  15.500  0.00  0.00    +0.000 C 
ENDBRANCH  21  23
ENDBRANCH  20  21
ENDBRANCH   1  20
BRANCH   7  24
ATOM     24  C   UNL     1       0.232   9.419  19.571  0.00  0.00    +0.000 C 
BRANCH  24  25
ATOM     25  C   UNL     1       1.484   9.886  18.822  0.00  0.00    +0.000 C 
ATOM     26  C   UNL     1       2.019   8.872  17.825  0.00  0.00    +0.000 C 
ENDBRANCH  24  25
ENDBRANCH   7  24
TORSDOF 8
ENDMDL
