MODEL 1
REMARK VINA RESULT:      -8.5      0.000      0.000
REMARK  Name = 
REMARK  2 active torsions:
REMARK  status: ('A' for Active; 'I' for Inactive)
REMARK    1  A    between atoms: N_11  and  C_12
REMARK    2  A    between atoms: C_15  and  N_16
REMARK                            x       y       z     vdW  Elec       q    Type
REMARK                         _______ _______ _______ _____ _____    ______ ____
ROOT
ATOM      1  C   UNL     1       2.884   6.913  17.482  0.00  0.00    +0.000 C 
ATOM      2  C   UNL     1       4.355   7.315  17.293  0.00  0.00    +0.000 C 
ATOM      3  C   UNL     1       5.334   6.546  18.167  0.00  0.00    +0.000 C 
ATOM      4  C   UNL     1       5.116   5.020  18.208  0.00  0.00    +0.000 C 
ATOM      5  C   UNL     1       3.642   4.636  18.436  0.00  0.00    +0.000 C 
ATOM      6  C   UNL     1       2.624   5.405  17.597  0.00  0.00    +0.000 C 
ENDROOT
BRANCH   1  17
ATOM      7  O   UNL     1       2.355   6.092  20.375  0.00  0.00    +0.000 OA
ATOM      8  C   UNL     1       2.095   7.164  19.865  0.00  0.00    +0.000 C 
ATOM      9  C   UNL     1       1.469   8.224  20.627  0.00  0.00    +0.000 A 
ATOM     10  C   UNL     1       1.127   8.242  21.961  0.00  0.00    +0.000 A 
ATOM     11  C   UNL     1       0.527   9.405  22.435  0.00  0.00    +0.000 A 
ATOM     12  C   UNL     1       0.292  10.500  21.565  0.00  0.00    +0.000 A 
ATOM     13  C   UNL     1       0.659  10.450  20.219  0.00  0.00    +0.000 A 
ATOM     14  C   UNL     1       1.257   9.288  19.777  0.00  0.00    +0.000 A 
ATOM     15  C   UNL     1       1.765   8.908  18.465  0.00  0.00    +0.000 C 
ATOM     16  O   UNL     1       1.716   9.622  17.481  0.00  0.00    +0.000 OA
ATOM     17  N   UNL     1       2.273   7.638  18.594  0.00  0.00    +0.000 N 
ENDBRANCH   1  17
BRANCH   4  18
ATOM     18  N   UNL     1       5.728   4.287  17.087  0.00  0.00    +0.000 NA
ATOM     19  C   UNL     1       7.155   4.582  16.899  0.00  0.00    +0.000 C 
ATOM     20  C   UNL     1       7.456   5.475  15.693  0.00  0.00    +0.000 C 
ATOM     21  C   UNL     1       6.941   4.786  14.464  0.00  0.00    +0.000 A 
ATOM     22  C   UNL     1       7.626   4.832  13.251  0.00  0.00    +0.000 A 
ATOM     23  C   UNL     1       7.110   4.163  12.144  0.00  0.00    +0.000 A 
ATOM     24  C   UNL     1       5.901   3.472  12.240  0.00  0.00    +0.000 A 
ATOM     25  C   UNL     1       5.202   3.444  13.444  0.00  0.00    +0.000 A 
ATOM     26  C   UNL     1       5.727   4.088  14.568  0.00  0.00    +0.000 A 
ATOM     27  C   UNL     1       4.943   4.153  15.856  0.00  0.00    +0.000 C 
ENDBRANCH   4  18
TORSDOF 2
ENDMDL
MODEL 2
REMARK VINA RESULT:      -7.9      0.073      1.687
REMARK  Name = 
REMARK  2 active torsions:
REMARK  status: ('A' for Active; 'I' for Inactive)
REMARK    1  A    between atoms: N_11  and  C_12
REMARK    2  A    between atoms: C_15  and  N_16
REMARK                            x       y       z     vdW  Elec       q    Type
REMARK                         _______ _______ _______ _____ _____    ______ ____
ROOT
ATOM      1  C   UNL     1       2.827   6.890  17.452  0.00  0.00    +0.000 C 
ATOM      2  C   UNL     1       4.277   7.325  17.190  0.00  0.00    +0.000 C 
ATOM      3  C   UNL     1       5.310   6.626  18.061  0.00  0.00    +0.000 C 
ATOM      4  C   UNL     1       5.140   5.099  18.181  0.00  0.00    +0.000 C 
ATOM      5  C   UNL     1       3.687   4.683  18.481  0.00  0.00    +0.000 C 
ATOM      6  C   UNL     1       2.617   5.383  17.646  0.00  0.00    +0.000 C 
ENDROOT
BRANCH   1  17
ATOM      7  O   UNL     1       1.745   9.742  17.576  0.00  0.00    +0.000 OA
ATOM      8  C   UNL     1       1.771   8.935  18.484  0.00  0.00    +0.000 C 
ATOM      9  C   UNL     1       1.259   9.268  19.797  0.00  0.00    +0.000 A 
ATOM     10  C   UNL     1       0.655  10.431  20.219  0.00  0.00    +0.000 A 
ATOM     11  C   UNL     1       0.259  10.480  21.553  0.00  0.00    +0.000 A 
ATOM     12  C   UNL     1       0.482   9.373  22.411  0.00  0.00    +0.000 A 
ATOM     13  C   UNL     1       1.091   8.205  21.947  0.00  0.00    +0.000 A 
ATOM     14  C   UNL     1       1.467   8.182  20.620  0.00  0.00    +0.000 A 
ATOM     15  C   UNL     1       2.104   7.142  19.821  0.00  0.00    +0.000 C 
ATOM     16  O   UNL     1       2.436   6.055  20.255  0.00  0.00    +0.000 OA
ATOM     17  N   UNL     1       2.234   7.650  18.551  0.00  0.00    +0.000 N 
ENDBRANCH   1  17
BRANCH   4  18
ATOM     18  N   UNL     1       5.733   4.331  17.073  0.00  0.00    +0.000 NA
ATOM     19  C   UNL     1       7.167   4.588  16.880  0.00  0.00    +0.000 C 
ATOM     20  C   UNL     1       7.489   5.452  15.659  0.00  0.00    +0.000 C 
ATOM     21  C   UNL     1       6.957   4.754  14.442  0.00  0.00    +0.000 A 
ATOM     22  C   UNL     1       7.643   4.762  13.229  0.00  0.00    +0.000 A 
ATOM     23  C   UNL     1       7.111   4.087  12.133  0.00  0.00    +0.000 A 
ATOM     24  C   UNL     1       5.886   3.428  12.242  0.00  0.00    +0.000 A 
ATOM     25  C   UNL     1       5.185   3.437  13.446  0.00  0.00    +0.000 A 
ATOM     26  C   UNL     1       5.726   4.088  14.558  0.00  0.00    +0.000 A 
ATOM     27  C   UNL     1       4.944   4.195  15.845  0.00  0.00    +0.000 C 
ENDBRANCH   4  18
TORSDOF 2
ENDMDL
MODEL 3
REMARK VINA RESULT:      -7.8      3.657      5.580
REMARK  Name = 
REMARK  2 active torsions:
REMARK  status: ('A' for Active; 'I' for Inactive)
REMARK    1  A    between atoms: N_11  and  C_12
REMARK    2  A    between atoms: C_15  and  N_16
REMARK                            x       y       z     vdW  Elec       q    Type
REMARK                         _______ _______ _______ _____ _____    ______ ____
ROOT
ATOM      1  C   UNL     1      -0.227  10.074  19.298  0.00  0.00    +0.000 C 
ATOM      2  C   UNL     1       0.558   9.535  18.093  0.00  0.00    +0.000 C 
ATOM      3  C   UNL     1       1.939   8.995  18.433  0.00  0.00    +0.000 C 
ATOM      4  C   UNL     1       1.995   8.069  19.664  0.00  0.00    +0.000 C 
ATOM      5  C   UNL     1       1.234   8.642  20.875  0.00  0.00    +0.000 C 
ATOM      6  C   UNL     1      -0.146   9.220  20.571  0.00  0.00    +0.000 C 
ENDROOT
BRANCH   1  17
ATOM      7  O   UNL     1       1.463  11.329  21.509  0.00  0.00    +0.000 OA
ATOM      8  C   UNL     1       0.899  11.914  20.606  0.00  0.00    +0.000 C 
ATOM      9  C   UNL     1       0.977  13.354  20.482  0.00  0.00    +0.000 A 
ATOM     10  C   UNL     1       1.680  14.251  21.256  0.00  0.00    +0.000 A 
ATOM     11  C   UNL     1       1.571  15.594  20.908  0.00  0.00    +0.000 A 
ATOM     12  C   UNL     1       0.768  15.990  19.809  0.00  0.00    +0.000 A 
ATOM     13  C   UNL     1       0.074  15.053  19.040  0.00  0.00    +0.000 A 
ATOM     14  C   UNL     1       0.206  13.729  19.403  0.00  0.00    +0.000 A 
ATOM     15  C   UNL     1      -0.358  12.514  18.825  0.00  0.00    +0.000 C 
ATOM     16  O   UNL     1      -1.103  12.499  17.863  0.00  0.00    +0.000 OA
ATOM     17  N   UNL     1       0.115  11.468  19.577  0.00  0.00    +0.000 N 
ENDBRANCH   1  17
BRANCH   4  18
ATOM     18  N   UNL     1       1.646   6.665  19.387  0.00  0.00    +0.000 NA
ATOM     19  C   UNL     1       1.433   5.861  20.599  0.00  0.00    +0.000 C 
ATOM     20  C   UNL     1       2.572   4.888  20.912  0.00  0.00    +0.000 C 
ATOM     21  C   UNL     1       2.728   3.963  19.742  0.00  0.00    +0.000 A 
ATOM     22  C   UNL     1       3.030   2.612  19.906  0.00  0.00    +0.000 A 
ATOM     23  C   UNL     1       3.151   1.793  18.785  0.00  0.00    +0.000 A 
ATOM     24  C   UNL     1       2.997   2.328  17.505  0.00  0.00    +0.000 A 
ATOM     25  C   UNL     1       2.718   3.682  17.336  0.00  0.00    +0.000 A 
ATOM     26  C   UNL     1       2.566   4.504  18.456  0.00  0.00    +0.000 A 
ATOM     27  C   UNL     1       2.360   5.991  18.299  0.00  0.00    +0.000 C 
ENDBRANCH   4  18
TORSDOF 2
ENDMDL
MODEL 4
REMARK VINA RESULT:      -7.6      3.176     10.224
REMARK  Name = 
REMARK  2 active torsions:
REMARK  status: ('A' for Active; 'I' for Inactive)
REMARK    1  A    between atoms: N_11  and  C_12
REMARK    2  A    between atoms: C_15  and  N_16
REMARK                            x       y       z     vdW  Elec       q    Type
REMARK                         _______ _______ _______ _____ _____    ______ ____
ROOT
ATOM      1  C   UNL     1       0.326   9.271  20.595  0.00  0.00    +0.000 C 
ATOM      2  C   UNL     1       0.997  10.387  21.410  0.00  0.00    +0.000 C 
ATOM      3  C   UNL     1       1.201  11.687  20.646  0.00  0.00    +0.000 C 
ATOM      4  C   UNL     1      -0.019  12.169  19.835  0.00  0.00    +0.000 C 
ATOM      5  C   UNL     1      -0.657  11.045  18.996  0.00  0.00    +0.000 C 
ATOM      6  C   UNL     1      -0.853   9.715  19.718  0.00  0.00    +0.000 C 
ENDROOT
BRANCH   1  17
ATOM      7  O   UNL     1       1.735   9.917  17.965  0.00  0.00    +0.000 OA
ATOM      8  C   UNL     1       1.882   8.918  18.641  0.00  0.00    +0.000 C 
ATOM      9  C   UNL     1       2.796   7.869  18.240  0.00  0.00    +0.000 A 
ATOM     10  C   UNL     1       3.635   7.826  17.149  0.00  0.00    +0.000 A 
ATOM     11  C   UNL     1       4.411   6.680  17.005  0.00  0.00    +0.000 A 
ATOM     12  C   UNL     1       4.320   5.625  17.948  0.00  0.00    +0.000 A 
ATOM     13  C   UNL     1       3.464   5.706  19.048  0.00  0.00    +0.000 A 
ATOM     14  C   UNL     1       2.711   6.855  19.170  0.00  0.00    +0.000 A 
ATOM     15  C   UNL     1       1.744   7.268  20.180  0.00  0.00    +0.000 C 
ATOM     16  O   UNL     1       1.426   6.588  21.137  0.00  0.00    +0.000 OA
ATOM     17  N   UNL     1       1.307   8.517  19.815  0.00  0.00    +0.000 N 
ENDBRANCH   1  17
BRANCH   4  18
ATOM     18  N   UNL     1      -1.011  12.925  20.619  0.00  0.00    +0.000 NA
ATOM     19  C   UNL     1      -0.632  13.110  22.027  0.00  0.00    +0.000 C 
ATOM     20  C   UNL     1      -1.415  12.233  23.006  0.00  0.00    +0.000 C 
ATOM     21  C   UNL     1      -2.873  12.554  22.853  0.00  0.00    +0.000 A 
ATOM     22  C   UNL     1      -3.736  12.597  23.946  0.00  0.00    +0.000 A 
ATOM     23  C   UNL     1      -5.079  12.914  23.751  0.00  0.00    +0.000 A 
ATOM     24  C   UNL     1      -5.562  13.161  22.466  0.00  0.00    +0.000 A 
ATOM     25  C   UNL     1      -4.707  13.096  21.368  0.00  0.00    +0.000 A 
ATOM     26  C   UNL     1      -3.353  12.807  21.558  0.00  0.00    +0.000 A 
ATOM     27  C   UNL     1      -2.427  12.636  20.378  0.00  0.00    +0.000 C 
ENDBRANCH   4  18
TORSDOF 2
ENDMDL
MODEL 5
REMARK VINA RESULT:      -7.5      3.747      5.711
REMARK  Name = 
REMARK  2 active torsions:
REMARK  status: ('A' for Active; 'I' for Inactive)
REMARK    1  A    between atoms: N_11  and  C_12
REMARK    2  A    between atoms: C_15  and  N_16
REMARK                            x       y       z     vdW  Elec       q    Type
REMARK                         _______ _______ _______ _____ _____    ______ ____
ROOT
ATOM      1  C   UNL     1      -0.143  10.138  18.853  0.00  0.00    +0.000 C 
ATOM      2  C   UNL     1       0.473   9.428  17.638  0.00  0.00    +0.000 C 
ATOM      3  C   UNL     1       1.886   8.909  17.864  0.00  0.00    +0.000 C 
ATOM      4  C   UNL     1       2.101   8.152  19.190  0.00  0.00    +0.000 C 
ATOM      5  C   UNL     1       1.509   8.896  20.402  0.00  0.00    +0.000 C 
ATOM      6  C   UNL     1       0.103   9.458  20.207  0.00  0.00    +0.000 C 
ENDROOT
BRANCH   1  17
ATOM      7  O   UNL     1       2.509  11.527  18.257  0.00  0.00    +0.000 OA
ATOM      8  C   UNL     1       1.470  12.059  18.595  0.00  0.00    +0.000 C 
ATOM      9  C   UNL     1       1.383  13.495  18.760  0.00  0.00    +0.000 A 
ATOM     10  C   UNL     1       2.349  14.450  18.536  0.00  0.00    +0.000 A 
ATOM     11  C   UNL     1       1.988  15.772  18.782  0.00  0.00    +0.000 A 
ATOM     12  C   UNL     1       0.685  16.089  19.240  0.00  0.00    +0.000 A 
ATOM     13  C   UNL     1      -0.274  15.095  19.448  0.00  0.00    +0.000 A 
ATOM     14  C   UNL     1       0.108  13.795  19.191  0.00  0.00    +0.000 A 
ATOM     15  C   UNL     1      -0.627  12.540  19.289  0.00  0.00    +0.000 C 
ATOM     16  O   UNL     1      -1.783  12.454  19.659  0.00  0.00    +0.000 OA
ATOM     17  N   UNL     1       0.237  11.548  18.896  0.00  0.00    +0.000 N 
ENDBRANCH   1  17
BRANCH   4  18
ATOM     18  N   UNL     1       1.715   6.732  19.151  0.00  0.00    +0.000 NA
ATOM     19  C   UNL     1       1.712   6.086  20.471  0.00  0.00    +0.000 C 
ATOM     20  C   UNL     1       2.890   5.138  20.705  0.00  0.00    +0.000 C 
ATOM     21  C   UNL     1       2.849   4.074  19.649  0.00  0.00    +0.000 A 
ATOM     22  C   UNL     1       3.177   2.748  19.924  0.00  0.00    +0.000 A 
ATOM     23  C   UNL     1       3.109   1.797  18.909  0.00  0.00    +0.000 A 
ATOM     24  C   UNL     1       2.739   2.173  17.618  0.00  0.00    +0.000 A 
ATOM     25  C   UNL     1       2.432   3.502  17.332  0.00  0.00    +0.000 A 
ATOM     26  C   UNL     1       2.470   4.457  18.352  0.00  0.00    +0.000 A 
ATOM     27  C   UNL     1       2.236   5.918  18.049  0.00  0.00    +0.000 C 
ENDBRANCH   4  18
TORSDOF 2
ENDMDL
MODEL 6
REMARK VINA RESULT:      -7.4      4.627      9.648
REMARK  Name = 
REMARK  2 active torsions:
REMARK  status: ('A' for Active; 'I' for Inactive)
REMARK    1  A    between atoms: N_11  and  C_12
REMARK    2  A    between atoms: C_15  and  N_16
REMARK                            x       y       z     vdW  Elec       q    Type
REMARK                         _______ _______ _______ _____ _____    ______ ____
ROOT
ATOM      1  C   UNL     1       0.654  11.486  19.070  0.00  0.00    +0.000 C 
ATOM      2  C   UNL     1       0.448  12.174  20.428  0.00  0.00    +0.000 C 
ATOM      3  C   UNL     1       1.709  12.789  21.018  0.00  0.00    +0.000 C 
ATOM      4  C   UNL     1       2.556  13.618  20.033  0.00  0.00    +0.000 C 
ATOM      5  C   UNL     1       2.783  12.896  18.691  0.00  0.00    +0.000 C 
ATOM      6  C   UNL     1       1.547  12.241  18.078  0.00  0.00    +0.000 C 
ENDROOT
BRANCH   1  17
ATOM      7  O   UNL     1       0.374   9.544  21.409  0.00  0.00    +0.000 OA
ATOM      8  C   UNL     1       0.908   9.322  20.341  0.00  0.00    +0.000 C 
ATOM      9  C   UNL     1       1.504   8.033  20.055  0.00  0.00    +0.000 A 
ATOM     10  C   UNL     1       1.532   6.902  20.840  0.00  0.00    +0.000 A 
ATOM     11  C   UNL     1       2.183   5.792  20.309  0.00  0.00    +0.000 A 
ATOM     12  C   UNL     1       2.780   5.853  19.025  0.00  0.00    +0.000 A 
ATOM     13  C   UNL     1       2.726   7.015  18.253  0.00  0.00    +0.000 A 
ATOM     14  C   UNL     1       2.069   8.097  18.800  0.00  0.00    +0.000 A 
ATOM     15  C   UNL     1       1.819   9.435  18.275  0.00  0.00    +0.000 C 
ATOM     16  O   UNL     1       2.203   9.824  17.188  0.00  0.00    +0.000 OA
ATOM     17  N   UNL     1       1.102  10.104  19.236  0.00  0.00    +0.000 N 
ENDBRANCH   1  17
BRANCH   4  18
ATOM     18  N   UNL     1       2.104  15.008  19.860  0.00  0.00    +0.000 NA
ATOM     19  C   UNL     1       0.766  15.265  20.411  0.00  0.00    +0.000 C 
ATOM     20  C   UNL     1      -0.329  15.411  19.352  0.00  0.00    +0.000 C 
ATOM     21  C   UNL     1       0.046  16.549  18.449  0.00  0.00    +0.000 A 
ATOM     22  C   UNL     1      -0.905  17.431  17.941  0.00  0.00    +0.000 A 
ATOM     23  C   UNL     1      -0.502  18.480  17.117  0.00  0.00    +0.000 A 
ATOM     24  C   UNL     1       0.845  18.631  16.782  0.00  0.00    +0.000 A 
ATOM     25  C   UNL     1       1.796  17.737  17.269  0.00  0.00    +0.000 A 
ATOM     26  C   UNL     1       1.403  16.700  18.119  0.00  0.00    +0.000 A 
ATOM     27  C   UNL     1       2.397  15.663  18.582  0.00  0.00    +0.000 C 
ENDBRANCH   4  18
TORSDOF 2
ENDMDL
MODEL 7
REMARK VINA RESULT:      -7.2      2.962      9.863
REMARK  Name = 
REMARK  2 active torsions:
REMARK  status: ('A' for Active; 'I' for Inactive)
REMARK    1  A    between atoms: N_11  and  C_12
REMARK    2  A    between atoms: C_15  and  N_16
REMARK                            x       y       z     vdW  Elec       q    Type
REMARK                         _______ _______ _______ _____ _____    ______ ____
ROOT
ATOM      1  C   UNL     1       0.300   9.057  19.456  0.00  0.00    +0.000 C 
ATOM      2  C   UNL     1       0.207   9.337  20.963  0.00  0.00    +0.000 C 
ATOM      3  C   UNL     1       1.034  10.525  21.433  0.00  0.00    +0.000 C 
ATOM      4  C   UNL     1       0.912  11.793  20.565  0.00  0.00    +0.000 C 
ATOM      5  C   UNL     1       1.044  11.498  19.059  0.00  0.00    +0.000 C 
ATOM      6  C   UNL     1       0.250  10.296  18.552  0.00  0.00    +0.000 C 
ENDROOT
BRANCH   1  17
ATOM      7  O   UNL     1       2.209   9.078  17.074  0.00  0.00    +0.000 OA
ATOM      8  C   UNL     1       2.251   8.331  18.032  0.00  0.00    +0.000 C 
ATOM      9  C   UNL     1       3.275   7.314  18.145  0.00  0.00    +0.000 A 
ATOM     10  C   UNL     1       4.329   7.052  17.298  0.00  0.00    +0.000 A 
ATOM     11  C   UNL     1       5.167   5.999  17.653  0.00  0.00    +0.000 A 
ATOM     12  C   UNL     1       4.923   5.250  18.832  0.00  0.00    +0.000 A 
ATOM     13  C   UNL     1       3.848   5.549  19.672  0.00  0.00    +0.000 A 
ATOM     14  C   UNL     1       3.038   6.600  19.300  0.00  0.00    +0.000 A 
ATOM     15  C   UNL     1       1.860   7.178  19.937  0.00  0.00    +0.000 C 
ATOM     16  O   UNL     1       1.374   6.766  20.973  0.00  0.00    +0.000 OA
ATOM     17  N   UNL     1       1.456   8.220  19.139  0.00  0.00    +0.000 N 
ENDBRANCH   1  17
BRANCH   4  18
ATOM     18  N   UNL     1      -0.255  12.635  20.879  0.00  0.00    +0.000 NA
ATOM     19  C   UNL     1      -0.366  12.981  22.303  0.00  0.00    +0.000 C 
ATOM     20  C   UNL     1      -1.469  12.224  23.046  0.00  0.00    +0.000 C 
ATOM     21  C   UNL     1      -2.775  12.526  22.374  0.00  0.00    +0.000 A 
ATOM     22  C   UNL     1      -3.954  12.696  23.098  0.00  0.00    +0.000 A 
ATOM     23  C   UNL     1      -5.138  12.989  22.425  0.00  0.00    +0.000 A 
ATOM     24  C   UNL     1      -5.149  13.087  21.033  0.00  0.00    +0.000 A 
ATOM     25  C   UNL     1      -3.978  12.894  20.304  0.00  0.00    +0.000 A 
ATOM     26  C   UNL     1      -2.780  12.629  20.974  0.00  0.00    +0.000 A 
ATOM     27  C   UNL     1      -1.518  12.322  20.204  0.00  0.00    +0.000 C 
ENDBRANCH   4  18
TORSDOF 2
ENDMDL
MODEL 8
REMARK VINA RESULT:      -7.2      8.430     11.958
REMARK  Name = 
REMARK  2 active torsions:
REMARK  status: ('A' for Active; 'I' for Inactive)
REMARK    1  A    between atoms: N_11  and  C_12
REMARK    2  A    between atoms: C_15  and  N_16
REMARK                            x       y       z     vdW  Elec       q    Type
REMARK                         _______ _______ _______ _____ _____    ______ ____
ROOT
ATOM      1  C   UNL     1       7.641  15.891  19.132  0.00  0.00    +0.000 C 
ATOM      2  C   UNL     1       6.805  15.923  17.844  0.00  0.00    +0.000 C 
ATOM      3  C   UNL     1       5.623  14.965  17.838  0.00  0.00    +0.000 C 
ATOM      4  C   UNL     1       4.771  14.968  19.122  0.00  0.00    +0.000 C 
ATOM      5  C   UNL     1       5.624  14.899  20.403  0.00  0.00    +0.000 C 
ATOM      6  C   UNL     1       6.837  15.826  20.437  0.00  0.00    +0.000 C 
ENDROOT
BRANCH   1  17
ATOM      7  O   UNL     1       7.750  13.272  17.568  0.00  0.00    +0.000 OA
ATOM      8  C   UNL     1       8.595  13.699  18.329  0.00  0.00    +0.000 C 
ATOM      9  C   UNL     1       9.814  12.960  18.585  0.00  0.00    +0.000 A 
ATOM     10  C   UNL     1      10.236  11.772  18.032  0.00  0.00    +0.000 A 
ATOM     11  C   UNL     1      11.463  11.282  18.469  0.00  0.00    +0.000 A 
ATOM     12  C   UNL     1      12.217  11.990  19.438  0.00  0.00    +0.000 A 
ATOM     13  C   UNL     1      11.762  13.197  19.973  0.00  0.00    +0.000 A 
ATOM     14  C   UNL     1      10.547  13.663  19.517  0.00  0.00    +0.000 A 
ATOM     15  C   UNL     1       9.795  14.868  19.847  0.00  0.00    +0.000 C 
ATOM     16  O   UNL     1      10.161  15.701  20.655  0.00  0.00    +0.000 OA
ATOM     17  N   UNL     1       8.653  14.837  19.085  0.00  0.00    +0.000 N 
ENDBRANCH   1  17
BRANCH   4  18
ATOM     18  N   UNL     1       3.753  16.032  19.175  0.00  0.00    +0.000 NA
ATOM     19  C   UNL     1       2.713  15.801  20.187  0.00  0.00    +0.000 C 
ATOM     20  C   UNL     1       1.364  15.368  19.609  0.00  0.00    +0.000 C 
ATOM     21  C   UNL     1       0.894  16.440  18.670  0.00  0.00    +0.000 A 
ATOM     22  C   UNL     1      -0.449  16.801  18.577  0.00  0.00    +0.000 A 
ATOM     23  C   UNL     1      -0.830  17.813  17.699  0.00  0.00    +0.000 A 
ATOM     24  C   UNL     1       0.123  18.444  16.898  0.00  0.00    +0.000 A 
ATOM     25  C   UNL     1       1.463  18.070  16.972  0.00  0.00    +0.000 A 
ATOM     26  C   UNL     1       1.858  17.076  17.871  0.00  0.00    +0.000 A 
ATOM     27  C   UNL     1       3.285  16.585  17.901  0.00  0.00    +0.000 C 
ENDBRANCH   4  18
TORSDOF 2
ENDMDL
MODEL 9
REMARK VINA RESULT:      -7.2      3.650      5.797
REMARK  Name = 
REMARK  2 active torsions:
REMARK  status: ('A' for Active; 'I' for Inactive)
REMARK    1  A    between atoms: N_11  and  C_12
REMARK    2  A    between atoms: C_15  and  N_16
REMARK                            x       y       z     vdW  Elec       q    Type
REMARK                         _______ _______ _______ _____ _____    ______ ____
ROOT
ATOM      1  C   UNL     1      -0.295  10.098  19.356  0.00  0.00    +0.000 C 
ATOM      2  C   UNL     1       0.445   9.569  18.118  0.00  0.00    +0.000 C 
ATOM      3  C   UNL     1       1.849   9.052  18.398  0.00  0.00    +0.000 C 
ATOM      4  C   UNL     1       1.974   8.130  19.627  0.00  0.00    +0.000 C 
ATOM      5  C   UNL     1       1.257   8.693  20.869  0.00  0.00    +0.000 C 
ATOM      6  C   UNL     1      -0.144   9.248  20.625  0.00  0.00    +0.000 C 
ENDROOT
BRANCH   1  17
ATOM      7  O   UNL     1      -0.973  12.648  17.822  0.00  0.00    +0.000 OA
ATOM      8  C   UNL     1      -0.336  12.569  18.853  0.00  0.00    +0.000 C 
ATOM      9  C   UNL     1       0.198  13.751  19.497  0.00  0.00    +0.000 A 
ATOM     10  C   UNL     1       0.059  15.071  19.130  0.00  0.00    +0.000 A 
ATOM     11  C   UNL     1       0.689  16.012  19.939  0.00  0.00    +0.000 A 
ATOM     12  C   UNL     1       1.432  15.603  21.075  0.00  0.00    +0.000 A 
ATOM     13  C   UNL     1       1.547  14.255  21.422  0.00  0.00    +0.000 A 
ATOM     14  C   UNL     1       0.907  13.345  20.607  0.00  0.00    +0.000 A 
ATOM     15  C   UNL     1       0.811  11.892  20.680  0.00  0.00    +0.000 C 
ATOM     16  O   UNL     1       1.343  11.216  21.541  0.00  0.00    +0.000 OA
ATOM     17  N   UNL     1       0.036  11.497  19.617  0.00  0.00    +0.000 N 
ENDBRANCH   1  17
BRANCH   4  18
ATOM     18  N   UNL     1       1.637   6.720  19.368  0.00  0.00    +0.000 NA
ATOM     19  C   UNL     1       1.424   5.931  20.589  0.00  0.00    +0.000 C 
ATOM     20  C   UNL     1       2.568   4.971  20.921  0.00  0.00    +0.000 C 
ATOM     21  C   UNL     1       2.737   4.031  19.764  0.00  0.00    +0.000 A 
ATOM     22  C   UNL     1       3.048   2.685  19.948  0.00  0.00    +0.000 A 
ATOM     23  C   UNL     1       3.180   1.852  18.839  0.00  0.00    +0.000 A 
ATOM     24  C   UNL     1       3.027   2.367  17.551  0.00  0.00    +0.000 A 
ATOM     25  C   UNL     1       2.740   3.717  17.363  0.00  0.00    +0.000 A 
ATOM     26  C   UNL     1       2.577   4.554  18.471  0.00  0.00    +0.000 A 
ATOM     27  C   UNL     1       2.361   6.037  18.292  0.00  0.00    +0.000 C 
ENDBRANCH   4  18
TORSDOF 2
ENDMDL
