MODEL 1
REMARK VINA RESULT:      -7.5      0.000      0.000
REMARK  Name = 
REMARK  5 active torsions:
REMARK  status: ('A' for Active; 'I' for Inactive)
REMARK    1  A    between atoms: O_1  and  N_2
REMARK    2  A    between atoms: C_3  and  C_4
REMARK    3  A    between atoms: C_9  and  O_10
REMARK    4  A    between atoms: O_10  and  C_11
REMARK    5  A    between atoms: N_18  and  C_19
REMARK                            x       y       z     vdW  Elec       q    Type
REMARK                         _______ _______ _______ _____ _____    ______ ____
ROOT
ATOM      1  N   UNL     1      -0.233  11.355  18.198  0.00  0.00    +0.000 NA
ATOM      2  C   UNL     1       0.853  11.054  18.848  0.00  0.00    +0.000 C 
ATOM      3  N   UNL     1       1.409   9.775  19.020  0.00  0.00    +0.000 N 
ATOM      4  C   UNL     1       1.711   8.940  17.825  0.00  0.00    +0.000 C 
ATOM      5  C   UNL     1       2.680   7.782  18.184  0.00  0.00    +0.000 C 
ATOM      6  N   UNL     1       2.221   7.013  19.359  0.00  0.00    +0.000 N 
ATOM      7  C   UNL     1       1.813   7.833  20.515  0.00  0.00    +0.000 C 
ATOM      8  C   UNL     1       0.812   8.927  20.079  0.00  0.00    +0.000 C 
ENDROOT
BRANCH   2   9
ATOM      9  C   UNL     1       1.611  12.208  19.463  0.00  0.00    +0.000 A 
ATOM     10  C   UNL     1       2.437  12.958  18.612  0.00  0.00    +0.000 A 
ATOM     11  C   UNL     1       3.086  14.097  19.084  0.00  0.00    +0.000 A 
ATOM     12  C   UNL     1       2.912  14.446  20.408  0.00  0.00    +0.000 A 
ATOM     13  N   UNL     1       2.147  13.743  21.267  0.00  0.00    +0.000 NA
ATOM     14  C   UNL     1       1.502  12.644  20.789  0.00  0.00    +0.000 A 
BRANCH  14  15
ATOM     15  O   UNL     1       0.640  12.129  21.718  0.00  0.00    +0.000 OA
BRANCH  15  16
ATOM     16  C   UNL     1      -0.466  12.950  22.147  0.00  0.00    +0.000 C 
ATOM     17  C   UNL     1      -1.596  13.174  21.112  0.00  0.00    +0.000 C 
ATOM     18  C   UNL     1      -2.596  12.469  22.033  0.00  0.00    +0.000 C 
ATOM     19  C   UNL     1      -1.471  12.169  23.021  0.00  0.00    +0.000 C 
ENDBRANCH  15  16
ENDBRANCH  14  15
ENDBRANCH   2   9
BRANCH   6  20
ATOM     20  C   UNL     1       1.955   5.657  19.341  0.00  0.00    +0.000 A 
ATOM     21  C   UNL     1       1.561   4.983  20.513  0.00  0.00    +0.000 A 
ATOM     22  C   UNL     1       1.257   3.615  20.523  0.00  0.00    +0.000 A 
ATOM     23  C   UNL     1       1.340   2.880  19.349  0.00  0.00    +0.000 A 
ATOM     24  C   UNL     1       1.743   3.514  18.177  0.00  0.00    +0.000 A 
ATOM     25  C   UNL     1       2.053   4.882  18.180  0.00  0.00    +0.000 A 
ENDBRANCH   6  20
BRANCH   1  26
ATOM     26  O   UNL     1      -0.893  10.234  17.691  0.00  0.00    +0.000 OA
ATOM     27  H   UNL     1      -0.151   9.703  17.349  0.00  0.00    +0.000 HD
ENDBRANCH   1  26
TORSDOF 5
ENDMDL
MODEL 2
REMARK VINA RESULT:      -7.0      4.191      8.769
REMARK  Name = 
REMARK  5 active torsions:
REMARK  status: ('A' for Active; 'I' for Inactive)
REMARK    1  A    between atoms: O_1  and  N_2
REMARK    2  A    between atoms: C_3  and  C_4
REMARK    3  A    between atoms: C_9  and  O_10
REMARK    4  A    between atoms: O_10  and  C_11
REMARK    5  A    between atoms: N_18  and  C_19
REMARK                            x       y       z     vdW  Elec       q    Type
REMARK                         _______ _______ _______ _____ _____    ______ ____
ROOT
ATOM      1  N   UNL     1       2.975   4.229  17.571  0.00  0.00    +0.000 NA
ATOM      2  C   UNL     1       3.620   5.277  17.990  0.00  0.00    +0.000 C 
ATOM      3  N   UNL     1       3.065   6.485  18.447  0.00  0.00    +0.000 N 
ATOM      4  C   UNL     1       2.075   6.463  19.559  0.00  0.00    +0.000 C 
ATOM      5  C   UNL     1       1.908   7.872  20.185  0.00  0.00    +0.000 C 
ATOM      6  N   UNL     1       1.651   8.911  19.168  0.00  0.00    +0.000 N 
ATOM      7  C   UNL     1       2.557   8.876  18.004  0.00  0.00    +0.000 C 
ATOM      8  C   UNL     1       2.626   7.450  17.412  0.00  0.00    +0.000 C 
ENDROOT
BRANCH   2   9
ATOM      9  C   UNL     1       5.128   5.177  18.008  0.00  0.00    +0.000 A 
ATOM     10  C   UNL     1       5.786   5.640  19.160  0.00  0.00    +0.000 A 
ATOM     11  C   UNL     1       7.164   5.486  19.292  0.00  0.00    +0.000 A 
ATOM     12  C   UNL     1       7.858   4.895  18.257  0.00  0.00    +0.000 A 
ATOM     13  N   UNL     1       7.272   4.457  17.124  0.00  0.00    +0.000 NA
ATOM     14  C   UNL     1       5.922   4.594  17.015  0.00  0.00    +0.000 A 
BRANCH  14  15
ATOM     15  O   UNL     1       5.447   3.963  15.897  0.00  0.00    +0.000 OA
BRANCH  15  16
ATOM     16  C   UNL     1       5.569   4.643  14.631  0.00  0.00    +0.000 C 
ATOM     17  C   UNL     1       6.999   4.753  14.045  0.00  0.00    +0.000 C 
ATOM     18  C   UNL     1       6.578   3.921  12.830  0.00  0.00    +0.000 C 
ATOM     19  C   UNL     1       5.190   3.736  13.440  0.00  0.00    +0.000 C 
ENDBRANCH  15  16
ENDBRANCH  14  15
ENDBRANCH   2   9
BRANCH   6  20
ATOM     20  C   UNL     1       0.526   9.713  19.147  0.00  0.00    +0.000 A 
ATOM     21  C   UNL     1      -0.288   9.785  18.000  0.00  0.00    +0.000 A 
ATOM     22  C   UNL     1      -1.450  10.567  17.956  0.00  0.00    +0.000 A 
ATOM     23  C   UNL     1      -1.832  11.303  19.069  0.00  0.00    +0.000 A 
ATOM     24  C   UNL     1      -1.039  11.265  20.213  0.00  0.00    +0.000 A 
ATOM     25  C   UNL     1       0.127  10.486  20.243  0.00  0.00    +0.000 A 
ENDBRANCH   6  20
BRANCH   1  26
ATOM     26  O   UNL     1       1.591   4.413  17.549  0.00  0.00    +0.000 OA
ATOM     27  H   UNL     1       1.509   5.343  17.828  0.00  0.00    +0.000 HD
ENDBRANCH   1  26
TORSDOF 5
ENDMDL
MODEL 3
REMARK VINA RESULT:      -6.9      0.842      1.267
REMARK  Name = 
REMARK  5 active torsions:
REMARK  status: ('A' for Active; 'I' for Inactive)
REMARK    1  A    between atoms: O_1  and  N_2
REMARK    2  A    between atoms: C_3  and  C_4
REMARK    3  A    between atoms: C_9  and  O_10
REMARK    4  A    between atoms: O_10  and  C_11
REMARK    5  A    between atoms: N_18  and  C_19
REMARK                            x       y       z     vdW  Elec       q    Type
REMARK                         _______ _______ _______ _____ _____    ______ ____
ROOT
ATOM      1  N   UNL     1      -0.975  11.537  18.836  0.00  0.00    +0.000 NA
ATOM      2  C   UNL     1       0.188  11.341  19.384  0.00  0.00    +0.000 C 
ATOM      3  N   UNL     1       0.915  10.139  19.419  0.00  0.00    +0.000 N 
ATOM      4  C   UNL     1       1.228   9.434  18.146  0.00  0.00    +0.000 C 
ATOM      5  C   UNL     1       2.362   8.395  18.347  0.00  0.00    +0.000 C 
ATOM      6  N   UNL     1       2.100   7.494  19.488  0.00  0.00    +0.000 N 
ATOM      7  C   UNL     1       1.681   8.172  20.729  0.00  0.00    +0.000 C 
ATOM      8  C   UNL     1       0.517   9.149  20.448  0.00  0.00    +0.000 C 
ENDROOT
BRANCH   2   9
ATOM      9  C   UNL     1       0.837  12.541  20.034  0.00  0.00    +0.000 A 
ATOM     10  C   UNL     1       1.577  13.397  19.202  0.00  0.00    +0.000 A 
ATOM     11  C   UNL     1       2.118  14.577  19.709  0.00  0.00    +0.000 A 
ATOM     12  C   UNL     1       1.926  14.862  21.045  0.00  0.00    +0.000 A 
ATOM     13  N   UNL     1       1.243  14.060  21.886  0.00  0.00    +0.000 NA
ATOM     14  C   UNL     1       0.702  12.920  21.374  0.00  0.00    +0.000 A 
BRANCH  14  15
ATOM     15  O   UNL     1      -0.096  12.293  22.293  0.00  0.00    +0.000 OA
BRANCH  15  16
ATOM     16  C   UNL     1      -1.266  12.990  22.765  0.00  0.00    +0.000 C 
ATOM     17  C   UNL     1      -2.232  13.525  21.679  0.00  0.00    +0.000 C 
ATOM     18  C   UNL     1      -3.347  12.617  22.208  0.00  0.00    +0.000 C 
ATOM     19  C   UNL     1      -2.378  12.024  23.227  0.00  0.00    +0.000 C 
ENDBRANCH  15  16
ENDBRANCH  14  15
ENDBRANCH   2   9
BRANCH   6  20
ATOM     20  C   UNL     1       2.009   6.119  19.384  0.00  0.00    +0.000 A 
ATOM     21  C   UNL     1       2.235   5.472  18.153  0.00  0.00    +0.000 A 
ATOM     22  C   UNL     1       2.178   4.078  18.020  0.00  0.00    +0.000 A 
ATOM     23  C   UNL     1       1.891   3.289  19.124  0.00  0.00    +0.000 A 
ATOM     24  C   UNL     1       1.647   3.899  20.351  0.00  0.00    +0.000 A 
ATOM     25  C   UNL     1       1.698   5.296  20.471  0.00  0.00    +0.000 A 
ENDBRANCH   6  20
BRANCH   1  26
ATOM     26  O   UNL     1      -1.523  10.374  18.291  0.00  0.00    +0.000 OA
ATOM     27  H   UNL     1      -1.262   9.703  18.948  0.00  0.00    +0.000 HD
ENDBRANCH   1  26
TORSDOF 5
ENDMDL
MODEL 4
REMARK VINA RESULT:      -6.9      4.040      8.225
REMARK  Name = 
REMARK  5 active torsions:
REMARK  status: ('A' for Active; 'I' for Inactive)
REMARK    1  A    between atoms: O_1  and  N_2
REMARK    2  A    between atoms: C_3  and  C_4
REMARK    3  A    between atoms: C_9  and  O_10
REMARK    4  A    between atoms: O_10  and  C_11
REMARK    5  A    between atoms: N_18  and  C_19
REMARK                            x       y       z     vdW  Elec       q    Type
REMARK                         _______ _______ _______ _____ _____    ______ ____
ROOT
ATOM      1  N   UNL     1       2.439   3.379  17.001  0.00  0.00    +0.000 NA
ATOM      2  C   UNL     1       3.272   4.351  17.230  0.00  0.00    +0.000 C 
ATOM      3  N   UNL     1       3.063   5.466  18.060  0.00  0.00    +0.000 N 
ATOM      4  C   UNL     1       2.677   5.258  19.483  0.00  0.00    +0.000 C 
ATOM      5  C   UNL     1       2.903   6.548  20.316  0.00  0.00    +0.000 C 
ATOM      6  N   UNL     1       2.286   7.734  19.690  0.00  0.00    +0.000 N 
ATOM      7  C   UNL     1       2.569   7.893  18.251  0.00  0.00    +0.000 C 
ATOM      8  C   UNL     1       2.270   6.581  17.490  0.00  0.00    +0.000 C 
ENDROOT
BRANCH   2   9
ATOM      9  C   UNL     1       4.617   4.261  16.548  0.00  0.00    +0.000 A 
ATOM     10  C   UNL     1       4.630   4.330  15.146  0.00  0.00    +0.000 A 
ATOM     11  C   UNL     1       5.839   4.357  14.453  0.00  0.00    +0.000 A 
ATOM     12  C   UNL     1       7.009   4.288  15.180  0.00  0.00    +0.000 A 
ATOM     13  N   UNL     1       7.045   4.197  16.525  0.00  0.00    +0.000 NA
ATOM     14  C   UNL     1       5.859   4.193  17.191  0.00  0.00    +0.000 A 
BRANCH  14  15
ATOM     15  O   UNL     1       6.048   4.263  18.545  0.00  0.00    +0.000 OA
BRANCH  15  16
ATOM     16  C   UNL     1       6.393   5.541  19.117  0.00  0.00    +0.000 C 
ATOM     17  C   UNL     1       7.889   5.764  19.449  0.00  0.00    +0.000 C 
ATOM     18  C   UNL     1       7.950   6.919  18.444  0.00  0.00    +0.000 C 
ATOM     19  C   UNL     1       6.500   6.652  18.051  0.00  0.00    +0.000 C 
ENDBRANCH  15  16
ENDBRANCH  14  15
ENDBRANCH   2   9
BRANCH   6  20
ATOM     20  C   UNL     1       1.327   8.521  20.299  0.00  0.00    +0.000 A 
ATOM     21  C   UNL     1       0.999   8.337  21.656  0.00  0.00    +0.000 A 
ATOM     22  C   UNL     1       0.052   9.135  22.311  0.00  0.00    +0.000 A 
ATOM     23  C   UNL     1      -0.597  10.148  21.619  0.00  0.00    +0.000 A 
ATOM     24  C   UNL     1      -0.307  10.344  20.271  0.00  0.00    +0.000 A 
ATOM     25  C   UNL     1       0.636   9.533  19.624  0.00  0.00    +0.000 A 
ENDBRANCH   6  20
BRANCH   1  26
ATOM     26  O   UNL     1       1.208   3.553  17.637  0.00  0.00    +0.000 OA
ATOM     27  H   UNL     1       1.436   4.186  18.342  0.00  0.00    +0.000 HD
ENDBRANCH   1  26
TORSDOF 5
ENDMDL
MODEL 5
REMARK VINA RESULT:      -6.8      3.770      8.285
REMARK  Name = 
REMARK  5 active torsions:
REMARK  status: ('A' for Active; 'I' for Inactive)
REMARK    1  A    between atoms: O_1  and  N_2
REMARK    2  A    between atoms: C_3  and  C_4
REMARK    3  A    between atoms: C_9  and  O_10
REMARK    4  A    between atoms: O_10  and  C_11
REMARK    5  A    between atoms: N_18  and  C_19
REMARK                            x       y       z     vdW  Elec       q    Type
REMARK                         _______ _______ _______ _____ _____    ______ ____
ROOT
ATOM      1  N   UNL     1       3.004   4.795  17.841  0.00  0.00    +0.000 NA
ATOM      2  C   UNL     1       3.552   5.919  18.198  0.00  0.00    +0.000 C 
ATOM      3  N   UNL     1       2.890   7.103  18.570  0.00  0.00    +0.000 N 
ATOM      4  C   UNL     1       1.888   7.067  19.670  0.00  0.00    +0.000 C 
ATOM      5  C   UNL     1       1.593   8.494  20.202  0.00  0.00    +0.000 C 
ATOM      6  N   UNL     1       1.266   9.440  19.116  0.00  0.00    +0.000 N 
ATOM      7  C   UNL     1       2.190   9.408  17.967  0.00  0.00    +0.000 C 
ATOM      8  C   UNL     1       2.388   7.959  17.469  0.00  0.00    +0.000 C 
ENDROOT
BRANCH   2   9
ATOM      9  C   UNL     1       5.062   5.949  18.238  0.00  0.00    +0.000 A 
ATOM     10  C   UNL     1       5.680   5.498  19.416  0.00  0.00    +0.000 A 
ATOM     11  C   UNL     1       7.067   5.400  19.490  0.00  0.00    +0.000 A 
ATOM     12  C   UNL     1       7.808   5.779  18.390  0.00  0.00    +0.000 A 
ATOM     13  N   UNL     1       7.260   6.239  17.247  0.00  0.00    +0.000 NA
ATOM     14  C   UNL     1       5.903   6.312  17.180  0.00  0.00    +0.000 A 
BRANCH  14  15
ATOM     15  O   UNL     1       5.484   6.635  15.918  0.00  0.00    +0.000 OA
BRANCH  15  16
ATOM     16  C   UNL     1       5.345   5.571  14.954  0.00  0.00    +0.000 C 
ATOM     17  C   UNL     1       6.639   5.129  14.227  0.00  0.00    +0.000 C 
ATOM     18  C   UNL     1       6.515   3.728  14.835  0.00  0.00    +0.000 C 
ATOM     19  C   UNL     1       5.287   4.180  15.621  0.00  0.00    +0.000 C 
ENDBRANCH  15  16
ENDBRANCH  14  15
ENDBRANCH   2   9
BRANCH   6  20
ATOM     20  C   UNL     1       0.077  10.141  19.032  0.00  0.00    +0.000 A 
ATOM     21  C   UNL     1      -0.765  10.000  17.912  0.00  0.00    +0.000 A 
ATOM     22  C   UNL     1      -1.989  10.675  17.808  0.00  0.00    +0.000 A 
ATOM     23  C   UNL     1      -2.405  11.515  18.832  0.00  0.00    +0.000 A 
ATOM     24  C   UNL     1      -1.587  11.687  19.945  0.00  0.00    +0.000 A 
ATOM     25  C   UNL     1      -0.360  11.014  20.034  0.00  0.00    +0.000 A 
ENDBRANCH   6  20
BRANCH   1  26
ATOM     26  O   UNL     1       1.610   4.859  17.793  0.00  0.00    +0.000 OA
ATOM     27  H   UNL     1       1.424   5.615  18.380  0.00  0.00    +0.000 HD
ENDBRANCH   1  26
TORSDOF 5
ENDMDL
MODEL 6
REMARK VINA RESULT:      -6.7      3.367      8.180
REMARK  Name = 
REMARK  5 active torsions:
REMARK  status: ('A' for Active; 'I' for Inactive)
REMARK    1  A    between atoms: O_1  and  N_2
REMARK    2  A    between atoms: C_3  and  C_4
REMARK    3  A    between atoms: C_9  and  O_10
REMARK    4  A    between atoms: O_10  and  C_11
REMARK    5  A    between atoms: N_18  and  C_19
REMARK                            x       y       z     vdW  Elec       q    Type
REMARK                         _______ _______ _______ _____ _____    ______ ____
ROOT
ATOM      1  N   UNL     1       2.323   4.210  17.242  0.00  0.00    +0.000 NA
ATOM      2  C   UNL     1       3.117   5.140  17.685  0.00  0.00    +0.000 C 
ATOM      3  N   UNL     1       2.745   6.345  18.306  0.00  0.00    +0.000 N 
ATOM      4  C   UNL     1       1.867   6.309  19.508  0.00  0.00    +0.000 C 
ATOM      5  C   UNL     1       1.917   7.657  20.275  0.00  0.00    +0.000 C 
ATOM      6  N   UNL     1       1.681   8.815  19.389  0.00  0.00    +0.000 N 
ATOM      7  C   UNL     1       2.465   8.807  18.139  0.00  0.00    +0.000 C 
ATOM      8  C   UNL     1       2.320   7.450  17.415  0.00  0.00    +0.000 C 
ENDROOT
BRANCH   2   9
ATOM      9  C   UNL     1       4.600   4.887  17.537  0.00  0.00    +0.000 A 
ATOM     10  C   UNL     1       5.206   5.316  16.345  0.00  0.00    +0.000 A 
ATOM     11  C   UNL     1       6.586   5.210  16.180  0.00  0.00    +0.000 A 
ATOM     12  C   UNL     1       7.325   4.654  17.203  0.00  0.00    +0.000 A 
ATOM     13  N   UNL     1       6.784   4.208  18.355  0.00  0.00    +0.000 NA
ATOM     14  C   UNL     1       5.438   4.335  18.513  0.00  0.00    +0.000 A 
BRANCH  14  15
ATOM     15  O   UNL     1       5.052   3.997  19.781  0.00  0.00    +0.000 OA
BRANCH  15  16
ATOM     16  C   UNL     1       4.570   2.657  20.010  0.00  0.00    +0.000 C 
ATOM     17  C   UNL     1       3.099   2.527  20.478  0.00  0.00    +0.000 C 
ATOM     18  C   UNL     1       2.752   1.746  19.207  0.00  0.00    +0.000 C 
ATOM     19  C   UNL     1       4.179   1.942  18.700  0.00  0.00    +0.000 C 
ENDBRANCH  15  16
ENDBRANCH  14  15
ENDBRANCH   2   9
BRANCH   6  20
ATOM     20  C   UNL     1       0.655   9.724  19.559  0.00  0.00    +0.000 A 
ATOM     21  C   UNL     1      -0.119  10.152  18.464  0.00  0.00    +0.000 A 
ATOM     22  C   UNL     1      -1.184  11.052  18.606  0.00  0.00    +0.000 A 
ATOM     23  C   UNL     1      -1.505  11.550  19.861  0.00  0.00    +0.000 A 
ATOM     24  C   UNL     1      -0.749  11.158  20.962  0.00  0.00    +0.000 A 
ATOM     25  C   UNL     1       0.321  10.264  20.806  0.00  0.00    +0.000 A 
ENDBRANCH   6  20
BRANCH   1  26
ATOM     26  O   UNL     1       0.972   4.534  17.381  0.00  0.00    +0.000 OA
ATOM     27  H   UNL     1       0.705   4.681  16.456  0.00  0.00    +0.000 HD
ENDBRANCH   1  26
TORSDOF 5
ENDMDL
MODEL 7
REMARK VINA RESULT:      -6.5      2.355      4.559
REMARK  Name = 
REMARK  5 active torsions:
REMARK  status: ('A' for Active; 'I' for Inactive)
REMARK    1  A    between atoms: O_1  and  N_2
REMARK    2  A    between atoms: C_3  and  C_4
REMARK    3  A    between atoms: C_9  and  O_10
REMARK    4  A    between atoms: O_10  and  C_11
REMARK    5  A    between atoms: N_18  and  C_19
REMARK                            x       y       z     vdW  Elec       q    Type
REMARK                         _______ _______ _______ _____ _____    ______ ____
ROOT
ATOM      1  N   UNL     1       0.690  13.072  21.279  0.00  0.00    +0.000 NA
ATOM      2  C   UNL     1      -0.097  12.128  20.856  0.00  0.00    +0.000 C 
ATOM      3  N   UNL     1       0.277  10.841  20.434  0.00  0.00    +0.000 N 
ATOM      4  C   UNL     1       1.077   9.975  21.343  0.00  0.00    +0.000 C 
ATOM      5  C   UNL     1       1.025   8.492  20.888  0.00  0.00    +0.000 C 
ATOM      6  N   UNL     1       1.355   8.333  19.457  0.00  0.00    +0.000 N 
ATOM      7  C   UNL     1       0.650   9.262  18.553  0.00  0.00    +0.000 C 
ATOM      8  C   UNL     1       0.794  10.718  19.050  0.00  0.00    +0.000 C 
ENDROOT
BRANCH   2   9
ATOM      9  C   UNL     1      -1.576  12.441  20.838  0.00  0.00    +0.000 A 
ATOM     10  C   UNL     1      -2.131  12.977  22.011  0.00  0.00    +0.000 A 
ATOM     11  C   UNL     1      -3.462  13.386  22.037  0.00  0.00    +0.000 A 
ATOM     12  C   UNL     1      -4.217  13.226  20.893  0.00  0.00    +0.000 A 
ATOM     13  N   UNL     1      -3.733  12.696  19.752  0.00  0.00    +0.000 NA
ATOM     14  C   UNL     1      -2.425  12.319  19.732  0.00  0.00    +0.000 A 
BRANCH  14  15
ATOM     15  O   UNL     1      -2.031  11.956  18.473  0.00  0.00    +0.000 OA
BRANCH  15  16
ATOM     16  C   UNL     1      -3.012  11.359  17.600  0.00  0.00    +0.000 C 
ATOM     17  C   UNL     1      -2.627  11.258  16.103  0.00  0.00    +0.000 C 
ATOM     18  C   UNL     1      -2.703   9.730  16.176  0.00  0.00    +0.000 C 
ATOM     19  C   UNL     1      -3.000   9.817  17.671  0.00  0.00    +0.000 C 
ENDBRANCH  15  16
ENDBRANCH  14  15
ENDBRANCH   2   9
BRANCH   6  20
ATOM     20  C   UNL     1       2.399   7.562  18.984  0.00  0.00    +0.000 A 
ATOM     21  C   UNL     1       3.020   7.862  17.757  0.00  0.00    +0.000 A 
ATOM     22  C   UNL     1       4.099   7.117  17.262  0.00  0.00    +0.000 A 
ATOM     23  C   UNL     1       4.589   6.042  17.990  0.00  0.00    +0.000 A 
ATOM     24  C   UNL     1       3.986   5.710  19.200  0.00  0.00    +0.000 A 
ATOM     25  C   UNL     1       2.901   6.457  19.681  0.00  0.00    +0.000 A 
ENDBRANCH   6  20
BRANCH   1  26
ATOM     26  O   UNL     1       2.040  12.719  21.231  0.00  0.00    +0.000 OA
ATOM     27  H   UNL     1       1.990  11.757  21.086  0.00  0.00    +0.000 HD
ENDBRANCH   1  26
TORSDOF 5
ENDMDL
MODEL 8
REMARK VINA RESULT:      -6.3      2.195      2.789
REMARK  Name = 
REMARK  5 active torsions:
REMARK  status: ('A' for Active; 'I' for Inactive)
REMARK    1  A    between atoms: O_1  and  N_2
REMARK    2  A    between atoms: C_3  and  C_4
REMARK    3  A    between atoms: C_9  and  O_10
REMARK    4  A    between atoms: O_10  and  C_11
REMARK    5  A    between atoms: N_18  and  C_19
REMARK                            x       y       z     vdW  Elec       q    Type
REMARK                         _______ _______ _______ _____ _____    ______ ____
ROOT
ATOM      1  N   UNL     1      -2.163  11.101  17.861  0.00  0.00    +0.000 NA
ATOM      2  C   UNL     1      -1.120  11.353  18.595  0.00  0.00    +0.000 C 
ATOM      3  N   UNL     1      -0.086  10.462  18.931  0.00  0.00    +0.000 N 
ATOM      4  C   UNL     1       0.657   9.761  17.848  0.00  0.00    +0.000 C 
ATOM      5  C   UNL     1       1.991   9.173  18.379  0.00  0.00    +0.000 C 
ATOM      6  N   UNL     1       1.801   8.367  19.602  0.00  0.00    +0.000 N 
ATOM      7  C   UNL     1       0.972   9.005  20.641  0.00  0.00    +0.000 C 
ATOM      8  C   UNL     1      -0.356   9.517  20.040  0.00  0.00    +0.000 C 
ENDROOT
BRANCH   2   9
ATOM      9  C   UNL     1      -0.996  12.763  19.126  0.00  0.00    +0.000 A 
ATOM     10  C   UNL     1      -0.075  13.608  18.486  0.00  0.00    +0.000 A 
ATOM     11  C   UNL     1       0.021  14.949  18.853  0.00  0.00    +0.000 A 
ATOM     12  C   UNL     1      -0.790  15.408  19.870  0.00  0.00    +0.000 A 
ATOM     13  N   UNL     1      -1.671  14.628  20.527  0.00  0.00    +0.000 NA
ATOM     14  C   UNL     1      -1.771  13.325  20.147  0.00  0.00    +0.000 A 
BRANCH  14  15
ATOM     15  O   UNL     1      -2.810  12.700  20.780  0.00  0.00    +0.000 OA
BRANCH  15  16
ATOM     16  C   UNL     1      -4.137  13.237  20.602  0.00  0.00    +0.000 C 
ATOM     17  C   UNL     1      -5.116  12.384  19.759  0.00  0.00    +0.000 C 
ATOM     18  C   UNL     1      -6.039  12.225  20.971  0.00  0.00    +0.000 C 
ATOM     19  C   UNL     1      -5.039  12.994  21.831  0.00  0.00    +0.000 C 
ENDBRANCH  15  16
ENDBRANCH  14  15
ENDBRANCH   2   9
BRANCH   6  20
ATOM     20  C   UNL     1       2.148   7.034  19.712  0.00  0.00    +0.000 A 
ATOM     21  C   UNL     1       3.057   6.448  18.810  0.00  0.00    +0.000 A 
ATOM     22  C   UNL     1       3.450   5.106  18.910  0.00  0.00    +0.000 A 
ATOM     23  C   UNL     1       2.940   4.310  19.926  0.00  0.00    +0.000 A 
ATOM     24  C   UNL     1       2.027   4.856  20.824  0.00  0.00    +0.000 A 
ATOM     25  C   UNL     1       1.633   6.197  20.708  0.00  0.00    +0.000 A 
ENDBRANCH   6  20
BRANCH   1  26
ATOM     26  O   UNL     1      -2.225   9.771  17.440  0.00  0.00    +0.000 OA
ATOM     27  H   UNL     1      -2.696   9.349  18.181  0.00  0.00    +0.000 HD
ENDBRANCH   1  26
TORSDOF 5
ENDMDL
MODEL 9
REMARK VINA RESULT:      -6.2      3.206      7.914
REMARK  Name = 
REMARK  5 active torsions:
REMARK  status: ('A' for Active; 'I' for Inactive)
REMARK    1  A    between atoms: O_1  and  N_2
REMARK    2  A    between atoms: C_3  and  C_4
REMARK    3  A    between atoms: C_9  and  O_10
REMARK    4  A    between atoms: O_10  and  C_11
REMARK    5  A    between atoms: N_18  and  C_19
REMARK                            x       y       z     vdW  Elec       q    Type
REMARK                         _______ _______ _______ _____ _____    ______ ____
ROOT
ATOM      1  N   UNL     1       2.499   4.991  17.624  0.00  0.00    +0.000 NA
ATOM      2  C   UNL     1       3.146   6.017  18.095  0.00  0.00    +0.000 C 
ATOM      3  N   UNL     1       2.594   7.202  18.610  0.00  0.00    +0.000 N 
ATOM      4  C   UNL     1       1.603   7.127  19.719  0.00  0.00    +0.000 C 
ATOM      5  C   UNL     1       1.439   8.504  20.415  0.00  0.00    +0.000 C 
ATOM      6  N   UNL     1       1.184   9.592  19.449  0.00  0.00    +0.000 N 
ATOM      7  C   UNL     1       2.090   9.612  18.285  0.00  0.00    +0.000 C 
ATOM      8  C   UNL     1       2.157   8.217  17.623  0.00  0.00    +0.000 C 
ENDROOT
BRANCH   2   9
ATOM      9  C   UNL     1       4.653   5.913  18.108  0.00  0.00    +0.000 A 
ATOM     10  C   UNL     1       5.363   6.781  17.263  0.00  0.00    +0.000 A 
ATOM     11  C   UNL     1       6.755   6.815  17.297  0.00  0.00    +0.000 A 
ATOM     12  C   UNL     1       7.408   5.960  18.160  0.00  0.00    +0.000 A 
ATOM     13  N   UNL     1       6.771   5.094  18.972  0.00  0.00    +0.000 NA
ATOM     14  C   UNL     1       5.410   5.084  18.946  0.00  0.00    +0.000 A 
BRANCH  14  15
ATOM     15  O   UNL     1       4.898   4.283  19.930  0.00  0.00    +0.000 OA
BRANCH  15  16
ATOM     16  C   UNL     1       4.780   2.871  19.663  0.00  0.00    +0.000 C 
ATOM     17  C   UNL     1       3.465   2.193  20.121  0.00  0.00    +0.000 C 
ATOM     18  C   UNL     1       3.127   1.842  18.669  0.00  0.00    +0.000 C 
ATOM     19  C   UNL     1       4.379   2.581  18.201  0.00  0.00    +0.000 C 
ENDBRANCH  15  16
ENDBRANCH  14  15
ENDBRANCH   2   9
BRANCH   6  20
ATOM     20  C   UNL     1       0.060  10.396  19.468  0.00  0.00    +0.000 A 
ATOM     21  C   UNL     1      -0.238  11.193  20.590  0.00  0.00    +0.000 A 
ATOM     22  C   UNL     1      -1.354  12.040  20.630  0.00  0.00    +0.000 A 
ATOM     23  C   UNL     1      -2.207  12.112  19.538  0.00  0.00    +0.000 A 
ATOM     24  C   UNL     1      -1.948  11.325  18.420  0.00  0.00    +0.000 A 
ATOM     25  C   UNL     1      -0.833  10.474  18.394  0.00  0.00    +0.000 A 
ENDBRANCH   6  20
BRANCH   1  26
ATOM     26  O   UNL     1       1.115   5.179  17.612  0.00  0.00    +0.000 OA
ATOM     27  H   UNL     1       0.906   5.188  18.564  0.00  0.00    +0.000 HD
ENDBRANCH   1  26
TORSDOF 5
ENDMDL
