MODEL 1
REMARK VINA RESULT:      -9.0      0.000      0.000
REMARK  Name = 
REMARK  10 active torsions:
REMARK  status: ('A' for Active; 'I' for Inactive)
REMARK    1  A    between atoms: C_1  and  N_2
REMARK    2  A    between atoms: N_2  and  C_3
REMARK    3  A    between atoms: N_2  and  C_9
REMARK    4  A    between atoms: C_3  and  C_4
REMARK    5  A    between atoms: N_12  and  C_13
REMARK    6  A    between atoms: C_13  and  C_14
REMARK    7  A    between atoms: C_17  and  C_18
REMARK    8  A    between atoms: N_31  and  C_32
REMARK    9  A    between atoms: C_32  and  C_33
REMARK   10  A    between atoms: C_33  and  O_35
REMARK                            x       y       z     vdW  Elec       q    Type
REMARK                         _______ _______ _______ _____ _____    ______ ____
ROOT
ATOM      1  C   UNL     1       4.362   4.764  17.123  0.00  0.00    +0.000 A 
ATOM      2  N   UNL     1       3.844   6.006  17.385  0.00  0.00    +0.000 NA
ATOM      3  C   UNL     1       2.806   6.177  18.226  0.00  0.00    +0.000 A 
ATOM      4  N   UNL     1       2.407   7.453  18.560  0.00  0.00    +0.000 N 
ATOM      5  N   UNL     1       2.133   5.202  18.844  0.00  0.00    +0.000 NA
ATOM      6  C   UNL     1       2.632   3.989  18.566  0.00  0.00    +0.000 A 
ATOM      7  C   UNL     1       3.707   3.679  17.754  0.00  0.00    +0.000 A 
ATOM      8  N   UNL     1       3.912   2.311  17.755  0.00  0.00    +0.000 NA
ATOM      9  C   UNL     1       3.006   1.819  18.574  0.00  0.00    +0.000 A 
ATOM     10  N   UNL     1       2.189   2.796  19.070  0.00  0.00    +0.000 N 
ATOM     11  H   UNL     1       1.495   7.432  18.989  0.00  0.00    +0.000 HD
ENDROOT
BRANCH   1  13
ATOM     12  C   UNL     1       5.237   5.138  14.900  0.00  0.00    +0.000 C 
ATOM     13  N   UNL     1       5.452   4.671  16.258  0.00  0.00    +0.000 N 
BRANCH  13  14
ATOM     14  C   UNL     1       6.818   4.671  16.786  0.00  0.00    +0.000 C 
BRANCH  14  15
ATOM     15  C   UNL     1       7.319   5.915  17.450  0.00  0.00    +0.000 A 
ATOM     16  C   UNL     1       7.882   6.149  18.690  0.00  0.00    +0.000 A 
ATOM     17  C   UNL     1       8.216   7.523  18.730  0.00  0.00    +0.000 A 
ATOM     18  C   UNL     1       7.840   8.040  17.513  0.00  0.00    +0.000 A 
ATOM     19  O   UNL     1       7.301   7.072  16.726  0.00  0.00    +0.000 OA
ENDBRANCH  14  15
ENDBRANCH  13  14
ENDBRANCH   1  13
BRANCH   4  20
ATOM     20  C   UNL     1       2.641   8.515  17.611  0.00  0.00    +0.000 C 
BRANCH  20  21
ATOM     21  C   UNL     1       1.789   9.697  18.008  0.00  0.00    +0.000 A 
ATOM     22  C   UNL     1       0.409   9.533  18.176  0.00  0.00    +0.000 A 
ATOM     23  C   UNL     1      -0.401  10.608  18.548  0.00  0.00    +0.000 A 
ATOM     24  C   UNL     1       0.141  11.878  18.800  0.00  0.00    +0.000 A 
ATOM     25  C   UNL     1       1.523  12.037  18.589  0.00  0.00    +0.000 A 
ATOM     26  C   UNL     1       2.337  10.962  18.209  0.00  0.00    +0.000 A 
BRANCH  24  27
ATOM     27  C   UNL     1      -0.755  13.053  19.211  0.00  0.00    +0.000 C 
ATOM     28  C   UNL     1      -2.019  12.657  20.011  0.00  0.00    +0.000 C 
ATOM     29  C   UNL     1      -1.688  12.163  21.419  0.00  0.00    +0.000 C 
ATOM     30  C   UNL     1      -0.858  13.173  22.208  0.00  0.00    +0.000 C 
ATOM     31  C   UNL     1       0.332  13.723  21.427  0.00  0.00    +0.000 C 
ATOM     32  C   UNL     1      -0.049  14.169  20.015  0.00  0.00    +0.000 C 
ENDBRANCH  24  27
ENDBRANCH  20  21
ENDBRANCH   4  20
BRANCH  10  33
ATOM     33  C   UNL     1       1.140   2.691  20.072  0.00  0.00    +0.000 C 
BRANCH  33  34
ATOM     34  C   UNL     1       1.555   2.887  21.505  0.00  0.00    +0.000 C 
ATOM     35  O   UNL     1       1.351   2.117  22.433  0.00  0.00    +0.000 OA
BRANCH  34  36
ATOM     36  O   UNL     1       2.218   4.055  21.702  0.00  0.00    +0.000 OA
ATOM     37  H   UNL     1       2.244   4.375  22.626  0.00  0.00    +0.000 HD
ENDBRANCH  34  36
ENDBRANCH  33  34
ENDBRANCH  10  33
TORSDOF 9
ENDMDL
MODEL 2
REMARK VINA RESULT:      -8.8      0.629      1.135
REMARK  Name = 
REMARK  10 active torsions:
REMARK  status: ('A' for Active; 'I' for Inactive)
REMARK    1  A    between atoms: C_1  and  N_2
REMARK    2  A    between atoms: N_2  and  C_3
REMARK    3  A    between atoms: N_2  and  C_9
REMARK    4  A    between atoms: C_3  and  C_4
REMARK    5  A    between atoms: N_12  and  C_13
REMARK    6  A    between atoms: C_13  and  C_14
REMARK    7  A    between atoms: C_17  and  C_18
REMARK    8  A    between atoms: N_31  and  C_32
REMARK    9  A    between atoms: C_32  and  C_33
REMARK   10  A    between atoms: C_33  and  O_35
REMARK                            x       y       z     vdW  Elec       q    Type
REMARK                         _______ _______ _______ _____ _____    ______ ____
ROOT
ATOM      1  C   UNL     1       4.264   4.805  17.012  0.00  0.00    +0.000 A 
ATOM      2  N   UNL     1       3.770   6.048  17.310  0.00  0.00    +0.000 NA
ATOM      3  C   UNL     1       2.768   6.218  18.193  0.00  0.00    +0.000 A 
ATOM      4  N   UNL     1       2.395   7.493  18.558  0.00  0.00    +0.000 N 
ATOM      5  N   UNL     1       2.109   5.241  18.824  0.00  0.00    +0.000 NA
ATOM      6  C   UNL     1       2.584   4.028  18.511  0.00  0.00    +0.000 A 
ATOM      7  C   UNL     1       3.624   3.717  17.654  0.00  0.00    +0.000 A 
ATOM      8  N   UNL     1       3.814   2.348  17.630  0.00  0.00    +0.000 NA
ATOM      9  C   UNL     1       2.936   1.854  18.478  0.00  0.00    +0.000 A 
ATOM     10  N   UNL     1       2.149   2.832  19.017  0.00  0.00    +0.000 N 
ATOM     11  H   UNL     1       1.499   7.475  19.023  0.00  0.00    +0.000 HD
ENDROOT
BRANCH   1  13
ATOM     12  C   UNL     1       5.174   5.466  14.871  0.00  0.00    +0.000 C 
ATOM     13  N   UNL     1       5.319   4.712  16.105  0.00  0.00    +0.000 N 
BRANCH  13  14
ATOM     14  C   UNL     1       6.671   4.392  16.569  0.00  0.00    +0.000 C 
BRANCH  14  15
ATOM     15  C   UNL     1       7.303   5.296  17.580  0.00  0.00    +0.000 A 
ATOM     16  C   UNL     1       7.591   6.647  17.574  0.00  0.00    +0.000 A 
ATOM     17  C   UNL     1       8.133   6.952  18.844  0.00  0.00    +0.000 A 
ATOM     18  C   UNL     1       8.138   5.771  19.547  0.00  0.00    +0.000 A 
ATOM     19  O   UNL     1       7.630   4.761  18.793  0.00  0.00    +0.000 OA
ENDBRANCH  14  15
ENDBRANCH  13  14
ENDBRANCH   1  13
BRANCH   4  20
ATOM     20  C   UNL     1       2.603   8.566  17.615  0.00  0.00    +0.000 C 
BRANCH  20  21
ATOM     21  C   UNL     1       1.742   9.734  18.033  0.00  0.00    +0.000 A 
ATOM     22  C   UNL     1       2.325  10.990  18.234  0.00  0.00    +0.000 A 
ATOM     23  C   UNL     1       1.550  12.087  18.616  0.00  0.00    +0.000 A 
ATOM     24  C   UNL     1       0.159  11.979  18.777  0.00  0.00    +0.000 A 
ATOM     25  C   UNL     1      -0.406  10.702  18.609  0.00  0.00    +0.000 A 
ATOM     26  C   UNL     1       0.369   9.597  18.234  0.00  0.00    +0.000 A 
BRANCH  24  27
ATOM     27  C   UNL     1      -0.685  13.190  19.193  0.00  0.00    +0.000 C 
ATOM     28  C   UNL     1      -1.963  12.847  19.994  0.00  0.00    +0.000 C 
ATOM     29  C   UNL     1      -1.651  12.334  21.400  0.00  0.00    +0.000 C 
ATOM     30  C   UNL     1      -0.777  13.305  22.190  0.00  0.00    +0.000 C 
ATOM     31  C   UNL     1       0.435  13.805  21.409  0.00  0.00    +0.000 C 
ATOM     32  C   UNL     1       0.070  14.273  19.999  0.00  0.00    +0.000 C 
ENDBRANCH  24  27
ENDBRANCH  20  21
ENDBRANCH   4  20
BRANCH  10  33
ATOM     33  C   UNL     1       1.139   2.725  20.058  0.00  0.00    +0.000 C 
BRANCH  33  34
ATOM     34  C   UNL     1       1.606   2.923  21.475  0.00  0.00    +0.000 C 
ATOM     35  O   UNL     1       1.490   2.129  22.397  0.00  0.00    +0.000 OA
BRANCH  34  36
ATOM     36  O   UNL     1       2.208   4.125  21.661  0.00  0.00    +0.000 OA
ATOM     37  H   UNL     1       2.493   4.586  20.846  0.00  0.00    +0.000 HD
ENDBRANCH  34  36
ENDBRANCH  33  34
ENDBRANCH  10  33
TORSDOF 9
ENDMDL
MODEL 3
REMARK VINA RESULT:      -8.6      1.252      2.141
REMARK  Name = 
REMARK  10 active torsions:
REMARK  status: ('A' for Active; 'I' for Inactive)
REMARK    1  A    between atoms: C_1  and  N_2
REMARK    2  A    between atoms: N_2  and  C_3
REMARK    3  A    between atoms: N_2  and  C_9
REMARK    4  A    between atoms: C_3  and  C_4
REMARK    5  A    between atoms: N_12  and  C_13
REMARK    6  A    between atoms: C_13  and  C_14
REMARK    7  A    between atoms: C_17  and  C_18
REMARK    8  A    between atoms: N_31  and  C_32
REMARK    9  A    between atoms: C_32  and  C_33
REMARK   10  A    between atoms: C_33  and  O_35
REMARK                            x       y       z     vdW  Elec       q    Type
REMARK                         _______ _______ _______ _____ _____    ______ ____
ROOT
ATOM      1  C   UNL     1       4.878   5.957  17.652  0.00  0.00    +0.000 A 
ATOM      2  N   UNL     1       4.010   7.008  17.800  0.00  0.00    +0.000 NA
ATOM      3  C   UNL     1       2.811   6.859  18.391  0.00  0.00    +0.000 A 
ATOM      4  N   UNL     1       2.032   7.969  18.635  0.00  0.00    +0.000 N 
ATOM      5  N   UNL     1       2.299   5.708  18.840  0.00  0.00    +0.000 NA
ATOM      6  C   UNL     1       3.144   4.681  18.674  0.00  0.00    +0.000 A 
ATOM      7  C   UNL     1       4.410   4.704  18.119  0.00  0.00    +0.000 A 
ATOM      8  N   UNL     1       4.959   3.436  18.159  0.00  0.00    +0.000 NA
ATOM      9  C   UNL     1       4.060   2.681  18.755  0.00  0.00    +0.000 A 
ATOM     10  N   UNL     1       2.931   3.386  19.062  0.00  0.00    +0.000 N 
ATOM     11  H   UNL     1       1.086   7.691  18.852  0.00  0.00    +0.000 HD
ENDROOT
BRANCH   1  13
ATOM     12  C   UNL     1       6.772   7.440  17.408  0.00  0.00    +0.000 C 
ATOM     13  N   UNL     1       6.112   6.196  17.050  0.00  0.00    +0.000 N 
BRANCH  13  14
ATOM     14  C   UNL     1       6.938   5.081  16.582  0.00  0.00    +0.000 C 
BRANCH  14  15
ATOM     15  C   UNL     1       6.870   4.712  15.134  0.00  0.00    +0.000 A 
ATOM     16  C   UNL     1       6.059   3.843  14.429  0.00  0.00    +0.000 A 
ATOM     17  C   UNL     1       6.423   3.964  13.067  0.00  0.00    +0.000 A 
ATOM     18  C   UNL     1       7.429   4.900  13.025  0.00  0.00    +0.000 A 
ATOM     19  O   UNL     1       7.703   5.366  14.272  0.00  0.00    +0.000 OA
ENDBRANCH  14  15
ENDBRANCH  13  14
ENDBRANCH   1  13
BRANCH   4  20
ATOM     20  C   UNL     1       2.177   9.113  17.766  0.00  0.00    +0.000 C 
BRANCH  20  21
ATOM     21  C   UNL     1       1.306  10.224  18.302  0.00  0.00    +0.000 A 
ATOM     22  C   UNL     1      -0.055   9.991  18.532  0.00  0.00    +0.000 A 
ATOM     23  C   UNL     1      -0.881  11.000  19.032  0.00  0.00    +0.000 A 
ATOM     24  C   UNL     1      -0.372  12.268  19.354  0.00  0.00    +0.000 A 
ATOM     25  C   UNL     1       0.988  12.499  19.081  0.00  0.00    +0.000 A 
ATOM     26  C   UNL     1       1.818  11.492  18.572  0.00  0.00    +0.000 A 
BRANCH  24  27
ATOM     27  C   UNL     1      -1.286  13.369  19.906  0.00  0.00    +0.000 C 
ATOM     28  C   UNL     1      -2.452  12.865  20.788  0.00  0.00    +0.000 C 
ATOM     29  C   UNL     1      -1.973  12.318  22.133  0.00  0.00    +0.000 C 
ATOM     30  C   UNL     1      -1.128  13.330  22.902  0.00  0.00    +0.000 C 
ATOM     31  C   UNL     1      -0.040  13.983  22.054  0.00  0.00    +0.000 C 
ATOM     32  C   UNL     1      -0.568  14.480  20.707  0.00  0.00    +0.000 C 
ENDBRANCH  24  27
ENDBRANCH  20  21
ENDBRANCH   4  20
BRANCH  10  33
ATOM     33  C   UNL     1       1.757   2.958  19.808  0.00  0.00    +0.000 C 
BRANCH  33  34
ATOM     34  C   UNL     1       1.797   3.153  21.299  0.00  0.00    +0.000 C 
ATOM     35  O   UNL     1       1.511   2.322  22.149  0.00  0.00    +0.000 OA
BRANCH  34  36
ATOM     36  O   UNL     1       2.204   4.400  21.651  0.00  0.00    +0.000 OA
ATOM     37  H   UNL     1       1.614   4.877  22.269  0.00  0.00    +0.000 HD
ENDBRANCH  34  36
ENDBRANCH  33  34
ENDBRANCH  10  33
TORSDOF 9
ENDMDL
MODEL 4
REMARK VINA RESULT:      -8.3      0.757      1.057
REMARK  Name = 
REMARK  10 active torsions:
REMARK  status: ('A' for Active; 'I' for Inactive)
REMARK    1  A    between atoms: C_1  and  N_2
REMARK    2  A    between atoms: N_2  and  C_3
REMARK    3  A    between atoms: N_2  and  C_9
REMARK    4  A    between atoms: C_3  and  C_4
REMARK    5  A    between atoms: N_12  and  C_13
REMARK    6  A    between atoms: C_13  and  C_14
REMARK    7  A    between atoms: C_17  and  C_18
REMARK    8  A    between atoms: N_31  and  C_32
REMARK    9  A    between atoms: C_32  and  C_33
REMARK   10  A    between atoms: C_33  and  O_35
REMARK                            x       y       z     vdW  Elec       q    Type
REMARK                         _______ _______ _______ _____ _____    ______ ____
ROOT
ATOM      1  C   UNL     1       4.244   5.221  17.059  0.00  0.00    +0.000 A 
ATOM      2  N   UNL     1       3.670   6.423  17.383  0.00  0.00    +0.000 NA
ATOM      3  C   UNL     1       2.664   6.510  18.274  0.00  0.00    +0.000 A 
ATOM      4  N   UNL     1       2.210   7.751  18.665  0.00  0.00    +0.000 N 
ATOM      5  N   UNL     1       2.076   5.480  18.890  0.00  0.00    +0.000 NA
ATOM      6  C   UNL     1       2.629   4.307  18.553  0.00  0.00    +0.000 A 
ATOM      7  C   UNL     1       3.682   4.082  17.685  0.00  0.00    +0.000 A 
ATOM      8  N   UNL     1       3.963   2.729  17.634  0.00  0.00    +0.000 NA
ATOM      9  C   UNL     1       3.124   2.163  18.477  0.00  0.00    +0.000 A 
ATOM     10  N   UNL     1       2.277   3.076  19.039  0.00  0.00    +0.000 N 
ATOM     11  H   UNL     1       1.320   7.665  19.133  0.00  0.00    +0.000 HD
ENDROOT
BRANCH   1  13
ATOM     12  C   UNL     1       5.201   6.163  15.048  0.00  0.00    +0.000 C 
ATOM     13  N   UNL     1       5.297   5.216  16.145  0.00  0.00    +0.000 N 
BRANCH  13  14
ATOM     14  C   UNL     1       6.626   4.750  16.547  0.00  0.00    +0.000 C 
BRANCH  14  15
ATOM     15  C   UNL     1       7.327   5.482  17.648  0.00  0.00    +0.000 A 
ATOM     16  C   UNL     1       7.695   6.805  17.804  0.00  0.00    +0.000 A 
ATOM     17  C   UNL     1       8.275   6.915  19.089  0.00  0.00    +0.000 A 
ATOM     18  C   UNL     1       8.222   5.656  19.639  0.00  0.00    +0.000 A 
ATOM     19  O   UNL     1       7.642   4.780  18.776  0.00  0.00    +0.000 OA
ENDBRANCH  14  15
ENDBRANCH  13  14
ENDBRANCH   1  13
BRANCH   4  20
ATOM     20  C   UNL     1       2.340   8.852  17.740  0.00  0.00    +0.000 C 
BRANCH  20  21
ATOM     21  C   UNL     1       1.477   9.987  18.237  0.00  0.00    +0.000 A 
ATOM     22  C   UNL     1       0.130   9.756  18.537  0.00  0.00    +0.000 A 
ATOM     23  C   UNL     1      -0.688  10.788  19.003  0.00  0.00    +0.000 A 
ATOM     24  C   UNL     1      -0.183  12.080  19.219  0.00  0.00    +0.000 A 
ATOM     25  C   UNL     1       1.162  12.306  18.875  0.00  0.00    +0.000 A 
ATOM     26  C   UNL     1       1.984  11.275  18.401  0.00  0.00    +0.000 A 
BRANCH  24  27
ATOM     27  C   UNL     1      -1.087  13.206  19.734  0.00  0.00    +0.000 C 
ATOM     28  C   UNL     1      -2.242  12.744  20.654  0.00  0.00    +0.000 C 
ATOM     29  C   UNL     1      -1.744  12.257  22.015  0.00  0.00    +0.000 C 
ATOM     30  C   UNL     1      -0.887  13.301  22.726  0.00  0.00    +0.000 C 
ATOM     31  C   UNL     1       0.189  13.913  21.835  0.00  0.00    +0.000 C 
ATOM     32  C   UNL     1      -0.357  14.350  20.475  0.00  0.00    +0.000 C 
ENDBRANCH  24  27
ENDBRANCH  20  21
ENDBRANCH   4  20
BRANCH  10  33
ATOM     33  C   UNL     1       1.283   2.883  20.082  0.00  0.00    +0.000 C 
BRANCH  33  34
ATOM     34  C   UNL     1       1.725   3.158  21.494  0.00  0.00    +0.000 C 
ATOM     35  O   UNL     1       2.369   4.124  21.880  0.00  0.00    +0.000 OA
BRANCH  34  36
ATOM     36  O   UNL     1       1.326   2.195  22.363  0.00  0.00    +0.000 OA
ATOM     37  H   UNL     1       0.446   2.331  22.769  0.00  0.00    +0.000 HD
ENDBRANCH  34  36
ENDBRANCH  33  34
ENDBRANCH  10  33
TORSDOF 9
ENDMDL
MODEL 5
REMARK VINA RESULT:      -8.3      4.098      9.270
REMARK  Name = 
REMARK  10 active torsions:
REMARK  status: ('A' for Active; 'I' for Inactive)
REMARK    1  A    between atoms: C_1  and  N_2
REMARK    2  A    between atoms: N_2  and  C_3
REMARK    3  A    between atoms: N_2  and  C_9
REMARK    4  A    between atoms: C_3  and  C_4
REMARK    5  A    between atoms: N_12  and  C_13
REMARK    6  A    between atoms: C_13  and  C_14
REMARK    7  A    between atoms: C_17  and  C_18
REMARK    8  A    between atoms: N_31  and  C_32
REMARK    9  A    between atoms: C_32  and  C_33
REMARK   10  A    between atoms: C_33  and  O_35
REMARK                            x       y       z     vdW  Elec       q    Type
REMARK                         _______ _______ _______ _____ _____    ______ ____
ROOT
ATOM      1  C   UNL     1      -0.374  11.959  19.447  0.00  0.00    +0.000 A 
ATOM      2  N   UNL     1       0.579  11.111  18.944  0.00  0.00    +0.000 NA
ATOM      3  C   UNL     1       0.277  10.169  18.031  0.00  0.00    +0.000 A 
ATOM      4  N   UNL     1       1.289   9.430  17.459  0.00  0.00    +0.000 N 
ATOM      5  N   UNL     1      -0.945   9.905  17.557  0.00  0.00    +0.000 NA
ATOM      6  C   UNL     1      -1.874  10.724  18.069  0.00  0.00    +0.000 A 
ATOM      7  C   UNL     1      -1.694  11.749  18.980  0.00  0.00    +0.000 A 
ATOM      8  N   UNL     1      -2.904  12.369  19.228  0.00  0.00    +0.000 NA
ATOM      9  C   UNL     1      -3.780  11.755  18.459  0.00  0.00    +0.000 A 
ATOM     10  N   UNL     1      -3.207  10.733  17.757  0.00  0.00    +0.000 N 
ATOM     11  H   UNL     1       0.908   8.621  16.990  0.00  0.00    +0.000 HD
ENDROOT
BRANCH   1  13
ATOM     12  C   UNL     1       0.219  14.267  19.857  0.00  0.00    +0.000 C 
ATOM     13  N   UNL     1       0.022  12.924  20.373  0.00  0.00    +0.000 N 
BRANCH  13  14
ATOM     14  C   UNL     1      -0.298  12.765  21.793  0.00  0.00    +0.000 C 
BRANCH  14  15
ATOM     15  C   UNL     1      -0.254  11.388  22.377  0.00  0.00    +0.000 A 
ATOM     16  C   UNL     1      -1.192  10.627  23.047  0.00  0.00    +0.000 A 
ATOM     17  C   UNL     1      -0.591   9.372  23.300  0.00  0.00    +0.000 A 
ATOM     18  C   UNL     1       0.674   9.443  22.766  0.00  0.00    +0.000 A 
ATOM     19  O   UNL     1       0.886  10.658  22.197  0.00  0.00    +0.000 OA
ENDBRANCH  14  15
ENDBRANCH  13  14
ENDBRANCH   1  13
BRANCH   4  20
ATOM     20  C   UNL     1       2.497   9.217  18.219  0.00  0.00    +0.000 C 
BRANCH  20  21
ATOM     21  C   UNL     1       2.449   7.823  18.799  0.00  0.00    +0.000 A 
ATOM     22  C   UNL     1       1.879   7.614  20.060  0.00  0.00    +0.000 A 
ATOM     23  C   UNL     1       1.816   6.335  20.615  0.00  0.00    +0.000 A 
ATOM     24  C   UNL     1       2.289   5.211  19.918  0.00  0.00    +0.000 A 
ATOM     25  C   UNL     1       2.894   5.442  18.670  0.00  0.00    +0.000 A 
ATOM     26  C   UNL     1       2.965   6.726  18.112  0.00  0.00    +0.000 A 
BRANCH  24  27
ATOM     27  C   UNL     1       2.214   3.809  20.535  0.00  0.00    +0.000 C 
ATOM     28  C   UNL     1       0.919   3.027  20.214  0.00  0.00    +0.000 C 
ATOM     29  C   UNL     1       0.844   2.599  18.748  0.00  0.00    +0.000 C 
ATOM     30  C   UNL     1       2.068   1.796  18.315  0.00  0.00    +0.000 C 
ATOM     31  C   UNL     1       3.390   2.436  18.726  0.00  0.00    +0.000 C 
ATOM     32  C   UNL     1       3.397   2.875  20.191  0.00  0.00    +0.000 C 
ENDBRANCH  24  27
ENDBRANCH  20  21
ENDBRANCH   4  20
BRANCH  10  33
ATOM     33  C   UNL     1      -3.794   9.884  16.732  0.00  0.00    +0.000 C 
BRANCH  33  34
ATOM     34  C   UNL     1      -3.614  10.326  15.305  0.00  0.00    +0.000 C 
ATOM     35  O   UNL     1      -2.756  11.088  14.882  0.00  0.00    +0.000 OA
BRANCH  34  36
ATOM     36  O   UNL     1      -4.531   9.776  14.470  0.00  0.00    +0.000 OA
ATOM     37  H   UNL     1      -5.089  10.413  13.977  0.00  0.00    +0.000 HD
ENDBRANCH  34  36
ENDBRANCH  33  34
ENDBRANCH  10  33
TORSDOF 9
ENDMDL
MODEL 6
REMARK VINA RESULT:      -8.3      1.245      2.266
REMARK  Name = 
REMARK  10 active torsions:
REMARK  status: ('A' for Active; 'I' for Inactive)
REMARK    1  A    between atoms: C_1  and  N_2
REMARK    2  A    between atoms: N_2  and  C_3
REMARK    3  A    between atoms: N_2  and  C_9
REMARK    4  A    between atoms: C_3  and  C_4
REMARK    5  A    between atoms: N_12  and  C_13
REMARK    6  A    between atoms: C_13  and  C_14
REMARK    7  A    between atoms: C_17  and  C_18
REMARK    8  A    between atoms: N_31  and  C_32
REMARK    9  A    between atoms: C_32  and  C_33
REMARK   10  A    between atoms: C_33  and  O_35
REMARK                            x       y       z     vdW  Elec       q    Type
REMARK                         _______ _______ _______ _____ _____    ______ ____
ROOT
ATOM      1  C   UNL     1       5.344   5.279  18.377  0.00  0.00    +0.000 A 
ATOM      2  N   UNL     1       4.488   6.344  18.264  0.00  0.00    +0.000 NA
ATOM      3  C   UNL     1       3.173   6.227  18.527  0.00  0.00    +0.000 A 
ATOM      4  N   UNL     1       2.378   7.353  18.528  0.00  0.00    +0.000 N 
ATOM      5  N   UNL     1       2.541   5.097  18.859  0.00  0.00    +0.000 NA
ATOM      6  C   UNL     1       3.380   4.056  18.946  0.00  0.00    +0.000 A 
ATOM      7  C   UNL     1       4.748   4.047  18.740  0.00  0.00    +0.000 A 
ATOM      8  N   UNL     1       5.243   2.774  18.956  0.00  0.00    +0.000 NA
ATOM      9  C   UNL     1       4.206   2.048  19.319  0.00  0.00    +0.000 A 
ATOM     10  N   UNL     1       3.049   2.776  19.302  0.00  0.00    +0.000 N 
ATOM     11  H   UNL     1       1.404   7.092  18.499  0.00  0.00    +0.000 HD
ENDROOT
BRANCH   1  13
ATOM     12  C   UNL     1       7.439   6.243  19.103  0.00  0.00    +0.000 C 
ATOM     13  N   UNL     1       6.697   5.486  18.110  0.00  0.00    +0.000 N 
BRANCH  13  14
ATOM     14  C   UNL     1       7.433   4.558  17.250  0.00  0.00    +0.000 C 
BRANCH  14  15
ATOM     15  C   UNL     1       7.013   4.436  15.819  0.00  0.00    +0.000 A 
ATOM     16  C   UNL     1       6.025   3.698  15.195  0.00  0.00    +0.000 A 
ATOM     17  C   UNL     1       6.064   4.046  13.825  0.00  0.00    +0.000 A 
ATOM     18  C   UNL     1       7.068   4.977  13.698  0.00  0.00    +0.000 A 
ATOM     19  O   UNL     1       7.645   5.226  14.902  0.00  0.00    +0.000 OA
ENDBRANCH  14  15
ENDBRANCH  13  14
ENDBRANCH   1  13
BRANCH   4  20
ATOM     20  C   UNL     1       2.766   8.467  17.696  0.00  0.00    +0.000 C 
BRANCH  20  21
ATOM     21  C   UNL     1       1.938   9.664  18.098  0.00  0.00    +0.000 A 
ATOM     22  C   UNL     1       0.654   9.477  18.621  0.00  0.00    +0.000 A 
ATOM     23  C   UNL     1      -0.130  10.567  19.005  0.00  0.00    +0.000 A 
ATOM     24  C   UNL     1       0.352  11.882  18.914  0.00  0.00    +0.000 A 
ATOM     25  C   UNL     1       1.629  12.057  18.350  0.00  0.00    +0.000 A 
ATOM     26  C   UNL     1       2.415  10.966  17.957  0.00  0.00    +0.000 A 
BRANCH  24  27
ATOM     27  C   UNL     1      -0.514  13.073  19.341  0.00  0.00    +0.000 C 
ATOM     28  C   UNL     1      -0.582  13.314  20.868  0.00  0.00    +0.000 C 
ATOM     29  C   UNL     1       0.743  13.822  21.438  0.00  0.00    +0.000 C 
ATOM     30  C   UNL     1       1.236  15.079  20.727  0.00  0.00    +0.000 C 
ATOM     31  C   UNL     1       1.195  14.972  19.205  0.00  0.00    +0.000 C 
ATOM     32  C   UNL     1      -0.138  14.426  18.692  0.00  0.00    +0.000 C 
ENDBRANCH  24  27
ENDBRANCH  20  21
ENDBRANCH   4  20
BRANCH  10  33
ATOM     33  C   UNL     1       1.714   2.384  19.727  0.00  0.00    +0.000 C 
BRANCH  33  34
ATOM     34  C   UNL     1       1.194   3.022  20.987  0.00  0.00    +0.000 C 
ATOM     35  O   UNL     1       1.356   2.615  22.129  0.00  0.00    +0.000 OA
BRANCH  34  36
ATOM     36  O   UNL     1       0.490   4.156  20.744  0.00  0.00    +0.000 OA
ATOM     37  H   UNL     1       1.011   4.912  20.404  0.00  0.00    +0.000 HD
ENDBRANCH  34  36
ENDBRANCH  33  34
ENDBRANCH  10  33
TORSDOF 9
ENDMDL
MODEL 7
REMARK VINA RESULT:      -8.2      4.634      9.457
REMARK  Name = 
REMARK  10 active torsions:
REMARK  status: ('A' for Active; 'I' for Inactive)
REMARK    1  A    between atoms: C_1  and  N_2
REMARK    2  A    between atoms: N_2  and  C_3
REMARK    3  A    between atoms: N_2  and  C_9
REMARK    4  A    between atoms: C_3  and  C_4
REMARK    5  A    between atoms: N_12  and  C_13
REMARK    6  A    between atoms: C_13  and  C_14
REMARK    7  A    between atoms: C_17  and  C_18
REMARK    8  A    between atoms: N_31  and  C_32
REMARK    9  A    between atoms: C_32  and  C_33
REMARK   10  A    between atoms: C_33  and  O_35
REMARK                            x       y       z     vdW  Elec       q    Type
REMARK                         _______ _______ _______ _____ _____    ______ ____
ROOT
ATOM      1  C   UNL     1      -0.313  11.559  19.758  0.00  0.00    +0.000 A 
ATOM      2  N   UNL     1       0.624  10.737  19.187  0.00  0.00    +0.000 NA
ATOM      3  C   UNL     1       0.325   9.937  18.147  0.00  0.00    +0.000 A 
ATOM      4  N   UNL     1       1.329   9.230  17.524  0.00  0.00    +0.000 N 
ATOM      5  N   UNL     1      -0.884   9.796  17.594  0.00  0.00    +0.000 NA
ATOM      6  C   UNL     1      -1.799  10.587  18.170  0.00  0.00    +0.000 A 
ATOM      7  C   UNL     1      -1.618  11.475  19.214  0.00  0.00    +0.000 A 
ATOM      8  N   UNL     1      -2.811  12.117  19.492  0.00  0.00    +0.000 NA
ATOM      9  C   UNL     1      -3.675  11.651  18.615  0.00  0.00    +0.000 A 
ATOM     10  N   UNL     1      -3.114  10.701  17.808  0.00  0.00    +0.000 N 
ATOM     11  H   UNL     1       0.937   8.508  16.939  0.00  0.00    +0.000 HD
ENDROOT
BRANCH   1  13
ATOM     12  C   UNL     1      -0.453  12.035  22.125  0.00  0.00    +0.000 C 
ATOM     13  N   UNL     1       0.081  12.376  20.818  0.00  0.00    +0.000 N 
BRANCH  13  14
ATOM     14  C   UNL     1       1.341  13.118  20.753  0.00  0.00    +0.000 C 
BRANCH  14  15
ATOM     15  C   UNL     1       1.343  14.447  20.065  0.00  0.00    +0.000 A 
ATOM     16  C   UNL     1       0.898  14.857  18.823  0.00  0.00    +0.000 A 
ATOM     17  C   UNL     1       1.111  16.254  18.756  0.00  0.00    +0.000 A 
ATOM     18  C   UNL     1       1.668  16.610  19.961  0.00  0.00    +0.000 A 
ATOM     19  O   UNL     1       1.807  15.524  20.766  0.00  0.00    +0.000 OA
ENDBRANCH  14  15
ENDBRANCH  13  14
ENDBRANCH   1  13
BRANCH   4  20
ATOM     20  C   UNL     1       2.491   8.861  18.299  0.00  0.00    +0.000 C 
BRANCH  20  21
ATOM     21  C   UNL     1       2.294   7.451  18.800  0.00  0.00    +0.000 A 
ATOM     22  C   UNL     1       2.354   6.379  17.902  0.00  0.00    +0.000 A 
ATOM     23  C   UNL     1       2.181   5.065  18.341  0.00  0.00    +0.000 A 
ATOM     24  C   UNL     1       1.975   4.769  19.698  0.00  0.00    +0.000 A 
ATOM     25  C   UNL     1       1.878   5.859  20.582  0.00  0.00    +0.000 A 
ATOM     26  C   UNL     1       2.044   7.179  20.144  0.00  0.00    +0.000 A 
BRANCH  24  27
ATOM     27  C   UNL     1       1.789   3.322  20.172  0.00  0.00    +0.000 C 
ATOM     28  C   UNL     1       1.262   2.347  19.093  0.00  0.00    +0.000 C 
ATOM     29  C   UNL     1       2.299   2.063  18.006  0.00  0.00    +0.000 C 
ATOM     30  C   UNL     1       3.617   1.552  18.582  0.00  0.00    +0.000 C 
ATOM     31  C   UNL     1       4.131   2.383  19.754  0.00  0.00    +0.000 C 
ATOM     32  C   UNL     1       3.044   2.666  20.792  0.00  0.00    +0.000 C 
ENDBRANCH  24  27
ENDBRANCH  20  21
ENDBRANCH   4  20
BRANCH  10  33
ATOM     33  C   UNL     1      -3.689  10.021  16.659  0.00  0.00    +0.000 C 
BRANCH  33  34
ATOM     34  C   UNL     1      -3.311  10.551  15.302  0.00  0.00    +0.000 C 
ATOM     35  O   UNL     1      -2.790   9.919  14.394  0.00  0.00    +0.000 OA
BRANCH  34  36
ATOM     36  O   UNL     1      -3.614  11.865  15.153  0.00  0.00    +0.000 OA
ATOM     37  H   UNL     1      -3.560  12.406  15.967  0.00  0.00    +0.000 HD
ENDBRANCH  34  36
ENDBRANCH  33  34
ENDBRANCH  10  33
TORSDOF 9
ENDMDL
MODEL 8
REMARK VINA RESULT:      -8.2      1.671      2.598
REMARK  Name = 
REMARK  10 active torsions:
REMARK  status: ('A' for Active; 'I' for Inactive)
REMARK    1  A    between atoms: C_1  and  N_2
REMARK    2  A    between atoms: N_2  and  C_3
REMARK    3  A    between atoms: N_2  and  C_9
REMARK    4  A    between atoms: C_3  and  C_4
REMARK    5  A    between atoms: N_12  and  C_13
REMARK    6  A    between atoms: C_13  and  C_14
REMARK    7  A    between atoms: C_17  and  C_18
REMARK    8  A    between atoms: N_31  and  C_32
REMARK    9  A    between atoms: C_32  and  C_33
REMARK   10  A    between atoms: C_33  and  O_35
REMARK                            x       y       z     vdW  Elec       q    Type
REMARK                         _______ _______ _______ _____ _____    ______ ____
ROOT
ATOM      1  C   UNL     1       4.069   5.256  17.107  0.00  0.00    +0.000 A 
ATOM      2  N   UNL     1       3.488   6.340  17.714  0.00  0.00    +0.000 NA
ATOM      3  C   UNL     1       2.643   6.201  18.753  0.00  0.00    +0.000 A 
ATOM      4  N   UNL     1       2.190   7.323  19.412  0.00  0.00    +0.000 N 
ATOM      5  N   UNL     1       2.227   5.041  19.272  0.00  0.00    +0.000 NA
ATOM      6  C   UNL     1       2.783   3.986  18.660  0.00  0.00    +0.000 A 
ATOM      7  C   UNL     1       3.686   3.990  17.613  0.00  0.00    +0.000 A 
ATOM      8  N   UNL     1       4.033   2.690  17.293  0.00  0.00    +0.000 NA
ATOM      9  C   UNL     1       3.382   1.930  18.149  0.00  0.00    +0.000 A 
ATOM     10  N   UNL     1       2.590   2.670  18.981  0.00  0.00    +0.000 N 
ATOM     11  H   UNL     1       1.398   7.090  19.993  0.00  0.00    +0.000 HD
ENDROOT
BRANCH   1  13
ATOM     12  C   UNL     1       5.110   6.864  15.632  0.00  0.00    +0.000 C 
ATOM     13  N   UNL     1       4.952   5.482  16.052  0.00  0.00    +0.000 N 
BRANCH  13  14
ATOM     14  C   UNL     1       6.044   4.545  15.785  0.00  0.00    +0.000 C 
BRANCH  14  15
ATOM     15  C   UNL     1       6.590   4.474  14.394  0.00  0.00    +0.000 A 
ATOM     16  C   UNL     1       6.223   3.738  13.283  0.00  0.00    +0.000 A 
ATOM     17  C   UNL     1       7.073   4.144  12.229  0.00  0.00    +0.000 A 
ATOM     18  C   UNL     1       7.902   5.105  12.758  0.00  0.00    +0.000 A 
ATOM     19  O   UNL     1       7.613   5.318  14.069  0.00  0.00    +0.000 OA
ENDBRANCH  14  15
ENDBRANCH  13  14
ENDBRANCH   1  13
BRANCH   4  20
ATOM     20  C   UNL     1       2.099   8.561  18.676  0.00  0.00    +0.000 C 
BRANCH  20  21
ATOM     21  C   UNL     1       1.088   9.446  19.367  0.00  0.00    +0.000 A 
ATOM     22  C   UNL     1       0.971   9.410  20.762  0.00  0.00    +0.000 A 
ATOM     23  C   UNL     1       0.049  10.221  21.425  0.00  0.00    +0.000 A 
ATOM     24  C   UNL     1      -0.767  11.124  20.725  0.00  0.00    +0.000 A 
ATOM     25  C   UNL     1      -0.667  11.119  19.322  0.00  0.00    +0.000 A 
ATOM     26  C   UNL     1       0.253  10.302  18.652  0.00  0.00    +0.000 A 
BRANCH  24  27
ATOM     27  C   UNL     1      -1.776  12.013  21.462  0.00  0.00    +0.000 C 
ATOM     28  C   UNL     1      -1.220  12.723  22.719  0.00  0.00    +0.000 C 
ATOM     29  C   UNL     1      -0.211  13.819  22.372  0.00  0.00    +0.000 C 
ATOM     30  C   UNL     1      -0.781  14.843  21.395  0.00  0.00    +0.000 C 
ATOM     31  C   UNL     1      -1.479  14.214  20.193  0.00  0.00    +0.000 C 
ATOM     32  C   UNL     1      -2.449  13.102  20.595  0.00  0.00    +0.000 C 
ENDBRANCH  24  27
ENDBRANCH  20  21
ENDBRANCH   4  20
BRANCH  10  33
ATOM     33  C   UNL     1       1.798   2.232  20.120  0.00  0.00    +0.000 C 
BRANCH  33  34
ATOM     34  C   UNL     1       2.368   2.512  21.485  0.00  0.00    +0.000 C 
ATOM     35  O   UNL     1       1.790   3.053  22.417  0.00  0.00    +0.000 OA
BRANCH  34  36
ATOM     36  O   UNL     1       3.650   2.086  21.612  0.00  0.00    +0.000 OA
ATOM     37  H   UNL     1       3.812   1.442  22.331  0.00  0.00    +0.000 HD
ENDBRANCH  34  36
ENDBRANCH  33  34
ENDBRANCH  10  33
TORSDOF 9
ENDMDL
MODEL 9
REMARK VINA RESULT:      -8.2      1.180      2.109
REMARK  Name = 
REMARK  10 active torsions:
REMARK  status: ('A' for Active; 'I' for Inactive)
REMARK    1  A    between atoms: C_1  and  N_2
REMARK    2  A    between atoms: N_2  and  C_3
REMARK    3  A    between atoms: N_2  and  C_9
REMARK    4  A    between atoms: C_3  and  C_4
REMARK    5  A    between atoms: N_12  and  C_13
REMARK    6  A    between atoms: C_13  and  C_14
REMARK    7  A    between atoms: C_17  and  C_18
REMARK    8  A    between atoms: N_31  and  C_32
REMARK    9  A    between atoms: C_32  and  C_33
REMARK   10  A    between atoms: C_33  and  O_35
REMARK                            x       y       z     vdW  Elec       q    Type
REMARK                         _______ _______ _______ _____ _____    ______ ____
ROOT
ATOM      1  C   UNL     1       5.337   5.274  18.355  0.00  0.00    +0.000 A 
ATOM      2  N   UNL     1       4.457   6.312  18.188  0.00  0.00    +0.000 NA
ATOM      3  C   UNL     1       3.144   6.176  18.447  0.00  0.00    +0.000 A 
ATOM      4  N   UNL     1       2.323   7.281  18.391  0.00  0.00    +0.000 N 
ATOM      5  N   UNL     1       2.536   5.047  18.826  0.00  0.00    +0.000 NA
ATOM      6  C   UNL     1       3.398   4.032  18.967  0.00  0.00    +0.000 A 
ATOM      7  C   UNL     1       4.767   4.046  18.770  0.00  0.00    +0.000 A 
ATOM      8  N   UNL     1       5.290   2.797  19.049  0.00  0.00    +0.000 NA
ATOM      9  C   UNL     1       4.268   2.064  19.437  0.00  0.00    +0.000 A 
ATOM     10  N   UNL     1       3.095   2.762  19.379  0.00  0.00    +0.000 N 
ATOM     11  H   UNL     1       1.355   6.996  18.367  0.00  0.00    +0.000 HD
ENDROOT
BRANCH   1  13
ATOM     12  C   UNL     1       7.417   6.271  19.079  0.00  0.00    +0.000 C 
ATOM     13  N   UNL     1       6.687   5.500  18.088  0.00  0.00    +0.000 N 
BRANCH  13  14
ATOM     14  C   UNL     1       7.438   4.581  17.230  0.00  0.00    +0.000 C 
BRANCH  14  15
ATOM     15  C   UNL     1       7.016   4.445  15.801  0.00  0.00    +0.000 A 
ATOM     16  C   UNL     1       6.017   3.713  15.188  0.00  0.00    +0.000 A 
ATOM     17  C   UNL     1       6.062   4.040  13.812  0.00  0.00    +0.000 A 
ATOM     18  C   UNL     1       7.080   4.952  13.672  0.00  0.00    +0.000 A 
ATOM     19  O   UNL     1       7.662   5.211  14.873  0.00  0.00    +0.000 OA
ENDBRANCH  14  15
ENDBRANCH  13  14
ENDBRANCH   1  13
BRANCH   4  20
ATOM     20  C   UNL     1       2.691   8.364  17.510  0.00  0.00    +0.000 C 
BRANCH  20  21
ATOM     21  C   UNL     1       1.982   9.613  17.980  0.00  0.00    +0.000 A 
ATOM     22  C   UNL     1       0.659   9.534  18.429  0.00  0.00    +0.000 A 
ATOM     23  C   UNL     1      -0.016  10.672  18.874  0.00  0.00    +0.000 A 
ATOM     24  C   UNL     1       0.615  11.925  18.919  0.00  0.00    +0.000 A 
ATOM     25  C   UNL     1       1.931  11.996  18.427  0.00  0.00    +0.000 A 
ATOM     26  C   UNL     1       2.609  10.857  17.974  0.00  0.00    +0.000 A 
BRANCH  24  27
ATOM     27  C   UNL     1      -0.134  13.170  19.412  0.00  0.00    +0.000 C 
ATOM     28  C   UNL     1      -1.676  13.048  19.400  0.00  0.00    +0.000 C 
ATOM     29  C   UNL     1      -2.192  12.078  20.463  0.00  0.00    +0.000 C 
ATOM     30  C   UNL     1      -1.700  12.435  21.863  0.00  0.00    +0.000 C 
ATOM     31  C   UNL     1      -0.202  12.714  21.928  0.00  0.00    +0.000 C 
ATOM     32  C   UNL     1       0.265  13.663  20.822  0.00  0.00    +0.000 C 
ENDBRANCH  24  27
ENDBRANCH  20  21
ENDBRANCH   4  20
BRANCH  10  33
ATOM     33  C   UNL     1       1.766   2.359  19.814  0.00  0.00    +0.000 C 
BRANCH  33  34
ATOM     34  C   UNL     1       1.240   3.008  21.065  0.00  0.00    +0.000 C 
ATOM     35  O   UNL     1       1.409   2.620  22.212  0.00  0.00    +0.000 OA
BRANCH  34  36
ATOM     36  O   UNL     1       0.521   4.130  20.807  0.00  0.00    +0.000 OA
ATOM     37  H   UNL     1      -0.190   4.333  21.448  0.00  0.00    +0.000 HD
ENDBRANCH  34  36
ENDBRANCH  33  34
ENDBRANCH  10  33
TORSDOF 9
ENDMDL
