MODEL 1
REMARK VINA RESULT:      -7.6      0.000      0.000
REMARK  Name = 
REMARK  9 active torsions:
REMARK  status: ('A' for Active; 'I' for Inactive)
REMARK    1  A    between atoms: C_1  and  N_2
REMARK    2  A    between atoms: N_2  and  C_3
REMARK    3  A    between atoms: N_2  and  C_4
REMARK    4  A    between atoms: C_4  and  C_5
REMARK    5  A    between atoms: C_5  and  C_6
REMARK    6  A    between atoms: C_6  and  N_7
REMARK    7  A    between atoms: C_10  and  N_11
REMARK    8  A    between atoms: N_11  and  C_12
REMARK    9  A    between atoms: N_15  and  C_16
REMARK                            x       y       z     vdW  Elec       q    Type
REMARK                         _______ _______ _______ _____ _____    ______ ____
ROOT
ATOM      1  N   UNL     1       7.655   8.736  17.448  0.00  0.00    +0.000 N 
ATOM      2  C   UNL     1       7.619   7.382  17.825  0.00  0.00    +0.000 A 
ATOM      3  C   UNL     1       6.748   6.538  17.169  0.00  0.00    +0.000 A 
ATOM      4  C   UNL     1       6.629   5.252  17.653  0.00  0.00    +0.000 A 
ATOM      5  N   UNL     1       7.316   4.813  18.720  0.00  0.00    +0.000 NA
ATOM      6  C   UNL     1       8.171   5.689  19.257  0.00  0.00    +0.000 A 
ATOM      7  N   UNL     1       8.351   6.957  18.866  0.00  0.00    +0.000 NA
ATOM      8  H   UNL     1       7.432   8.842  16.464  0.00  0.00    +0.000 HD
ENDROOT
BRANCH   4   9
ATOM      9  N   UNL     1       5.751   4.351  17.015  0.00  0.00    +0.000 N 
ATOM     10  C   UNL     1       6.107   3.933  15.665  0.00  0.00    +0.000 C 
ATOM     11  C   UNL     1       4.629   3.785  17.601  0.00  0.00    +0.000 C 
ATOM     12  O   UNL     1       3.930   2.968  17.001  0.00  0.00    +0.000 OA
ATOM     13  N   UNL     1       4.311   4.276  18.859  0.00  0.00    +0.000 N 
ATOM     14  H   UNL     1       4.435   5.283  18.913  0.00  0.00    +0.000 HD
BRANCH  13  15
ATOM     15  C   UNL     1       3.155   3.796  19.533  0.00  0.00    +0.000 A 
ATOM     16  C   UNL     1       1.880   4.361  19.354  0.00  0.00    +0.000 A 
ATOM     17 CL   UNL     1       1.543   5.520  18.111  0.00  0.00    +0.000 Cl
ATOM     18  C   UNL     1       0.799   3.922  20.126  0.00  0.00    +0.000 A 
ATOM     19  C   UNL     1       0.971   2.903  21.063  0.00  0.00    +0.000 A 
ATOM     20  C   UNL     1       2.217   2.295  21.206  0.00  0.00    +0.000 A 
ATOM     21  C   UNL     1       3.298   2.727  20.435  0.00  0.00    +0.000 A 
ATOM     22 CL   UNL     1       4.830   1.956  20.667  0.00  0.00    +0.000 Cl
ENDBRANCH  13  15
ENDBRANCH   4   9
BRANCH   1  23
ATOM     23  C   UNL     1       8.911   9.399  17.795  0.00  0.00    +0.000 C 
BRANCH  23  24
ATOM     24  C   UNL     1       8.615  10.801  18.309  0.00  0.00    +0.000 C 
BRANCH  24  25
ATOM     25  C   UNL     1       9.657  11.235  19.346  0.00  0.00    +0.000 C 
BRANCH  25  27
ATOM     26  C   UNL     1      10.907  12.435  17.663  0.00  0.00    +0.000 C 
ATOM     27  N   UNL     1      10.998  11.475  18.766  0.00  0.00    +0.000 NA
ATOM     28  C   UNL     1      11.958  11.962  19.758  0.00  0.00    +0.000 C 
ENDBRANCH  25  27
ENDBRANCH  24  25
ENDBRANCH  23  24
ENDBRANCH   1  23
TORSDOF 6
ENDMDL
MODEL 2
REMARK VINA RESULT:      -7.2      1.058      2.002
REMARK  Name = 
REMARK  9 active torsions:
REMARK  status: ('A' for Active; 'I' for Inactive)
REMARK    1  A    between atoms: C_1  and  N_2
REMARK    2  A    between atoms: N_2  and  C_3
REMARK    3  A    between atoms: N_2  and  C_4
REMARK    4  A    between atoms: C_4  and  C_5
REMARK    5  A    between atoms: C_5  and  C_6
REMARK    6  A    between atoms: C_6  and  N_7
REMARK    7  A    between atoms: C_10  and  N_11
REMARK    8  A    between atoms: N_11  and  C_12
REMARK    9  A    between atoms: N_15  and  C_16
REMARK                            x       y       z     vdW  Elec       q    Type
REMARK                         _______ _______ _______ _____ _____    ______ ____
ROOT
ATOM      1  N   UNL     1       7.880   9.470  17.884  0.00  0.00    +0.000 N 
ATOM      2  C   UNL     1       7.718   8.080  18.019  0.00  0.00    +0.000 A 
ATOM      3  C   UNL     1       6.710   7.462  17.309  0.00  0.00    +0.000 A 
ATOM      4  C   UNL     1       6.482   6.126  17.569  0.00  0.00    +0.000 A 
ATOM      5  N   UNL     1       7.191   5.433  18.474  0.00  0.00    +0.000 NA
ATOM      6  C   UNL     1       8.178   6.106  19.074  0.00  0.00    +0.000 A 
ATOM      7  N   UNL     1       8.471   7.400  18.897  0.00  0.00    +0.000 NA
ATOM      8  H   UNL     1       7.598   9.777  16.958  0.00  0.00    +0.000 HD
ENDROOT
BRANCH   4   9
ATOM      9  N   UNL     1       5.462   5.449  16.868  0.00  0.00    +0.000 N 
ATOM     10  C   UNL     1       5.592   5.392  15.417  0.00  0.00    +0.000 C 
ATOM     11  C   UNL     1       4.401   4.780  17.458  0.00  0.00    +0.000 C 
ATOM     12  O   UNL     1       3.569   4.170  16.787  0.00  0.00    +0.000 OA
ATOM     13  N   UNL     1       4.302   4.932  18.834  0.00  0.00    +0.000 N 
ATOM     14  H   UNL     1       4.500   5.886  19.122  0.00  0.00    +0.000 HD
BRANCH  13  15
ATOM     15  C   UNL     1       3.225   4.323  19.535  0.00  0.00    +0.000 A 
ATOM     16  C   UNL     1       3.185   2.947  19.820  0.00  0.00    +0.000 A 
ATOM     17 CL   UNL     1       4.549   1.907  19.579  0.00  0.00    +0.000 Cl
ATOM     18  C   UNL     1       2.050   2.383  20.414  0.00  0.00    +0.000 A 
ATOM     19  C   UNL     1       0.959   3.184  20.749  0.00  0.00    +0.000 A 
ATOM     20  C   UNL     1       1.013   4.559  20.526  0.00  0.00    +0.000 A 
ATOM     21  C   UNL     1       2.145   5.127  19.938  0.00  0.00    +0.000 A 
ATOM     22 CL   UNL     1       2.153   6.835  19.659  0.00  0.00    +0.000 Cl
ENDBRANCH  13  15
ENDBRANCH   4   9
BRANCH   1  23
ATOM     23  C   UNL     1       9.226   9.931  18.222  0.00  0.00    +0.000 C 
BRANCH  23  24
ATOM     24  C   UNL     1       9.329  11.425  17.949  0.00  0.00    +0.000 C 
BRANCH  24  25
ATOM     25  C   UNL     1      10.795  11.870  17.885  0.00  0.00    +0.000 C 
BRANCH  25  27
ATOM     26  C   UNL     1       9.982  13.275  19.673  0.00  0.00    +0.000 C 
ATOM     27  N   UNL     1      11.094  13.033  18.750  0.00  0.00    +0.000 NA
ATOM     28  C   UNL     1      12.331  12.860  19.513  0.00  0.00    +0.000 C 
ENDBRANCH  25  27
ENDBRANCH  24  25
ENDBRANCH  23  24
ENDBRANCH   1  23
TORSDOF 6
ENDMDL
MODEL 3
REMARK VINA RESULT:      -6.9      6.934      9.859
REMARK  Name = 
REMARK  9 active torsions:
REMARK  status: ('A' for Active; 'I' for Inactive)
REMARK    1  A    between atoms: C_1  and  N_2
REMARK    2  A    between atoms: N_2  and  C_3
REMARK    3  A    between atoms: N_2  and  C_4
REMARK    4  A    between atoms: C_4  and  C_5
REMARK    5  A    between atoms: C_5  and  C_6
REMARK    6  A    between atoms: C_6  and  N_7
REMARK    7  A    between atoms: C_10  and  N_11
REMARK    8  A    between atoms: N_11  and  C_12
REMARK    9  A    between atoms: N_15  and  C_16
REMARK                            x       y       z     vdW  Elec       q    Type
REMARK                         _______ _______ _______ _____ _____    ______ ____
ROOT
ATOM      1  N   UNL     1       2.753   7.199  18.563  0.00  0.00    +0.000 N 
ATOM      2  C   UNL     1       1.957   8.122  19.264  0.00  0.00    +0.000 A 
ATOM      3  C   UNL     1       1.668   9.331  18.666  0.00  0.00    +0.000 A 
ATOM      4  C   UNL     1       1.009  10.272  19.429  0.00  0.00    +0.000 A 
ATOM      5  N   UNL     1       0.655  10.051  20.706  0.00  0.00    +0.000 NA
ATOM      6  C   UNL     1       0.934   8.832  21.180  0.00  0.00    +0.000 A 
ATOM      7  N   UNL     1       1.576   7.858  20.523  0.00  0.00    +0.000 NA
ATOM      8  H   UNL     1       2.615   7.293  17.562  0.00  0.00    +0.000 HD
ENDROOT
BRANCH   4   9
ATOM      9  N   UNL     1       0.690  11.524  18.863  0.00  0.00    +0.000 N 
ATOM     10  C   UNL     1       1.798  12.446  18.646  0.00  0.00    +0.000 C 
ATOM     11  C   UNL     1      -0.573  11.905  18.435  0.00  0.00    +0.000 C 
ATOM     12  O   UNL     1      -0.772  12.998  17.906  0.00  0.00    +0.000 OA
ATOM     13  N   UNL     1      -1.590  11.009  18.733  0.00  0.00    +0.000 N 
ATOM     14  H   UNL     1      -1.486  10.618  19.665  0.00  0.00    +0.000 HD
BRANCH  13  15
ATOM     15  C   UNL     1      -2.931  11.320  18.377  0.00  0.00    +0.000 A 
ATOM     16  C   UNL     1      -3.493  10.958  17.140  0.00  0.00    +0.000 A 
ATOM     17 CL   UNL     1      -2.702   9.881  16.038  0.00  0.00    +0.000 Cl
ATOM     18  C   UNL     1      -4.780  11.387  16.798  0.00  0.00    +0.000 A 
ATOM     19  C   UNL     1      -5.526  12.157  17.691  0.00  0.00    +0.000 A 
ATOM     20  C   UNL     1      -5.001  12.471  18.943  0.00  0.00    +0.000 A 
ATOM     21  C   UNL     1      -3.718  12.041  19.291  0.00  0.00    +0.000 A 
ATOM     22 CL   UNL     1      -3.103  12.476  20.848  0.00  0.00    +0.000 Cl
ENDBRANCH  13  15
ENDBRANCH   4   9
BRANCH   1  23
ATOM     23  C   UNL     1       2.568   5.820  19.010  0.00  0.00    +0.000 C 
BRANCH  23  24
ATOM     24  C   UNL     1       1.976   4.998  17.873  0.00  0.00    +0.000 C 
BRANCH  24  25
ATOM     25  C   UNL     1       1.472   3.643  18.382  0.00  0.00    +0.000 C 
BRANCH  25  27
ATOM     26  C   UNL     1       1.721   2.527  20.510  0.00  0.00    +0.000 C 
ATOM     27  N   UNL     1       2.419   2.970  19.299  0.00  0.00    +0.000 NA
ATOM     28  C   UNL     1       3.086   1.826  18.675  0.00  0.00    +0.000 C 
ENDBRANCH  25  27
ENDBRANCH  24  25
ENDBRANCH  23  24
ENDBRANCH   1  23
TORSDOF 6
ENDMDL
MODEL 4
REMARK VINA RESULT:      -6.9      1.340      2.291
REMARK  Name = 
REMARK  9 active torsions:
REMARK  status: ('A' for Active; 'I' for Inactive)
REMARK    1  A    between atoms: C_1  and  N_2
REMARK    2  A    between atoms: N_2  and  C_3
REMARK    3  A    between atoms: N_2  and  C_4
REMARK    4  A    between atoms: C_4  and  C_5
REMARK    5  A    between atoms: C_5  and  C_6
REMARK    6  A    between atoms: C_6  and  N_7
REMARK    7  A    between atoms: C_10  and  N_11
REMARK    8  A    between atoms: N_11  and  C_12
REMARK    9  A    between atoms: N_15  and  C_16
REMARK                            x       y       z     vdW  Elec       q    Type
REMARK                         _______ _______ _______ _____ _____    ______ ____
ROOT
ATOM      1  N   UNL     1       8.026   9.160  17.995  0.00  0.00    +0.000 N 
ATOM      2  C   UNL     1       7.925   7.766  18.149  0.00  0.00    +0.000 A 
ATOM      3  C   UNL     1       7.198   7.052  17.220  0.00  0.00    +0.000 A 
ATOM      4  C   UNL     1       6.994   5.711  17.472  0.00  0.00    +0.000 A 
ATOM      5  N   UNL     1       7.468   5.100  18.571  0.00  0.00    +0.000 NA
ATOM      6  C   UNL     1       8.201   5.865  19.386  0.00  0.00    +0.000 A 
ATOM      7  N   UNL     1       8.446   7.172  19.233  0.00  0.00    +0.000 NA
ATOM      8  H   UNL     1       7.994   9.417  17.014  0.00  0.00    +0.000 HD
ENDROOT
BRANCH   4   9
ATOM      9  N   UNL     1       6.258   4.937  16.551  0.00  0.00    +0.000 N 
ATOM     10  C   UNL     1       6.814   4.810  15.209  0.00  0.00    +0.000 C 
ATOM     11  C   UNL     1       5.098   4.238  16.849  0.00  0.00    +0.000 C 
ATOM     12  O   UNL     1       4.529   3.544  16.006  0.00  0.00    +0.000 OA
ATOM     13  N   UNL     1       4.589   4.457  18.121  0.00  0.00    +0.000 N 
ATOM     14  H   UNL     1       4.653   5.435  18.388  0.00  0.00    +0.000 HD
BRANCH  13  15
ATOM     15  C   UNL     1       3.379   3.823  18.515  0.00  0.00    +0.000 A 
ATOM     16  C   UNL     1       3.341   2.521  19.046  0.00  0.00    +0.000 A 
ATOM     17 CL   UNL     1       4.773   1.664  19.511  0.00  0.00    +0.000 Cl
ATOM     18  C   UNL     1       2.114   1.905  19.313  0.00  0.00    +0.000 A 
ATOM     19  C   UNL     1       0.919   2.584  19.077  0.00  0.00    +0.000 A 
ATOM     20  C   UNL     1       0.947   3.896  18.608  0.00  0.00    +0.000 A 
ATOM     21  C   UNL     1       2.170   4.517  18.345  0.00  0.00    +0.000 A 
ATOM     22 CL   UNL     1       2.150   6.139  17.741  0.00  0.00    +0.000 Cl
ENDBRANCH  13  15
ENDBRANCH   4   9
BRANCH   1  23
ATOM     23  C   UNL     1       9.191   9.733  18.669  0.00  0.00    +0.000 C 
BRANCH  23  24
ATOM     24  C   UNL     1       9.684  10.938  17.881  0.00  0.00    +0.000 C 
BRANCH  24  25
ATOM     25  C   UNL     1       8.621  12.044  17.850  0.00  0.00    +0.000 C 
BRANCH  25  27
ATOM     26  C   UNL     1       9.071  13.848  19.392  0.00  0.00    +0.000 C 
ATOM     27  N   UNL     1       9.185  13.404  17.999  0.00  0.00    +0.000 NA
ATOM     28  C   UNL     1      10.585  13.480  17.577  0.00  0.00    +0.000 C 
ENDBRANCH  25  27
ENDBRANCH  24  25
ENDBRANCH  23  24
ENDBRANCH   1  23
TORSDOF 6
ENDMDL
MODEL 5
REMARK VINA RESULT:      -6.8      6.949      9.534
REMARK  Name = 
REMARK  9 active torsions:
REMARK  status: ('A' for Active; 'I' for Inactive)
REMARK    1  A    between atoms: C_1  and  N_2
REMARK    2  A    between atoms: N_2  and  C_3
REMARK    3  A    between atoms: N_2  and  C_4
REMARK    4  A    between atoms: C_4  and  C_5
REMARK    5  A    between atoms: C_5  and  C_6
REMARK    6  A    between atoms: C_6  and  N_7
REMARK    7  A    between atoms: C_10  and  N_11
REMARK    8  A    between atoms: N_11  and  C_12
REMARK    9  A    between atoms: N_15  and  C_16
REMARK                            x       y       z     vdW  Elec       q    Type
REMARK                         _______ _______ _______ _____ _____    ______ ____
ROOT
ATOM      1  N   UNL     1       2.758   7.364  17.932  0.00  0.00    +0.000 N 
ATOM      2  C   UNL     1       2.027   8.221  18.773  0.00  0.00    +0.000 A 
ATOM      3  C   UNL     1       1.716   9.485  18.316  0.00  0.00    +0.000 A 
ATOM      4  C   UNL     1       1.127  10.354  19.211  0.00  0.00    +0.000 A 
ATOM      5  N   UNL     1       0.862  10.013  20.483  0.00  0.00    +0.000 NA
ATOM      6  C   UNL     1       1.155   8.752  20.817  0.00  0.00    +0.000 A 
ATOM      7  N   UNL     1       1.733   7.841  20.026  0.00  0.00    +0.000 NA
ATOM      8  H   UNL     1       2.551   7.554  16.956  0.00  0.00    +0.000 HD
ENDROOT
BRANCH   4   9
ATOM      9  N   UNL     1       0.789  11.657  18.791  0.00  0.00    +0.000 N 
ATOM     10  C   UNL     1       1.890  12.598  18.625  0.00  0.00    +0.000 C 
ATOM     11  C   UNL     1      -0.489  12.078  18.458  0.00  0.00    +0.000 C 
ATOM     12  O   UNL     1      -0.708  13.220  18.054  0.00  0.00    +0.000 OA
ATOM     13  N   UNL     1      -1.495  11.154  18.703  0.00  0.00    +0.000 N 
ATOM     14  H   UNL     1      -1.355  10.669  19.584  0.00  0.00    +0.000 HD
BRANCH  13  15
ATOM     15  C   UNL     1      -2.849  11.499  18.438  0.00  0.00    +0.000 A 
ATOM     16  C   UNL     1      -3.672  12.135  19.385  0.00  0.00    +0.000 A 
ATOM     17 CL   UNL     1      -3.052  12.791  20.864  0.00  0.00    +0.000 Cl
ATOM     18  C   UNL     1      -5.027  12.349  19.111  0.00  0.00    +0.000 A 
ATOM     19  C   UNL     1      -5.568  11.956  17.887  0.00  0.00    +0.000 A 
ATOM     20  C   UNL     1      -4.748  11.380  16.918  0.00  0.00    +0.000 A 
ATOM     21  C   UNL     1      -3.394  11.168  17.186  0.00  0.00    +0.000 A 
ATOM     22 CL   UNL     1      -2.424  10.427  15.959  0.00  0.00    +0.000 Cl
ENDBRANCH  13  15
ENDBRANCH   4   9
BRANCH   1  23
ATOM     23  C   UNL     1       2.583   5.949  18.257  0.00  0.00    +0.000 C 
BRANCH  23  24
ATOM     24  C   UNL     1       3.815   5.175  17.810  0.00  0.00    +0.000 C 
BRANCH  24  25
ATOM     25  C   UNL     1       4.523   4.533  19.009  0.00  0.00    +0.000 C 
BRANCH  25  27
ATOM     26  C   UNL     1       3.358   2.820  20.251  0.00  0.00    +0.000 C 
ATOM     27  N   UNL     1       4.269   3.080  19.133  0.00  0.00    +0.000 NA
ATOM     28  C   UNL     1       3.713   2.503  17.907  0.00  0.00    +0.000 C 
ENDBRANCH  25  27
ENDBRANCH  24  25
ENDBRANCH  23  24
ENDBRANCH   1  23
TORSDOF 6
ENDMDL
MODEL 6
REMARK VINA RESULT:      -6.8      1.345      2.224
REMARK  Name = 
REMARK  9 active torsions:
REMARK  status: ('A' for Active; 'I' for Inactive)
REMARK    1  A    between atoms: C_1  and  N_2
REMARK    2  A    between atoms: N_2  and  C_3
REMARK    3  A    between atoms: N_2  and  C_4
REMARK    4  A    between atoms: C_4  and  C_5
REMARK    5  A    between atoms: C_5  and  C_6
REMARK    6  A    between atoms: C_6  and  N_7
REMARK    7  A    between atoms: C_10  and  N_11
REMARK    8  A    between atoms: N_11  and  C_12
REMARK    9  A    between atoms: N_15  and  C_16
REMARK                            x       y       z     vdW  Elec       q    Type
REMARK                         _______ _______ _______ _____ _____    ______ ____
ROOT
ATOM      1  N   UNL     1       7.978   9.568  17.822  0.00  0.00    +0.000 N 
ATOM      2  C   UNL     1       7.808   8.183  17.996  0.00  0.00    +0.000 A 
ATOM      3  C   UNL     1       6.814   7.546  17.282  0.00  0.00    +0.000 A 
ATOM      4  C   UNL     1       6.574   6.220  17.578  0.00  0.00    +0.000 A 
ATOM      5  N   UNL     1       7.261   5.552  18.519  0.00  0.00    +0.000 NA
ATOM      6  C   UNL     1       8.236   6.241  19.121  0.00  0.00    +0.000 A 
ATOM      7  N   UNL     1       8.539   7.528  18.911  0.00  0.00    +0.000 NA
ATOM      8  H   UNL     1       7.719   9.846  16.881  0.00  0.00    +0.000 HD
ENDROOT
BRANCH   4   9
ATOM      9  N   UNL     1       5.568   5.525  16.875  0.00  0.00    +0.000 N 
ATOM     10  C   UNL     1       5.716   5.445  15.427  0.00  0.00    +0.000 C 
ATOM     11  C   UNL     1       4.504   4.859  17.463  0.00  0.00    +0.000 C 
ATOM     12  O   UNL     1       3.685   4.232  16.790  0.00  0.00    +0.000 OA
ATOM     13  N   UNL     1       4.386   5.032  18.834  0.00  0.00    +0.000 N 
ATOM     14  H   UNL     1       4.574   5.991  19.110  0.00  0.00    +0.000 HD
BRANCH  13  15
ATOM     15  C   UNL     1       3.305   4.427  19.532  0.00  0.00    +0.000 A 
ATOM     16  C   UNL     1       3.257   3.051  19.814  0.00  0.00    +0.000 A 
ATOM     17 CL   UNL     1       4.616   2.004  19.573  0.00  0.00    +0.000 Cl
ATOM     18  C   UNL     1       2.118   2.491  20.403  0.00  0.00    +0.000 A 
ATOM     19  C   UNL     1       1.030   3.298  20.738  0.00  0.00    +0.000 A 
ATOM     20  C   UNL     1       1.091   4.672  20.517  0.00  0.00    +0.000 A 
ATOM     21  C   UNL     1       2.228   5.236  19.933  0.00  0.00    +0.000 A 
ATOM     22 CL   UNL     1       2.245   6.944  19.659  0.00  0.00    +0.000 Cl
ENDBRANCH  13  15
ENDBRANCH   4   9
BRANCH   1  23
ATOM     23  C   UNL     1       9.318  10.034  18.176  0.00  0.00    +0.000 C 
BRANCH  23  24
ATOM     24  C   UNL     1       9.275  10.689  19.550  0.00  0.00    +0.000 C 
BRANCH  24  25
ATOM     25  C   UNL     1       9.134  12.211  19.426  0.00  0.00    +0.000 C 
BRANCH  25  27
ATOM     26  C   UNL     1      10.886  13.627  20.297  0.00  0.00    +0.000 C 
ATOM     27  N   UNL     1       9.628  12.944  20.613  0.00  0.00    +0.000 NA
ATOM     28  C   UNL     1       8.657  13.920  21.113  0.00  0.00    +0.000 C 
ENDBRANCH  25  27
ENDBRANCH  24  25
ENDBRANCH  23  24
ENDBRANCH   1  23
TORSDOF 6
ENDMDL
MODEL 7
REMARK VINA RESULT:      -6.8      6.948      8.822
REMARK  Name = 
REMARK  9 active torsions:
REMARK  status: ('A' for Active; 'I' for Inactive)
REMARK    1  A    between atoms: C_1  and  N_2
REMARK    2  A    between atoms: N_2  and  C_3
REMARK    3  A    between atoms: N_2  and  C_4
REMARK    4  A    between atoms: C_4  and  C_5
REMARK    5  A    between atoms: C_5  and  C_6
REMARK    6  A    between atoms: C_6  and  N_7
REMARK    7  A    between atoms: C_10  and  N_11
REMARK    8  A    between atoms: N_11  and  C_12
REMARK    9  A    between atoms: N_15  and  C_16
REMARK                            x       y       z     vdW  Elec       q    Type
REMARK                         _______ _______ _______ _____ _____    ______ ____
ROOT
ATOM      1  N   UNL     1       3.226   7.694  17.652  0.00  0.00    +0.000 N 
ATOM      2  C   UNL     1       2.339   8.406  18.479  0.00  0.00    +0.000 A 
ATOM      3  C   UNL     1       1.962   9.677  18.100  0.00  0.00    +0.000 A 
ATOM      4  C   UNL     1       1.208  10.406  18.996  0.00  0.00    +0.000 A 
ATOM      5  N   UNL     1       0.846   9.927  20.197  0.00  0.00    +0.000 NA
ATOM      6  C   UNL     1       1.218   8.668  20.452  0.00  0.00    +0.000 A 
ATOM      7  N   UNL     1       1.954   7.885  19.654  0.00  0.00    +0.000 NA
ATOM      8  H   UNL     1       3.103   7.959  16.680  0.00  0.00    +0.000 HD
ENDROOT
BRANCH   4   9
ATOM      9  N   UNL     1       0.797  11.711  18.655  0.00  0.00    +0.000 N 
ATOM     10  C   UNL     1       1.843  12.722  18.551  0.00  0.00    +0.000 C 
ATOM     11  C   UNL     1      -0.503  12.079  18.343  0.00  0.00    +0.000 C 
ATOM     12  O   UNL     1      -0.785  13.230  18.008  0.00  0.00    +0.000 OA
ATOM     13  N   UNL     1      -1.455  11.088  18.527  0.00  0.00    +0.000 N 
ATOM     14  H   UNL     1      -1.288  10.558  19.378  0.00  0.00    +0.000 HD
BRANCH  13  15
ATOM     15  C   UNL     1      -2.826  11.371  18.277  0.00  0.00    +0.000 A 
ATOM     16  C   UNL     1      -3.457  11.061  17.060  0.00  0.00    +0.000 A 
ATOM     17 CL   UNL     1      -2.707  10.078  15.846  0.00  0.00    +0.000 Cl
ATOM     18  C   UNL     1      -4.777  11.463  16.827  0.00  0.00    +0.000 A 
ATOM     19  C   UNL     1      -5.486  12.153  17.810  0.00  0.00    +0.000 A 
ATOM     20  C   UNL     1      -4.890  12.412  19.043  0.00  0.00    +0.000 A 
ATOM     21  C   UNL     1      -3.574  12.009  19.281  0.00  0.00    +0.000 A 
ATOM     22 CL   UNL     1      -2.872  12.376  20.820  0.00  0.00    +0.000 Cl
ENDBRANCH  13  15
ENDBRANCH   4   9
BRANCH   1  23
ATOM     23  C   UNL     1       3.149   6.245  17.834  0.00  0.00    +0.000 C 
BRANCH  23  24
ATOM     24  C   UNL     1       4.378   5.595  17.215  0.00  0.00    +0.000 C 
BRANCH  24  25
ATOM     25  C   UNL     1       5.259   6.640  16.521  0.00  0.00    +0.000 C 
BRANCH  25  27
ATOM     26  C   UNL     1       7.398   7.291  17.437  0.00  0.00    +0.000 C 
ATOM     27  N   UNL     1       6.704   6.323  16.582  0.00  0.00    +0.000 NA
ATOM     28  C   UNL     1       6.959   4.968  17.073  0.00  0.00    +0.000 C 
ENDBRANCH  25  27
ENDBRANCH  24  25
ENDBRANCH  23  24
ENDBRANCH   1  23
TORSDOF 6
ENDMDL
MODEL 8
REMARK VINA RESULT:      -6.8      6.981      9.887
REMARK  Name = 
REMARK  9 active torsions:
REMARK  status: ('A' for Active; 'I' for Inactive)
REMARK    1  A    between atoms: C_1  and  N_2
REMARK    2  A    between atoms: N_2  and  C_3
REMARK    3  A    between atoms: N_2  and  C_4
REMARK    4  A    between atoms: C_4  and  C_5
REMARK    5  A    between atoms: C_5  and  C_6
REMARK    6  A    between atoms: C_6  and  N_7
REMARK    7  A    between atoms: C_10  and  N_11
REMARK    8  A    between atoms: N_11  and  C_12
REMARK    9  A    between atoms: N_15  and  C_16
REMARK                            x       y       z     vdW  Elec       q    Type
REMARK                         _______ _______ _______ _____ _____    ______ ____
ROOT
ATOM      1  N   UNL     1       2.734   7.193  18.983  0.00  0.00    +0.000 N 
ATOM      2  C   UNL     1       1.850   8.108  19.582  0.00  0.00    +0.000 A 
ATOM      3  C   UNL     1       1.635   9.320  18.959  0.00  0.00    +0.000 A 
ATOM      4  C   UNL     1       0.879  10.253  19.638  0.00  0.00    +0.000 A 
ATOM      5  N   UNL     1       0.365  10.022  20.857  0.00  0.00    +0.000 NA
ATOM      6  C   UNL     1       0.587   8.801  21.355  0.00  0.00    +0.000 A 
ATOM      7  N   UNL     1       1.312   7.834  20.780  0.00  0.00    +0.000 NA
ATOM      8  H   UNL     1       2.725   7.293  17.973  0.00  0.00    +0.000 HD
ENDROOT
BRANCH   4   9
ATOM      9  N   UNL     1       0.630  11.507  19.043  0.00  0.00    +0.000 N 
ATOM     10  C   UNL     1       1.783  12.376  18.838  0.00  0.00    +0.000 C 
ATOM     11  C   UNL     1      -0.604  11.936  18.579  0.00  0.00    +0.000 C 
ATOM     12  O   UNL     1      -0.742  13.029  18.027  0.00  0.00    +0.000 OA
ATOM     13  N   UNL     1      -1.667  11.092  18.866  0.00  0.00    +0.000 N 
ATOM     14  H   UNL     1      -1.603  10.714  19.807  0.00  0.00    +0.000 HD
BRANCH  13  15
ATOM     15  C   UNL     1      -2.984  11.456  18.473  0.00  0.00    +0.000 A 
ATOM     16  C   UNL     1      -3.865  12.152  19.320  0.00  0.00    +0.000 A 
ATOM     17 CL   UNL     1      -3.354  12.857  20.817  0.00  0.00    +0.000 Cl
ATOM     18  C   UNL     1      -5.186  12.386  18.923  0.00  0.00    +0.000 A 
ATOM     19  C   UNL     1      -5.634  11.953  17.675  0.00  0.00    +0.000 A 
ATOM     20  C   UNL     1      -4.752  11.316  16.804  0.00  0.00    +0.000 A 
ATOM     21  C   UNL     1      -3.431  11.084  17.194  0.00  0.00    +0.000 A 
ATOM     22 CL   UNL     1      -2.382  10.268  16.086  0.00  0.00    +0.000 Cl
ENDBRANCH  13  15
ENDBRANCH   4   9
BRANCH   1  23
ATOM     23  C   UNL     1       2.498   5.809  19.394  0.00  0.00    +0.000 C 
BRANCH  23  24
ATOM     24  C   UNL     1       2.011   5.006  18.197  0.00  0.00    +0.000 C 
BRANCH  24  25
ATOM     25  C   UNL     1       1.914   3.515  18.541  0.00  0.00    +0.000 C 
BRANCH  25  27
ATOM     26  C   UNL     1       1.671   2.512  20.725  0.00  0.00    +0.000 C 
ATOM     27  N   UNL     1       2.607   3.156  19.799  0.00  0.00    +0.000 NA
ATOM     28  C   UNL     1       3.754   2.275  19.575  0.00  0.00    +0.000 C 
ENDBRANCH  25  27
ENDBRANCH  24  25
ENDBRANCH  23  24
ENDBRANCH   1  23
TORSDOF 6
ENDMDL
MODEL 9
REMARK VINA RESULT:      -6.8      6.916      9.508
REMARK  Name = 
REMARK  9 active torsions:
REMARK  status: ('A' for Active; 'I' for Inactive)
REMARK    1  A    between atoms: C_1  and  N_2
REMARK    2  A    between atoms: N_2  and  C_3
REMARK    3  A    between atoms: N_2  and  C_4
REMARK    4  A    between atoms: C_4  and  C_5
REMARK    5  A    between atoms: C_5  and  C_6
REMARK    6  A    between atoms: C_6  and  N_7
REMARK    7  A    between atoms: C_10  and  N_11
REMARK    8  A    between atoms: N_11  and  C_12
REMARK    9  A    between atoms: N_15  and  C_16
REMARK                            x       y       z     vdW  Elec       q    Type
REMARK                         _______ _______ _______ _____ _____    ______ ____
ROOT
ATOM      1  N   UNL     1       2.879   7.392  17.896  0.00  0.00    +0.000 N 
ATOM      2  C   UNL     1       2.111   8.225  18.729  0.00  0.00    +0.000 A 
ATOM      3  C   UNL     1       1.761   9.477  18.267  0.00  0.00    +0.000 A 
ATOM      4  C   UNL     1       1.133  10.325  19.155  0.00  0.00    +0.000 A 
ATOM      5  N   UNL     1       0.865   9.976  20.424  0.00  0.00    +0.000 NA
ATOM      6  C   UNL     1       1.198   8.726  20.762  0.00  0.00    +0.000 A 
ATOM      7  N   UNL     1       1.816   7.835  19.978  0.00  0.00    +0.000 NA
ATOM      8  H   UNL     1       2.677   7.576  16.918  0.00  0.00    +0.000 HD
ENDROOT
BRANCH   4   9
ATOM      9  N   UNL     1       0.755  11.615  18.731  0.00  0.00    +0.000 N 
ATOM     10  C   UNL     1       1.825  12.593  18.573  0.00  0.00    +0.000 C 
ATOM     11  C   UNL     1      -0.534  11.993  18.386  0.00  0.00    +0.000 C 
ATOM     12  O   UNL     1      -0.788  13.127  17.979  0.00  0.00    +0.000 OA
ATOM     13  N   UNL     1      -1.511  11.037  18.624  0.00  0.00    +0.000 N 
ATOM     14  H   UNL     1      -1.361  10.557  19.507  0.00  0.00    +0.000 HD
BRANCH  13  15
ATOM     15  C   UNL     1      -2.873  11.335  18.347  0.00  0.00    +0.000 A 
ATOM     16  C   UNL     1      -3.494  10.994  17.133  0.00  0.00    +0.000 A 
ATOM     17 CL   UNL     1      -2.747   9.957  15.964  0.00  0.00    +0.000 Cl
ATOM     18  C   UNL     1      -4.804  11.411  16.869  0.00  0.00    +0.000 A 
ATOM     19  C   UNL     1      -5.513  12.147  17.818  0.00  0.00    +0.000 A 
ATOM     20  C   UNL     1      -4.927  12.439  19.049  0.00  0.00    +0.000 A 
ATOM     21  C   UNL     1      -3.622  12.021  19.318  0.00  0.00    +0.000 A 
ATOM     22 CL   UNL     1      -2.932  12.429  20.852  0.00  0.00    +0.000 Cl
ENDBRANCH  13  15
ENDBRANCH   4   9
BRANCH   1  23
ATOM     23  C   UNL     1       2.750   5.972  18.220  0.00  0.00    +0.000 C 
BRANCH  23  24
ATOM     24  C   UNL     1       3.923   5.211  17.620  0.00  0.00    +0.000 C 
BRANCH  24  25
ATOM     25  C   UNL     1       4.468   4.176  18.611  0.00  0.00    +0.000 C 
BRANCH  25  27
ATOM     26  C   UNL     1       3.273   2.178  17.965  0.00  0.00    +0.000 C 
ATOM     27  N   UNL     1       3.461   3.173  19.026  0.00  0.00    +0.000 NA
ATOM     28  C   UNL     1       3.827   2.494  20.270  0.00  0.00    +0.000 C 
ENDBRANCH  25  27
ENDBRANCH  24  25
ENDBRANCH  23  24
ENDBRANCH   1  23
TORSDOF 6
ENDMDL
