MODEL 1
REMARK VINA RESULT:      -8.5      0.000      0.000
REMARK  Name = 
REMARK  9 active torsions:
REMARK  status: ('A' for Active; 'I' for Inactive)
REMARK    1  A    between atoms: C_1  and  C_2
REMARK    2  A    between atoms: C_3  and  C_4
REMARK    3  A    between atoms: C_4  and  C_5
REMARK    4  A    between atoms: C_5  and  O_7
REMARK    5  A    between atoms: C_15  and  C_17
REMARK    6  A    between atoms: C_20  and  O_21
REMARK    7  A    between atoms: O_21  and  C_22
REMARK    8  A    between atoms: C_22  and  C_23
REMARK    9  A    between atoms: N_25  and  C_26
REMARK                            x       y       z     vdW  Elec       q    Type
REMARK                         _______ _______ _______ _____ _____    ______ ____
ROOT
ATOM      1  C   UNL     1       0.549   9.762  18.915  0.00  0.00    +0.000 A 
ATOM      2  C   UNL     1       1.255   9.414  17.763  0.00  0.00    +0.000 A 
ATOM      3  C   UNL     1       2.163   8.362  17.804  0.00  0.00    +0.000 A 
ATOM      4  C   UNL     1       2.409   7.675  18.998  0.00  0.00    +0.000 A 
ATOM      5  C   UNL     1       1.820   8.127  20.181  0.00  0.00    +0.000 A 
ATOM      6  C   UNL     1       0.882   9.161  20.129  0.00  0.00    +0.000 A 
ATOM      7  F   UNL     1       0.275   9.524  21.270  0.00  0.00    +0.000 F 
ENDROOT
BRANCH   1  18
ATOM      8  C   UNL     1      -2.706  12.487  19.926  0.00  0.00    +0.000 C 
ATOM      9  C   UNL     1      -1.335  13.023  19.613  0.00  0.00    +0.000 A 
ATOM     10  C   UNL     1      -0.797  14.304  19.775  0.00  0.00    +0.000 A 
ATOM     11  C   UNL     1       0.574  14.215  19.366  0.00  0.00    +0.000 A 
ATOM     12  C   UNL     1       1.619  15.163  19.333  0.00  0.00    +0.000 A 
ATOM     13  C   UNL     1       2.886  14.805  18.868  0.00  0.00    +0.000 A 
ATOM     14  C   UNL     1       3.107  13.529  18.375  0.00  0.00    +0.000 A 
ATOM     15  C   UNL     1       2.073  12.589  18.350  0.00  0.00    +0.000 A 
ATOM     16  C   UNL     1       0.819  12.921  18.913  0.00  0.00    +0.000 A 
ATOM     17  N   UNL     1      -0.350  12.163  19.096  0.00  0.00    +0.000 N 
ATOM     18  C   UNL     1      -0.525  10.772  18.842  0.00  0.00    +0.000 C 
ATOM     19  O   UNL     1      -1.663  10.375  18.601  0.00  0.00    +0.000 OA
BRANCH  10  20
ATOM     20  C   UNL     1      -1.481  15.571  20.216  0.00  0.00    +0.000 C 
BRANCH  20  21
ATOM     21  C   UNL     1      -1.747  15.723  21.705  0.00  0.00    +0.000 C 
ATOM     22  O   UNL     1      -2.719  16.330  22.147  0.00  0.00    +0.000 OA
BRANCH  21  23
ATOM     23  O   UNL     1      -0.885  15.093  22.532  0.00  0.00    +0.000 OA
ATOM     24  H   UNL     1      -0.520  15.674  23.227  0.00  0.00    +0.000 HD
ENDBRANCH  21  23
ENDBRANCH  20  21
ENDBRANCH  10  20
ENDBRANCH   1  18
BRANCH   4  25
ATOM     25  O   UNL     1       3.187   6.544  19.059  0.00  0.00    +0.000 OA
BRANCH  25  26
ATOM     26  C   UNL     1       2.816   5.553  18.082  0.00  0.00    +0.000 C 
BRANCH  26  27
ATOM     27  C   UNL     1       3.479   4.197  18.338  0.00  0.00    +0.000 C 
ATOM     28  C   UNL     1       4.676   4.227  19.292  0.00  0.00    +0.000 C 
ATOM     29  N   UNL     1       5.845   4.847  18.672  0.00  0.00    +0.000 N 
ATOM     30  C   UNL     1       6.916   5.335  19.521  0.00  0.00    +0.000 C 
ATOM     31  C   UNL     1       5.970   4.737  17.293  0.00  0.00    +0.000 A 
ATOM     32  C   UNL     1       7.056   5.280  16.591  0.00  0.00    +0.000 A 
ATOM     33  C   UNL     1       7.108   5.266  15.192  0.00  0.00    +0.000 A 
ATOM     34  C   UNL     1       6.091   4.662  14.459  0.00  0.00    +0.000 A 
ATOM     35  C   UNL     1       5.026   4.064  15.127  0.00  0.00    +0.000 A 
ATOM     36  C   UNL     1       4.957   4.125  16.522  0.00  0.00    +0.000 A 
ATOM     37  O   UNL     1       3.818   3.580  17.080  0.00  0.00    +0.000 OA
ENDBRANCH  26  27
ENDBRANCH  25  26
ENDBRANCH   4  25
TORSDOF 7
ENDMDL
MODEL 2
REMARK VINA RESULT:      -8.5      1.054      1.141
REMARK  Name = 
REMARK  9 active torsions:
REMARK  status: ('A' for Active; 'I' for Inactive)
REMARK    1  A    between atoms: C_1  and  C_2
REMARK    2  A    between atoms: C_3  and  C_4
REMARK    3  A    between atoms: C_4  and  C_5
REMARK    4  A    between atoms: C_5  and  O_7
REMARK    5  A    between atoms: C_15  and  C_17
REMARK    6  A    between atoms: C_20  and  O_21
REMARK    7  A    between atoms: O_21  and  C_22
REMARK    8  A    between atoms: C_22  and  C_23
REMARK    9  A    between atoms: N_25  and  C_26
REMARK                            x       y       z     vdW  Elec       q    Type
REMARK                         _______ _______ _______ _____ _____    ______ ____
ROOT
ATOM      1  C   UNL     1       0.544   9.789  18.991  0.00  0.00    +0.000 A 
ATOM      2  C   UNL     1       1.216   9.313  17.865  0.00  0.00    +0.000 A 
ATOM      3  C   UNL     1       2.069   8.221  17.983  0.00  0.00    +0.000 A 
ATOM      4  C   UNL     1       2.294   7.620  19.226  0.00  0.00    +0.000 A 
ATOM      5  C   UNL     1       1.743   8.195  20.374  0.00  0.00    +0.000 A 
ATOM      6  C   UNL     1       0.860   9.270  20.247  0.00  0.00    +0.000 A 
ATOM      7  F   UNL     1       0.287   9.755  21.359  0.00  0.00    +0.000 F 
ENDROOT
BRANCH   1  18
ATOM      8  C   UNL     1      -2.592  12.715  19.797  0.00  0.00    +0.000 C 
ATOM      9  C   UNL     1      -1.189  13.167  19.491  0.00  0.00    +0.000 A 
ATOM     10  C   UNL     1      -0.591  14.427  19.606  0.00  0.00    +0.000 A 
ATOM     11  C   UNL     1       0.782  14.252  19.233  0.00  0.00    +0.000 A 
ATOM     12  C   UNL     1       1.873  15.145  19.180  0.00  0.00    +0.000 A 
ATOM     13  C   UNL     1       3.130  14.704  18.762  0.00  0.00    +0.000 A 
ATOM     14  C   UNL     1       3.297  13.397  18.335  0.00  0.00    +0.000 A 
ATOM     15  C   UNL     1       2.219  12.508  18.330  0.00  0.00    +0.000 A 
ATOM     16  C   UNL     1       0.971  12.927  18.847  0.00  0.00    +0.000 A 
ATOM     17  N   UNL     1      -0.238  12.237  19.038  0.00  0.00    +0.000 N 
ATOM     18  C   UNL     1      -0.476  10.846  18.846  0.00  0.00    +0.000 C 
ATOM     19  O   UNL     1      -1.627  10.493  18.597  0.00  0.00    +0.000 OA
BRANCH  10  20
ATOM     20  C   UNL     1      -1.221  15.746  19.971  0.00  0.00    +0.000 C 
BRANCH  20  21
ATOM     21  C   UNL     1      -0.742  16.968  19.204  0.00  0.00    +0.000 C 
ATOM     22  O   UNL     1      -0.878  17.084  17.990  0.00  0.00    +0.000 OA
BRANCH  21  23
ATOM     23  O   UNL     1      -0.211  17.965  19.944  0.00  0.00    +0.000 OA
ATOM     24  H   UNL     1       0.687  18.224  19.658  0.00  0.00    +0.000 HD
ENDBRANCH  21  23
ENDBRANCH  20  21
ENDBRANCH  10  20
ENDBRANCH   1  18
BRANCH   4  25
ATOM     25  O   UNL     1       3.012   6.458  19.372  0.00  0.00    +0.000 OA
BRANCH  25  26
ATOM     26  C   UNL     1       2.979   5.625  18.197  0.00  0.00    +0.000 C 
BRANCH  26  27
ATOM     27  C   UNL     1       3.619   4.253  18.429  0.00  0.00    +0.000 C 
ATOM     28  C   UNL     1       4.853   4.255  19.335  0.00  0.00    +0.000 C 
ATOM     29  N   UNL     1       6.012   4.846  18.669  0.00  0.00    +0.000 N 
ATOM     30  C   UNL     1       7.126   5.308  19.475  0.00  0.00    +0.000 C 
ATOM     31  C   UNL     1       6.079   4.731  17.286  0.00  0.00    +0.000 A 
ATOM     32  C   UNL     1       7.150   5.248  16.542  0.00  0.00    +0.000 A 
ATOM     33  C   UNL     1       7.147   5.231  15.142  0.00  0.00    +0.000 A 
ATOM     34  C   UNL     1       6.088   4.651  14.450  0.00  0.00    +0.000 A 
ATOM     35  C   UNL     1       5.036   4.081  15.160  0.00  0.00    +0.000 A 
ATOM     36  C   UNL     1       5.022   4.144  16.557  0.00  0.00    +0.000 A 
ATOM     37  O   UNL     1       3.893   3.628  17.160  0.00  0.00    +0.000 OA
ENDBRANCH  26  27
ENDBRANCH  25  26
ENDBRANCH   4  25
TORSDOF 7
ENDMDL
MODEL 3
REMARK VINA RESULT:      -8.3      1.151      1.321
REMARK  Name = 
REMARK  9 active torsions:
REMARK  status: ('A' for Active; 'I' for Inactive)
REMARK    1  A    between atoms: C_1  and  C_2
REMARK    2  A    between atoms: C_3  and  C_4
REMARK    3  A    between atoms: C_4  and  C_5
REMARK    4  A    between atoms: C_5  and  O_7
REMARK    5  A    between atoms: C_15  and  C_17
REMARK    6  A    between atoms: C_20  and  O_21
REMARK    7  A    between atoms: O_21  and  C_22
REMARK    8  A    between atoms: C_22  and  C_23
REMARK    9  A    between atoms: N_25  and  C_26
REMARK                            x       y       z     vdW  Elec       q    Type
REMARK                         _______ _______ _______ _____ _____    ______ ____
ROOT
ATOM      1  C   UNL     1       0.413   9.699  19.052  0.00  0.00    +0.000 A 
ATOM      2  C   UNL     1       1.263   9.301  18.019  0.00  0.00    +0.000 A 
ATOM      3  C   UNL     1       2.159   8.259  18.228  0.00  0.00    +0.000 A 
ATOM      4  C   UNL     1       2.248   7.631  19.475  0.00  0.00    +0.000 A 
ATOM      5  C   UNL     1       1.510   8.134  20.548  0.00  0.00    +0.000 A 
ATOM      6  C   UNL     1       0.586   9.158  20.326  0.00  0.00    +0.000 A 
ATOM      7  F   UNL     1      -0.164   9.571  21.360  0.00  0.00    +0.000 F 
ENDROOT
BRANCH   1  18
ATOM      8  C   UNL     1      -3.259  12.048  19.240  0.00  0.00    +0.000 C 
ATOM      9  C   UNL     1      -1.954  12.638  19.702  0.00  0.00    +0.000 A 
ATOM     10  C   UNL     1      -1.684  13.814  20.411  0.00  0.00    +0.000 A 
ATOM     11  C   UNL     1      -0.267  13.833  20.625  0.00  0.00    +0.000 A 
ATOM     12  C   UNL     1       0.580  14.741  21.297  0.00  0.00    +0.000 A 
ATOM     13  C   UNL     1       1.958  14.520  21.347  0.00  0.00    +0.000 A 
ATOM     14  C   UNL     1       2.509  13.438  20.681  0.00  0.00    +0.000 A 
ATOM     15  C   UNL     1       1.695  12.555  19.966  0.00  0.00    +0.000 A 
ATOM     16  C   UNL     1       0.292  12.722  19.999  0.00  0.00    +0.000 A 
ATOM     17  N   UNL     1      -0.751  11.954  19.453  0.00  0.00    +0.000 N 
ATOM     18  C   UNL     1      -0.642  10.697  18.792  0.00  0.00    +0.000 C 
ATOM     19  O   UNL     1      -1.523  10.397  17.989  0.00  0.00    +0.000 OA
BRANCH  10  20
ATOM     20  C   UNL     1      -2.632  14.906  20.831  0.00  0.00    +0.000 C 
BRANCH  20  21
ATOM     21  C   UNL     1      -3.560  14.598  21.995  0.00  0.00    +0.000 C 
ATOM     22  O   UNL     1      -3.257  13.824  22.898  0.00  0.00    +0.000 OA
BRANCH  21  23
ATOM     23  O   UNL     1      -4.727  15.276  22.021  0.00  0.00    +0.000 OA
ATOM     24  H   UNL     1      -5.111  15.424  21.136  0.00  0.00    +0.000 HD
ENDBRANCH  21  23
ENDBRANCH  20  21
ENDBRANCH  10  20
ENDBRANCH   1  18
BRANCH   4  25
ATOM     25  O   UNL     1       3.012   6.509  19.690  0.00  0.00    +0.000 OA
BRANCH  25  26
ATOM     26  C   UNL     1       3.373   5.832  18.471  0.00  0.00    +0.000 C 
BRANCH  26  27
ATOM     27  C   UNL     1       4.052   4.483  18.726  0.00  0.00    +0.000 C 
ATOM     28  C   UNL     1       5.417   4.560  19.414  0.00  0.00    +0.000 C 
ATOM     29  N   UNL     1       6.447   5.075  18.515  0.00  0.00    +0.000 N 
ATOM     30  C   UNL     1       7.675   5.602  19.079  0.00  0.00    +0.000 C 
ATOM     31  C   UNL     1       6.289   4.829  17.156  0.00  0.00    +0.000 A 
ATOM     32  C   UNL     1       7.220   5.262  16.201  0.00  0.00    +0.000 A 
ATOM     33  C   UNL     1       6.988   5.113  14.828  0.00  0.00    +0.000 A 
ATOM     34  C   UNL     1       5.835   4.479  14.378  0.00  0.00    +0.000 A 
ATOM     35  C   UNL     1       4.917   3.987  15.301  0.00  0.00    +0.000 A 
ATOM     36  C   UNL     1       5.131   4.183  16.669  0.00  0.00    +0.000 A 
ATOM     37  O   UNL     1       4.120   3.737  17.494  0.00  0.00    +0.000 OA
ENDBRANCH  26  27
ENDBRANCH  25  26
ENDBRANCH   4  25
TORSDOF 7
ENDMDL
MODEL 4
REMARK VINA RESULT:      -8.2      5.778      9.359
REMARK  Name = 
REMARK  9 active torsions:
REMARK  status: ('A' for Active; 'I' for Inactive)
REMARK    1  A    between atoms: C_1  and  C_2
REMARK    2  A    between atoms: C_3  and  C_4
REMARK    3  A    between atoms: C_4  and  C_5
REMARK    4  A    between atoms: C_5  and  O_7
REMARK    5  A    between atoms: C_15  and  C_17
REMARK    6  A    between atoms: C_20  and  O_21
REMARK    7  A    between atoms: O_21  and  C_22
REMARK    8  A    between atoms: C_22  and  C_23
REMARK    9  A    between atoms: N_25  and  C_26
REMARK                            x       y       z     vdW  Elec       q    Type
REMARK                         _______ _______ _______ _____ _____    ______ ____
ROOT
ATOM      1  C   UNL     1       5.884   6.007  17.799  0.00  0.00    +0.000 A 
ATOM      2  C   UNL     1       5.680   7.098  16.954  0.00  0.00    +0.000 A 
ATOM      3  C   UNL     1       6.635   8.106  16.889  0.00  0.00    +0.000 A 
ATOM      4  C   UNL     1       7.780   8.061  17.692  0.00  0.00    +0.000 A 
ATOM      5  C   UNL     1       7.905   7.050  18.647  0.00  0.00    +0.000 A 
ATOM      6  C   UNL     1       6.961   6.020  18.686  0.00  0.00    +0.000 A 
ATOM      7  F   UNL     1       7.146   5.022  19.563  0.00  0.00    +0.000 F 
ENDROOT
BRANCH   1  18
ATOM      8  C   UNL     1       3.907   2.194  18.574  0.00  0.00    +0.000 C 
ATOM      9  C   UNL     1       3.278   3.484  19.028  0.00  0.00    +0.000 A 
ATOM     10  C   UNL     1       2.195   3.720  19.882  0.00  0.00    +0.000 A 
ATOM     11  C   UNL     1       2.085   5.144  20.001  0.00  0.00    +0.000 A 
ATOM     12  C   UNL     1       1.211   5.971  20.740  0.00  0.00    +0.000 A 
ATOM     13  C   UNL     1       1.319   7.361  20.665  0.00  0.00    +0.000 A 
ATOM     14  C   UNL     1       2.246   7.938  19.812  0.00  0.00    +0.000 A 
ATOM     15  C   UNL     1       3.086   7.139  19.032  0.00  0.00    +0.000 A 
ATOM     16  C   UNL     1       3.046   5.734  19.183  0.00  0.00    +0.000 A 
ATOM     17  N   UNL     1       3.815   4.711  18.602  0.00  0.00    +0.000 N 
ATOM     18  C   UNL     1       4.954   4.862  17.759  0.00  0.00    +0.000 C 
ATOM     19  O   UNL     1       5.212   3.946  16.981  0.00  0.00    +0.000 OA
BRANCH  10  20
ATOM     20  C   UNL     1       1.257   2.730  20.519  0.00  0.00    +0.000 C 
BRANCH  20  21
ATOM     21  C   UNL     1       1.568   2.313  21.948  0.00  0.00    +0.000 C 
ATOM     22  O   UNL     1       0.693   2.101  22.782  0.00  0.00    +0.000 OA
BRANCH  21  23
ATOM     23  O   UNL     1       2.872   2.122  22.242  0.00  0.00    +0.000 OA
ATOM     24  H   UNL     1       3.433   1.996  21.453  0.00  0.00    +0.000 HD
ENDBRANCH  21  23
ENDBRANCH  20  21
ENDBRANCH  10  20
ENDBRANCH   1  18
BRANCH   4  25
ATOM     25  O   UNL     1       8.816   8.954  17.563  0.00  0.00    +0.000 OA
BRANCH  25  26
ATOM     26  C   UNL     1       8.615  10.161  18.323  0.00  0.00    +0.000 C 
BRANCH  26  27
ATOM     27  C   UNL     1       9.725  10.400  19.351  0.00  0.00    +0.000 C 
ATOM     28  C   UNL     1       9.321  11.246  20.561  0.00  0.00    +0.000 C 
ATOM     29  N   UNL     1       9.147  12.652  20.204  0.00  0.00    +0.000 N 
ATOM     30  C   UNL     1       8.384  13.514  21.087  0.00  0.00    +0.000 C 
ATOM     31  C   UNL     1       9.909  13.141  19.150  0.00  0.00    +0.000 A 
ATOM     32  C   UNL     1       9.837  14.476  18.727  0.00  0.00    +0.000 A 
ATOM     33  C   UNL     1      10.519  14.924  17.589  0.00  0.00    +0.000 A 
ATOM     34  C   UNL     1      11.333  14.053  16.871  0.00  0.00    +0.000 A 
ATOM     35  C   UNL     1      11.470  12.735  17.297  0.00  0.00    +0.000 A 
ATOM     36  C   UNL     1      10.748  12.282  18.405  0.00  0.00    +0.000 A 
ATOM     37  O   UNL     1      10.886  10.939  18.691  0.00  0.00    +0.000 OA
ENDBRANCH  26  27
ENDBRANCH  25  26
ENDBRANCH   4  25
TORSDOF 7
ENDMDL
MODEL 5
REMARK VINA RESULT:      -8.2      2.290      3.893
REMARK  Name = 
REMARK  9 active torsions:
REMARK  status: ('A' for Active; 'I' for Inactive)
REMARK    1  A    between atoms: C_1  and  C_2
REMARK    2  A    between atoms: C_3  and  C_4
REMARK    3  A    between atoms: C_4  and  C_5
REMARK    4  A    between atoms: C_5  and  O_7
REMARK    5  A    between atoms: C_15  and  C_17
REMARK    6  A    between atoms: C_20  and  O_21
REMARK    7  A    between atoms: O_21  and  C_22
REMARK    8  A    between atoms: C_22  and  C_23
REMARK    9  A    between atoms: N_25  and  C_26
REMARK                            x       y       z     vdW  Elec       q    Type
REMARK                         _______ _______ _______ _____ _____    ______ ____
ROOT
ATOM      1  C   UNL     1       0.706  10.237  19.918  0.00  0.00    +0.000 A 
ATOM      2  C   UNL     1       1.290  10.956  18.874  0.00  0.00    +0.000 A 
ATOM      3  C   UNL     1       2.112  10.301  17.964  0.00  0.00    +0.000 A 
ATOM      4  C   UNL     1       2.395   8.938  18.106  0.00  0.00    +0.000 A 
ATOM      5  C   UNL     1       1.937   8.260  19.237  0.00  0.00    +0.000 A 
ATOM      6  C   UNL     1       1.083   8.911  20.131  0.00  0.00    +0.000 A 
ATOM      7  F   UNL     1       0.598   8.212  21.168  0.00  0.00    +0.000 F 
ENDROOT
BRANCH   1  18
ATOM      8  C   UNL     1      -1.582  13.189  22.176  0.00  0.00    +0.000 C 
ATOM      9  C   UNL     1      -2.171  12.545  20.950  0.00  0.00    +0.000 A 
ATOM     10  C   UNL     1      -3.320  12.861  20.216  0.00  0.00    +0.000 A 
ATOM     11  C   UNL     1      -3.351  11.948  19.112  0.00  0.00    +0.000 A 
ATOM     12  C   UNL     1      -4.242  11.797  18.028  0.00  0.00    +0.000 A 
ATOM     13  C   UNL     1      -4.039  10.795  17.077  0.00  0.00    +0.000 A 
ATOM     14  C   UNL     1      -2.993   9.900  17.229  0.00  0.00    +0.000 A 
ATOM     15  C   UNL     1      -2.128   9.998  18.322  0.00  0.00    +0.000 A 
ATOM     16  C   UNL     1      -2.274  11.072  19.230  0.00  0.00    +0.000 A 
ATOM     17  N   UNL     1      -1.515  11.458  20.348  0.00  0.00    +0.000 N 
ATOM     18  C   UNL     1      -0.287  10.889  20.794  0.00  0.00    +0.000 C 
ATOM     19  O   UNL     1      -0.007  11.000  21.986  0.00  0.00    +0.000 OA
BRANCH  10  20
ATOM     20  C   UNL     1      -4.381  13.887  20.512  0.00  0.00    +0.000 C 
BRANCH  20  21
ATOM     21  C   UNL     1      -5.183  13.695  21.789  0.00  0.00    +0.000 C 
ATOM     22  O   UNL     1      -5.598  14.636  22.459  0.00  0.00    +0.000 OA
BRANCH  21  23
ATOM     23  O   UNL     1      -5.477  12.420  22.122  0.00  0.00    +0.000 OA
ATOM     24  H   UNL     1      -4.709  11.819  22.070  0.00  0.00    +0.000 HD
ENDBRANCH  21  23
ENDBRANCH  20  21
ENDBRANCH  10  20
ENDBRANCH   1  18
BRANCH   4  25
ATOM     25  O   UNL     1       3.083   8.218  17.159  0.00  0.00    +0.000 OA
BRANCH  25  26
ATOM     26  C   UNL     1       3.166   6.815  17.472  0.00  0.00    +0.000 C 
BRANCH  26  27
ATOM     27  C   UNL     1       4.518   6.426  18.078  0.00  0.00    +0.000 C 
ATOM     28  C   UNL     1       5.475   5.704  17.126  0.00  0.00    +0.000 C 
ATOM     29  N   UNL     1       5.038   4.336  16.854  0.00  0.00    +0.000 N 
ATOM     30  C   UNL     1       5.560   3.649  15.689  0.00  0.00    +0.000 C 
ATOM     31  C   UNL     1       4.316   3.689  17.849  0.00  0.00    +0.000 A 
ATOM     32  C   UNL     1       3.856   2.371  17.706  0.00  0.00    +0.000 A 
ATOM     33  C   UNL     1       3.029   1.774  18.665  0.00  0.00    +0.000 A 
ATOM     34  C   UNL     1       2.679   2.467  19.819  0.00  0.00    +0.000 A 
ATOM     35  C   UNL     1       3.164   3.757  20.018  0.00  0.00    +0.000 A 
ATOM     36  C   UNL     1       3.950   4.365  19.034  0.00  0.00    +0.000 A 
ATOM     37  O   UNL     1       4.305   5.674  19.288  0.00  0.00    +0.000 OA
ENDBRANCH  26  27
ENDBRANCH  25  26
ENDBRANCH   4  25
TORSDOF 7
ENDMDL
MODEL 6
REMARK VINA RESULT:      -8.1      1.718      2.182
REMARK  Name = 
REMARK  9 active torsions:
REMARK  status: ('A' for Active; 'I' for Inactive)
REMARK    1  A    between atoms: C_1  and  C_2
REMARK    2  A    between atoms: C_3  and  C_4
REMARK    3  A    between atoms: C_4  and  C_5
REMARK    4  A    between atoms: C_5  and  O_7
REMARK    5  A    between atoms: C_15  and  C_17
REMARK    6  A    between atoms: C_20  and  O_21
REMARK    7  A    between atoms: O_21  and  C_22
REMARK    8  A    between atoms: C_22  and  C_23
REMARK    9  A    between atoms: N_25  and  C_26
REMARK                            x       y       z     vdW  Elec       q    Type
REMARK                         _______ _______ _______ _____ _____    ______ ____
ROOT
ATOM      1  C   UNL     1       0.229   9.622  18.623  0.00  0.00    +0.000 A 
ATOM      2  C   UNL     1       1.221   9.458  17.655  0.00  0.00    +0.000 A 
ATOM      3  C   UNL     1       2.261   8.564  17.881  0.00  0.00    +0.000 A 
ATOM      4  C   UNL     1       2.350   7.857  19.085  0.00  0.00    +0.000 A 
ATOM      5  C   UNL     1       1.446   8.140  20.111  0.00  0.00    +0.000 A 
ATOM      6  C   UNL     1       0.382   9.012  19.869  0.00  0.00    +0.000 A 
ATOM      7  F   UNL     1      -0.514   9.207  20.849  0.00  0.00    +0.000 F 
ENDROOT
BRANCH   1  18
ATOM      8  C   UNL     1      -3.834  11.206  18.473  0.00  0.00    +0.000 C 
ATOM      9  C   UNL     1      -2.770  11.914  19.268  0.00  0.00    +0.000 A 
ATOM     10  C   UNL     1      -2.867  12.956  20.197  0.00  0.00    +0.000 A 
ATOM     11  C   UNL     1      -1.538  13.182  20.682  0.00  0.00    +0.000 A 
ATOM     12  C   UNL     1      -1.015  14.074  21.643  0.00  0.00    +0.000 A 
ATOM     13  C   UNL     1       0.352  14.093  21.923  0.00  0.00    +0.000 A 
ATOM     14  C   UNL     1       1.215  13.277  21.210  0.00  0.00    +0.000 A 
ATOM     15  C   UNL     1       0.727  12.423  20.218  0.00  0.00    +0.000 A 
ATOM     16  C   UNL     1      -0.667  12.331  20.005  0.00  0.00    +0.000 A 
ATOM     17  N   UNL     1      -1.428  11.514  19.150  0.00  0.00    +0.000 N 
ATOM     18  C   UNL     1      -0.956  10.450  18.329  0.00  0.00    +0.000 C 
ATOM     19  O   UNL     1      -1.616  10.164  17.332  0.00  0.00    +0.000 OA
BRANCH  10  20
ATOM     20  C   UNL     1      -4.075  13.761  20.596  0.00  0.00    +0.000 C 
BRANCH  20  21
ATOM     21  C   UNL     1      -5.223  13.001  21.241  0.00  0.00    +0.000 C 
ATOM     22  O   UNL     1      -5.162  12.552  22.382  0.00  0.00    +0.000 OA
BRANCH  21  23
ATOM     23  O   UNL     1      -6.354  12.895  20.512  0.00  0.00    +0.000 OA
ATOM     24  H   UNL     1      -6.524  13.672  19.945  0.00  0.00    +0.000 HD
ENDBRANCH  21  23
ENDBRANCH  20  21
ENDBRANCH  10  20
ENDBRANCH   1  18
BRANCH   4  25
ATOM     25  O   UNL     1       3.274   6.863  19.298  0.00  0.00    +0.000 OA
BRANCH  25  26
ATOM     26  C   UNL     1       3.344   5.918  18.213  0.00  0.00    +0.000 C 
BRANCH  26  27
ATOM     27  C   UNL     1       4.007   4.600  18.622  0.00  0.00    +0.000 C 
ATOM     28  C   UNL     1       5.335   4.743  19.369  0.00  0.00    +0.000 C 
ATOM     29  N   UNL     1       6.411   5.178  18.481  0.00  0.00    +0.000 N 
ATOM     30  C   UNL     1       7.609   5.757  19.058  0.00  0.00    +0.000 C 
ATOM     31  C   UNL     1       6.322   4.810  17.144  0.00  0.00    +0.000 A 
ATOM     32  C   UNL     1       7.302   5.159  16.203  0.00  0.00    +0.000 A 
ATOM     33  C   UNL     1       7.140   4.885  14.839  0.00  0.00    +0.000 A 
ATOM     34  C   UNL     1       6.010   4.210  14.389  0.00  0.00    +0.000 A 
ATOM     35  C   UNL     1       5.045   3.801  15.305  0.00  0.00    +0.000 A 
ATOM     36  C   UNL     1       5.190   4.120  16.658  0.00  0.00    +0.000 A 
ATOM     37  O   UNL     1       4.137   3.746  17.468  0.00  0.00    +0.000 OA
ENDBRANCH  26  27
ENDBRANCH  25  26
ENDBRANCH   4  25
TORSDOF 7
ENDMDL
MODEL 7
REMARK VINA RESULT:      -8.1      2.588      4.247
REMARK  Name = 
REMARK  9 active torsions:
REMARK  status: ('A' for Active; 'I' for Inactive)
REMARK    1  A    between atoms: C_1  and  C_2
REMARK    2  A    between atoms: C_3  and  C_4
REMARK    3  A    between atoms: C_4  and  C_5
REMARK    4  A    between atoms: C_5  and  O_7
REMARK    5  A    between atoms: C_15  and  C_17
REMARK    6  A    between atoms: C_20  and  O_21
REMARK    7  A    between atoms: O_21  and  C_22
REMARK    8  A    between atoms: C_22  and  C_23
REMARK    9  A    between atoms: N_25  and  C_26
REMARK                            x       y       z     vdW  Elec       q    Type
REMARK                         _______ _______ _______ _____ _____    ______ ____
ROOT
ATOM      1  C   UNL     1       0.700   9.934  20.010  0.00  0.00    +0.000 A 
ATOM      2  C   UNL     1       1.221  10.585  18.891  0.00  0.00    +0.000 A 
ATOM      3  C   UNL     1       2.074   9.901  18.033  0.00  0.00    +0.000 A 
ATOM      4  C   UNL     1       2.450   8.580  18.299  0.00  0.00    +0.000 A 
ATOM      5  C   UNL     1       2.054   7.986  19.499  0.00  0.00    +0.000 A 
ATOM      6  C   UNL     1       1.169   8.663  20.342  0.00  0.00    +0.000 A 
ATOM      7  F   UNL     1       0.745   8.037  21.451  0.00  0.00    +0.000 F 
ENDROOT
BRANCH   1  18
ATOM      8  C   UNL     1      -1.619  12.912  22.201  0.00  0.00    +0.000 C 
ATOM      9  C   UNL     1      -2.149  12.326  20.920  0.00  0.00    +0.000 A 
ATOM     10  C   UNL     1      -3.234  12.707  20.123  0.00  0.00    +0.000 A 
ATOM     11  C   UNL     1      -3.225  11.827  18.992  0.00  0.00    +0.000 A 
ATOM     12  C   UNL     1      -4.048  11.742  17.847  0.00  0.00    +0.000 A 
ATOM     13  C   UNL     1      -3.819  10.760  16.882  0.00  0.00    +0.000 A 
ATOM     14  C   UNL     1      -2.821   9.820  17.075  0.00  0.00    +0.000 A 
ATOM     15  C   UNL     1      -2.028   9.852  18.225  0.00  0.00    +0.000 A 
ATOM     16  C   UNL     1      -2.193  10.906  19.153  0.00  0.00    +0.000 A 
ATOM     17  N   UNL     1      -1.496  11.230  20.330  0.00  0.00    +0.000 N 
ATOM     18  C   UNL     1      -0.323  10.601  20.839  0.00  0.00    +0.000 C 
ATOM     19  O   UNL     1      -0.120  10.667  22.049  0.00  0.00    +0.000 OA
BRANCH  10  20
ATOM     20  C   UNL     1      -4.272  13.767  20.379  0.00  0.00    +0.000 C 
BRANCH  20  21
ATOM     21  C   UNL     1      -5.225  13.526  21.539  0.00  0.00    +0.000 C 
ATOM     22  O   UNL     1      -5.698  12.422  21.790  0.00  0.00    +0.000 OA
BRANCH  21  23
ATOM     23  O   UNL     1      -5.479  14.589  22.332  0.00  0.00    +0.000 OA
ATOM     24  H   UNL     1      -4.680  15.101  22.562  0.00  0.00    +0.000 HD
ENDBRANCH  21  23
ENDBRANCH  20  21
ENDBRANCH  10  20
ENDBRANCH   1  18
BRANCH   4  25
ATOM     25  O   UNL     1       3.173   7.819  17.413  0.00  0.00    +0.000 OA
BRANCH  25  26
ATOM     26  C   UNL     1       3.020   6.403  17.633  0.00  0.00    +0.000 C 
BRANCH  26  27
ATOM     27  C   UNL     1       4.243   5.778  18.310  0.00  0.00    +0.000 C 
ATOM     28  C   UNL     1       4.756   4.488  17.666  0.00  0.00    +0.000 C 
ATOM     29  N   UNL     1       3.858   3.363  17.917  0.00  0.00    +0.000 N 
ATOM     30  C   UNL     1       3.945   2.189  17.069  0.00  0.00    +0.000 C 
ATOM     31  C   UNL     1       3.120   3.388  19.094  0.00  0.00    +0.000 A 
ATOM     32  C   UNL     1       2.236   2.358  19.447  0.00  0.00    +0.000 A 
ATOM     33  C   UNL     1       1.410   2.453  20.575  0.00  0.00    +0.000 A 
ATOM     34  C   UNL     1       1.485   3.566  21.406  0.00  0.00    +0.000 A 
ATOM     35  C   UNL     1       2.391   4.581  21.114  0.00  0.00    +0.000 A 
ATOM     36  C   UNL     1       3.177   4.502  19.960  0.00  0.00    +0.000 A 
ATOM     37  O   UNL     1       3.977   5.599  19.715  0.00  0.00    +0.000 OA
ENDBRANCH  26  27
ENDBRANCH  25  26
ENDBRANCH   4  25
TORSDOF 7
ENDMDL
MODEL 8
REMARK VINA RESULT:      -8.1      2.306     10.019
REMARK  Name = 
REMARK  9 active torsions:
REMARK  status: ('A' for Active; 'I' for Inactive)
REMARK    1  A    between atoms: C_1  and  C_2
REMARK    2  A    between atoms: C_3  and  C_4
REMARK    3  A    between atoms: C_4  and  C_5
REMARK    4  A    between atoms: C_5  and  O_7
REMARK    5  A    between atoms: C_15  and  C_17
REMARK    6  A    between atoms: C_20  and  O_21
REMARK    7  A    between atoms: O_21  and  C_22
REMARK    8  A    between atoms: C_22  and  C_23
REMARK    9  A    between atoms: N_25  and  C_26
REMARK                            x       y       z     vdW  Elec       q    Type
REMARK                         _______ _______ _______ _____ _____    ______ ____
ROOT
ATOM      1  C   UNL     1       1.640   8.597  19.441  0.00  0.00    +0.000 A 
ATOM      2  C   UNL     1       1.986   8.287  20.757  0.00  0.00    +0.000 A 
ATOM      3  C   UNL     1       1.234   8.803  21.806  0.00  0.00    +0.000 A 
ATOM      4  C   UNL     1       0.158   9.663  21.561  0.00  0.00    +0.000 A 
ATOM      5  C   UNL     1      -0.088  10.095  20.255  0.00  0.00    +0.000 A 
ATOM      6  C   UNL     1       0.648   9.548  19.201  0.00  0.00    +0.000 A 
ATOM      7  F   UNL     1       0.340   9.924  17.950  0.00  0.00    +0.000 F 
ENDROOT
BRANCH   1  18
ATOM      8  C   UNL     1       4.692   7.195  16.655  0.00  0.00    +0.000 C 
ATOM      9  C   UNL     1       4.071   6.246  17.644  0.00  0.00    +0.000 A 
ATOM     10  C   UNL     1       4.433   4.945  18.012  0.00  0.00    +0.000 A 
ATOM     11  C   UNL     1       3.519   4.555  19.045  0.00  0.00    +0.000 A 
ATOM     12  C   UNL     1       3.404   3.378  19.817  0.00  0.00    +0.000 A 
ATOM     13  C   UNL     1       2.392   3.253  20.771  0.00  0.00    +0.000 A 
ATOM     14  C   UNL     1       1.454   4.260  20.919  0.00  0.00    +0.000 A 
ATOM     15  C   UNL     1       1.517   5.412  20.130  0.00  0.00    +0.000 A 
ATOM     16  C   UNL     1       2.599   5.582  19.236  0.00  0.00    +0.000 A 
ATOM     17  N   UNL     1       2.955   6.652  18.396  0.00  0.00    +0.000 N 
ATOM     18  C   UNL     1       2.336   7.933  18.322  0.00  0.00    +0.000 C 
ATOM     19  O   UNL     1       2.438   8.555  17.267  0.00  0.00    +0.000 OA
BRANCH  10  20
ATOM     20  C   UNL     1       5.505   4.060  17.433  0.00  0.00    +0.000 C 
BRANCH  20  21
ATOM     21  C   UNL     1       6.937   4.557  17.542  0.00  0.00    +0.000 C 
ATOM     22  O   UNL     1       7.520   4.668  18.617  0.00  0.00    +0.000 OA
BRANCH  21  23
ATOM     23  O   UNL     1       7.569   4.816  16.377  0.00  0.00    +0.000 OA
ATOM     24  H   UNL     1       7.353   5.692  16.005  0.00  0.00    +0.000 HD
ENDBRANCH  21  23
ENDBRANCH  20  21
ENDBRANCH  10  20
ENDBRANCH   1  18
BRANCH   4  25
ATOM     25  O   UNL     1      -0.699  10.083  22.548  0.00  0.00    +0.000 OA
BRANCH  25  26
ATOM     26  C   UNL     1      -1.502  11.212  22.153  0.00  0.00    +0.000 C 
BRANCH  26  27
ATOM     27  C   UNL     1      -1.176  12.476  22.955  0.00  0.00    +0.000 C 
ATOM     28  C   UNL     1      -2.185  13.618  22.809  0.00  0.00    +0.000 C 
ATOM     29  N   UNL     1      -2.098  14.252  21.495  0.00  0.00    +0.000 N 
ATOM     30  C   UNL     1      -3.213  15.050  21.023  0.00  0.00    +0.000 C 
ATOM     31  C   UNL     1      -0.861  14.239  20.862  0.00  0.00    +0.000 A 
ATOM     32  C   UNL     1      -0.655  14.828  19.606  0.00  0.00    +0.000 A 
ATOM     33  C   UNL     1       0.564  14.702  18.927  0.00  0.00    +0.000 A 
ATOM     34  C   UNL     1       1.626  14.022  19.514  0.00  0.00    +0.000 A 
ATOM     35  C   UNL     1       1.472  13.474  20.784  0.00  0.00    +0.000 A 
ATOM     36  C   UNL     1       0.238  13.561  21.435  0.00  0.00    +0.000 A 
ATOM     37  O   UNL     1       0.164  12.909  22.649  0.00  0.00    +0.000 OA
ENDBRANCH  26  27
ENDBRANCH  25  26
ENDBRANCH   4  25
TORSDOF 7
ENDMDL
MODEL 9
REMARK VINA RESULT:      -8.1      2.630     10.711
REMARK  Name = 
REMARK  9 active torsions:
REMARK  status: ('A' for Active; 'I' for Inactive)
REMARK    1  A    between atoms: C_1  and  C_2
REMARK    2  A    between atoms: C_3  and  C_4
REMARK    3  A    between atoms: C_4  and  C_5
REMARK    4  A    between atoms: C_5  and  O_7
REMARK    5  A    between atoms: C_15  and  C_17
REMARK    6  A    between atoms: C_20  and  O_21
REMARK    7  A    between atoms: O_21  and  C_22
REMARK    8  A    between atoms: C_22  and  C_23
REMARK    9  A    between atoms: N_25  and  C_26
REMARK                            x       y       z     vdW  Elec       q    Type
REMARK                         _______ _______ _______ _____ _____    ______ ____
ROOT
ATOM      1  C   UNL     1       1.580   8.524  19.356  0.00  0.00    +0.000 A 
ATOM      2  C   UNL     1       1.929   8.308  20.690  0.00  0.00    +0.000 A 
ATOM      3  C   UNL     1       1.108   8.789  21.703  0.00  0.00    +0.000 A 
ATOM      4  C   UNL     1      -0.045   9.522  21.402  0.00  0.00    +0.000 A 
ATOM      5  C   UNL     1      -0.307   9.871  20.075  0.00  0.00    +0.000 A 
ATOM      6  C   UNL     1       0.501   9.357  19.058  0.00  0.00    +0.000 A 
ATOM      7  F   UNL     1       0.182   9.646  17.787  0.00  0.00    +0.000 F 
ENDROOT
BRANCH   1  18
ATOM      8  C   UNL     1       4.841   7.200  16.776  0.00  0.00    +0.000 C 
ATOM      9  C   UNL     1       4.158   6.227  17.699  0.00  0.00    +0.000 A 
ATOM     10  C   UNL     1       4.504   4.923  18.068  0.00  0.00    +0.000 A 
ATOM     11  C   UNL     1       3.520   4.505  19.023  0.00  0.00    +0.000 A 
ATOM     12  C   UNL     1       3.360   3.313  19.762  0.00  0.00    +0.000 A 
ATOM     13  C   UNL     1       2.282   3.161  20.636  0.00  0.00    +0.000 A 
ATOM     14  C   UNL     1       1.326   4.158  20.734  0.00  0.00    +0.000 A 
ATOM     15  C   UNL     1       1.436   5.325  19.974  0.00  0.00    +0.000 A 
ATOM     16  C   UNL     1       2.579   5.522  19.165  0.00  0.00    +0.000 A 
ATOM     17  N   UNL     1       2.986   6.610  18.374  0.00  0.00    +0.000 N 
ATOM     18  C   UNL     1       2.362   7.887  18.279  0.00  0.00    +0.000 C 
ATOM     19  O   UNL     1       2.535   8.530  17.246  0.00  0.00    +0.000 OA
BRANCH  10  20
ATOM     20  C   UNL     1       5.623   4.057  17.553  0.00  0.00    +0.000 C 
BRANCH  20  21
ATOM     21  C   UNL     1       7.040   4.546  17.807  0.00  0.00    +0.000 C 
ATOM     22  O   UNL     1       7.438   4.874  18.921  0.00  0.00    +0.000 OA
BRANCH  21  23
ATOM     23  O   UNL     1       7.871   4.542  16.743  0.00  0.00    +0.000 OA
ATOM     24  H   UNL     1       8.786   4.281  16.967  0.00  0.00    +0.000 HD
ENDBRANCH  21  23
ENDBRANCH  20  21
ENDBRANCH  10  20
ENDBRANCH   1  18
BRANCH   4  25
ATOM     25  O   UNL     1      -0.960   9.895  22.357  0.00  0.00    +0.000 OA
BRANCH  25  26
ATOM     26  C   UNL     1      -0.799  11.260  22.787  0.00  0.00    +0.000 C 
BRANCH  26  27
ATOM     27  C   UNL     1      -1.464  12.260  21.837  0.00  0.00    +0.000 C 
ATOM     28  C   UNL     1      -0.548  13.366  21.308  0.00  0.00    +0.000 C 
ATOM     29  N   UNL     1      -0.225  14.343  22.345  0.00  0.00    +0.000 N 
ATOM     30  C   UNL     1       0.927  15.206  22.166  0.00  0.00    +0.000 C 
ATOM     31  C   UNL     1      -1.168  14.545  23.346  0.00  0.00    +0.000 A 
ATOM     32  C   UNL     1      -0.974  15.467  24.385  0.00  0.00    +0.000 A 
ATOM     33  C   UNL     1      -1.876  15.573  25.450  0.00  0.00    +0.000 A 
ATOM     34  C   UNL     1      -3.025  14.790  25.476  0.00  0.00    +0.000 A 
ATOM     35  C   UNL     1      -3.276  13.905  24.432  0.00  0.00    +0.000 A 
ATOM     36  C   UNL     1      -2.347  13.768  23.396  0.00  0.00    +0.000 A 
ATOM     37  O   UNL     1      -2.647  12.802  22.458  0.00  0.00    +0.000 OA
ENDBRANCH  26  27
ENDBRANCH  25  26
ENDBRANCH   4  25
TORSDOF 7
ENDMDL
