MODEL 1
REMARK VINA RESULT:      -7.9      0.000      0.000
REMARK  Name = 
REMARK  5 active torsions:
REMARK  status: ('A' for Active; 'I' for Inactive)
REMARK    1  A    between atoms: C_2  and  O_3
REMARK    2  A    between atoms: C_2  and  C_4
REMARK    3  A    between atoms: C_4  and  S_5
REMARK    4  A    between atoms: S_5  and  C_8
REMARK    5  A    between atoms: C_12  and  C_13
REMARK                            x       y       z     vdW  Elec       q    Type
REMARK                         _______ _______ _______ _____ _____    ______ ____
ROOT
ATOM      1  C   UNL     1       5.346   5.764  17.173  0.00  0.00    +0.000 A 
ATOM      2  C   UNL     1       4.917   7.060  16.891  0.00  0.00    +0.000 A 
ATOM      3  C   UNL     1       3.693   7.490  17.391  0.00  0.00    +0.000 A 
ATOM      4  C   UNL     1       2.911   6.627  18.164  0.00  0.00    +0.000 A 
ATOM      5  C   UNL     1       3.325   5.313  18.463  0.00  0.00    +0.000 A 
ATOM      6  C   UNL     1       4.557   4.893  17.936  0.00  0.00    +0.000 A 
ENDROOT
BRANCH   5   7
ATOM      7  C   UNL     1       2.499   4.423  19.313  0.00  0.00    +0.000 A 
ATOM      8  C   UNL     1       1.473   3.621  18.776  0.00  0.00    +0.000 A 
ATOM      9  C   UNL     1       0.698   2.788  19.591  0.00  0.00    +0.000 A 
ATOM     10  C   UNL     1       0.923   2.746  20.962  0.00  0.00    +0.000 A 
ATOM     11  C   UNL     1       1.933   3.521  21.519  0.00  0.00    +0.000 A 
ATOM     12  C   UNL     1       2.714   4.340  20.702  0.00  0.00    +0.000 A 
ENDBRANCH   5   7
BRANCH   1  13
ATOM     13  S   UNL     1       6.905   5.191  16.559  0.00  0.00    +0.000 S 
ATOM     14  O   UNL     1       7.625   6.331  16.004  0.00  0.00    +0.000 OA
ATOM     15  O   UNL     1       6.636   4.024  15.746  0.00  0.00    +0.000 OA
BRANCH  13  16
ATOM     16  C   UNL     1       7.840   4.679  17.948  0.00  0.00    +0.000 C 
BRANCH  16  18
ATOM     17  O   UNL     1       7.348   5.407  20.157  0.00  0.00    +0.000 OA
ATOM     18  C   UNL     1       7.777   5.682  19.044  0.00  0.00    +0.000 C 
BRANCH  18  19
ATOM     19  O   UNL     1       8.294   6.896  18.767  0.00  0.00    +0.000 OA
ATOM     20  H   UNL     1       9.191   7.085  19.127  0.00  0.00    +0.000 HD
ENDBRANCH  18  19
ENDBRANCH  16  18
ENDBRANCH  13  16
ENDBRANCH   1  13
TORSDOF 5
ENDMDL
MODEL 2
REMARK VINA RESULT:      -7.8      1.833      3.415
REMARK  Name = 
REMARK  5 active torsions:
REMARK  status: ('A' for Active; 'I' for Inactive)
REMARK    1  A    between atoms: C_2  and  O_3
REMARK    2  A    between atoms: C_2  and  C_4
REMARK    3  A    between atoms: C_4  and  S_5
REMARK    4  A    between atoms: S_5  and  C_8
REMARK    5  A    between atoms: C_12  and  C_13
REMARK                            x       y       z     vdW  Elec       q    Type
REMARK                         _______ _______ _______ _____ _____    ______ ____
ROOT
ATOM      1  C   UNL     1       5.025   5.139  17.076  0.00  0.00    +0.000 A 
ATOM      2  C   UNL     1       4.341   3.929  16.978  0.00  0.00    +0.000 A 
ATOM      3  C   UNL     1       3.018   3.865  17.401  0.00  0.00    +0.000 A 
ATOM      4  C   UNL     1       2.392   5.004  17.916  0.00  0.00    +0.000 A 
ATOM      5  C   UNL     1       3.064   6.239  18.023  0.00  0.00    +0.000 A 
ATOM      6  C   UNL     1       4.404   6.278  17.605  0.00  0.00    +0.000 A 
ENDROOT
BRANCH   5   7
ATOM      7  C   UNL     1       2.374   7.445  18.539  0.00  0.00    +0.000 A 
ATOM      8  C   UNL     1       1.956   7.548  19.881  0.00  0.00    +0.000 A 
ATOM      9  C   UNL     1       1.303   8.692  20.354  0.00  0.00    +0.000 A 
ATOM     10  C   UNL     1       1.042   9.753  19.495  0.00  0.00    +0.000 A 
ATOM     11  C   UNL     1       1.449   9.683  18.168  0.00  0.00    +0.000 A 
ATOM     12  C   UNL     1       2.114   8.547  17.702  0.00  0.00    +0.000 A 
ENDBRANCH   5   7
BRANCH   1  13
ATOM     13  S   UNL     1       6.708   5.254  16.536  0.00  0.00    +0.000 S 
ATOM     14  O   UNL     1       7.035   6.664  16.359  0.00  0.00    +0.000 OA
ATOM     15  O   UNL     1       6.865   4.319  15.441  0.00  0.00    +0.000 OA
BRANCH  13  16
ATOM     16  C   UNL     1       7.707   4.704  17.865  0.00  0.00    +0.000 C 
BRANCH  16  18
ATOM     17  O   UNL     1       7.156   5.427  20.062  0.00  0.00    +0.000 OA
ATOM     18  C   UNL     1       7.694   5.676  18.991  0.00  0.00    +0.000 C 
BRANCH  18  19
ATOM     19  O   UNL     1       8.379   6.821  18.794  0.00  0.00    +0.000 OA
ATOM     20  H   UNL     1       8.370   7.189  17.881  0.00  0.00    +0.000 HD
ENDBRANCH  18  19
ENDBRANCH  16  18
ENDBRANCH  13  16
ENDBRANCH   1  13
TORSDOF 5
ENDMDL
MODEL 3
REMARK VINA RESULT:      -7.8      0.193      1.114
REMARK  Name = 
REMARK  5 active torsions:
REMARK  status: ('A' for Active; 'I' for Inactive)
REMARK    1  A    between atoms: C_2  and  O_3
REMARK    2  A    between atoms: C_2  and  C_4
REMARK    3  A    between atoms: C_4  and  S_5
REMARK    4  A    between atoms: S_5  and  C_8
REMARK    5  A    between atoms: C_12  and  C_13
REMARK                            x       y       z     vdW  Elec       q    Type
REMARK                         _______ _______ _______ _____ _____    ______ ____
ROOT
ATOM      1  C   UNL     1       5.314   5.704  17.084  0.00  0.00    +0.000 A 
ATOM      2  C   UNL     1       4.937   7.023  16.839  0.00  0.00    +0.000 A 
ATOM      3  C   UNL     1       3.728   7.485  17.346  0.00  0.00    +0.000 A 
ATOM      4  C   UNL     1       2.908   6.630  18.088  0.00  0.00    +0.000 A 
ATOM      5  C   UNL     1       3.269   5.293  18.350  0.00  0.00    +0.000 A 
ATOM      6  C   UNL     1       4.488   4.842  17.817  0.00  0.00    +0.000 A 
ENDROOT
BRANCH   5   7
ATOM      7  C   UNL     1       2.404   4.411  19.168  0.00  0.00    +0.000 A 
ATOM      8  C   UNL     1       2.455   4.413  20.576  0.00  0.00    +0.000 A 
ATOM      9  C   UNL     1       1.634   3.572  21.336  0.00  0.00    +0.000 A 
ATOM     10  C   UNL     1       0.752   2.701  20.706  0.00  0.00    +0.000 A 
ATOM     11  C   UNL     1       0.674   2.682  19.319  0.00  0.00    +0.000 A 
ATOM     12  C   UNL     1       1.484   3.533  18.564  0.00  0.00    +0.000 A 
ENDBRANCH   5   7
BRANCH   1  13
ATOM     13  S   UNL     1       6.854   5.090  16.462  0.00  0.00    +0.000 S 
ATOM     14  O   UNL     1       7.573   6.198  15.845  0.00  0.00    +0.000 OA
ATOM     15  O   UNL     1       6.556   3.893  15.703  0.00  0.00    +0.000 OA
BRANCH  13  16
ATOM     16  C   UNL     1       7.814   4.624  17.851  0.00  0.00    +0.000 C 
BRANCH  16  18
ATOM     17  O   UNL     1       7.337   5.360  20.061  0.00  0.00    +0.000 OA
ATOM     18  C   UNL     1       7.727   5.639  18.934  0.00  0.00    +0.000 C 
BRANCH  18  19
ATOM     19  O   UNL     1       8.180   6.873  18.629  0.00  0.00    +0.000 OA
ATOM     20  H   UNL     1       9.146   6.958  18.463  0.00  0.00    +0.000 HD
ENDBRANCH  18  19
ENDBRANCH  16  18
ENDBRANCH  13  16
ENDBRANCH   1  13
TORSDOF 5
ENDMDL
MODEL 4
REMARK VINA RESULT:      -7.6      3.845      6.267
REMARK  Name = 
REMARK  5 active torsions:
REMARK  status: ('A' for Active; 'I' for Inactive)
REMARK    1  A    between atoms: C_2  and  O_3
REMARK    2  A    between atoms: C_2  and  C_4
REMARK    3  A    between atoms: C_4  and  S_5
REMARK    4  A    between atoms: S_5  and  C_8
REMARK    5  A    between atoms: C_12  and  C_13
REMARK                            x       y       z     vdW  Elec       q    Type
REMARK                         _______ _______ _______ _____ _____    ______ ____
ROOT
ATOM      1  C   UNL     1       4.272   4.516  17.916  0.00  0.00    +0.000 A 
ATOM      2  C   UNL     1       4.127   5.870  18.213  0.00  0.00    +0.000 A 
ATOM      3  C   UNL     1       4.563   6.814  17.290  0.00  0.00    +0.000 A 
ATOM      4  C   UNL     1       5.138   6.400  16.084  0.00  0.00    +0.000 A 
ATOM      5  C   UNL     1       5.292   5.037  15.762  0.00  0.00    +0.000 A 
ATOM      6  C   UNL     1       4.859   4.100  16.714  0.00  0.00    +0.000 A 
ENDROOT
BRANCH   5   7
ATOM      7  C   UNL     1       5.873   4.616  14.464  0.00  0.00    +0.000 A 
ATOM      8  C   UNL     1       5.217   3.705  13.614  0.00  0.00    +0.000 A 
ATOM      9  C   UNL     1       5.778   3.314  12.393  0.00  0.00    +0.000 A 
ATOM     10  C   UNL     1       7.013   3.816  12.000  0.00  0.00    +0.000 A 
ATOM     11  C   UNL     1       7.681   4.723  12.815  0.00  0.00    +0.000 A 
ATOM     12  C   UNL     1       7.111   5.122  14.025  0.00  0.00    +0.000 A 
ENDBRANCH   5   7
BRANCH   1  13
ATOM     13  S   UNL     1       3.716   3.290  19.066  0.00  0.00    +0.000 S 
ATOM     14  O   UNL     1       4.882   2.737  19.745  0.00  0.00    +0.000 OA
ATOM     15  O   UNL     1       2.802   2.424  18.351  0.00  0.00    +0.000 OA
BRANCH  13  16
ATOM     16  C   UNL     1       2.807   4.130  20.306  0.00  0.00    +0.000 C 
BRANCH  16  18
ATOM     17  O   UNL     1       2.171   2.710  22.102  0.00  0.00    +0.000 OA
ATOM     18  C   UNL     1       1.887   3.207  21.021  0.00  0.00    +0.000 C 
BRANCH  18  19
ATOM     19  O   UNL     1       0.680   3.011  20.450  0.00  0.00    +0.000 OA
ATOM     20  H   UNL     1      -0.097   3.009  21.053  0.00  0.00    +0.000 HD
ENDBRANCH  18  19
ENDBRANCH  16  18
ENDBRANCH  13  16
ENDBRANCH   1  13
TORSDOF 5
ENDMDL
MODEL 5
REMARK VINA RESULT:      -7.6      2.070      3.502
REMARK  Name = 
REMARK  5 active torsions:
REMARK  status: ('A' for Active; 'I' for Inactive)
REMARK    1  A    between atoms: C_2  and  O_3
REMARK    2  A    between atoms: C_2  and  C_4
REMARK    3  A    between atoms: C_4  and  S_5
REMARK    4  A    between atoms: S_5  and  C_8
REMARK    5  A    between atoms: C_12  and  C_13
REMARK                            x       y       z     vdW  Elec       q    Type
REMARK                         _______ _______ _______ _____ _____    ______ ____
ROOT
ATOM      1  C   UNL     1       4.503   5.182  16.920  0.00  0.00    +0.000 A 
ATOM      2  C   UNL     1       3.873   3.949  17.075  0.00  0.00    +0.000 A 
ATOM      3  C   UNL     1       2.678   3.886  17.783  0.00  0.00    +0.000 A 
ATOM      4  C   UNL     1       2.126   5.048  18.329  0.00  0.00    +0.000 A 
ATOM      5  C   UNL     1       2.745   6.306  18.184  0.00  0.00    +0.000 A 
ATOM      6  C   UNL     1       3.959   6.346  17.478  0.00  0.00    +0.000 A 
ENDROOT
BRANCH   5   7
ATOM      7  C   UNL     1       2.128   7.534  18.741  0.00  0.00    +0.000 A 
ATOM      8  C   UNL     1       1.828   8.649  17.934  0.00  0.00    +0.000 A 
ATOM      9  C   UNL     1       1.248   9.803  18.474  0.00  0.00    +0.000 A 
ATOM     10  C   UNL     1       0.966   9.873  19.833  0.00  0.00    +0.000 A 
ATOM     11  C   UNL     1       1.244   8.785  20.652  0.00  0.00    +0.000 A 
ATOM     12  C   UNL     1       1.809   7.630  20.109  0.00  0.00    +0.000 A 
ENDBRANCH   5   7
BRANCH   1  13
ATOM     13  S   UNL     1       6.020   5.297  16.014  0.00  0.00    +0.000 S 
ATOM     14  O   UNL     1       5.842   6.273  14.946  0.00  0.00    +0.000 OA
ATOM     15  O   UNL     1       6.435   3.943  15.711  0.00  0.00    +0.000 OA
BRANCH  13  16
ATOM     16  C   UNL     1       7.207   5.996  17.095  0.00  0.00    +0.000 C 
BRANCH  16  18
ATOM     17  O   UNL     1       7.163   5.142  19.313  0.00  0.00    +0.000 OA
ATOM     18  C   UNL     1       7.588   5.042  18.170  0.00  0.00    +0.000 C 
BRANCH  18  19
ATOM     19  O   UNL     1       8.369   4.008  17.796  0.00  0.00    +0.000 OA
ATOM     20  H   UNL     1       8.860   4.111  16.949  0.00  0.00    +0.000 HD
ENDBRANCH  18  19
ENDBRANCH  16  18
ENDBRANCH  13  16
ENDBRANCH   1  13
TORSDOF 5
ENDMDL
MODEL 6
REMARK VINA RESULT:      -7.6      1.147      2.577
REMARK  Name = 
REMARK  5 active torsions:
REMARK  status: ('A' for Active; 'I' for Inactive)
REMARK    1  A    between atoms: C_2  and  O_3
REMARK    2  A    between atoms: C_2  and  C_4
REMARK    3  A    between atoms: C_4  and  S_5
REMARK    4  A    between atoms: S_5  and  C_8
REMARK    5  A    between atoms: C_12  and  C_13
REMARK                            x       y       z     vdW  Elec       q    Type
REMARK                         _______ _______ _______ _____ _____    ______ ____
ROOT
ATOM      1  C   UNL     1       5.462   6.051  17.670  0.00  0.00    +0.000 A 
ATOM      2  C   UNL     1       4.892   7.219  17.165  0.00  0.00    +0.000 A 
ATOM      3  C   UNL     1       3.555   7.488  17.433  0.00  0.00    +0.000 A 
ATOM      4  C   UNL     1       2.801   6.593  18.198  0.00  0.00    +0.000 A 
ATOM      5  C   UNL     1       3.356   5.408  18.720  0.00  0.00    +0.000 A 
ATOM      6  C   UNL     1       4.704   5.147  18.426  0.00  0.00    +0.000 A 
ENDROOT
BRANCH   5   7
ATOM      7  C   UNL     1       2.550   4.488  19.558  0.00  0.00    +0.000 A 
ATOM      8  C   UNL     1       2.820   4.297  20.928  0.00  0.00    +0.000 A 
ATOM      9  C   UNL     1       2.053   3.422  21.706  0.00  0.00    +0.000 A 
ATOM     10  C   UNL     1       1.008   2.709  21.131  0.00  0.00    +0.000 A 
ATOM     11  C   UNL     1       0.713   2.883  19.784  0.00  0.00    +0.000 A 
ATOM     12  C   UNL     1       1.471   3.767  19.013  0.00  0.00    +0.000 A 
ENDBRANCH   5   7
BRANCH   1  13
ATOM     13  S   UNL     1       7.166   5.686  17.356  0.00  0.00    +0.000 S 
ATOM     14  O   UNL     1       7.753   5.153  18.579  0.00  0.00    +0.000 OA
ATOM     15  O   UNL     1       7.737   6.852  16.714  0.00  0.00    +0.000 OA
BRANCH  13  16
ATOM     16  C   UNL     1       7.199   4.365  16.207  0.00  0.00    +0.000 C 
BRANCH  16  18
ATOM     17  O   UNL     1       5.708   4.675  14.381  0.00  0.00    +0.000 OA
ATOM     18  C   UNL     1       6.832   4.826  14.841  0.00  0.00    +0.000 C 
BRANCH  18  19
ATOM     19  O   UNL     1       7.787   5.496  14.165  0.00  0.00    +0.000 OA
ATOM     20  H   UNL     1       7.713   6.477  14.153  0.00  0.00    +0.000 HD
ENDBRANCH  18  19
ENDBRANCH  16  18
ENDBRANCH  13  16
ENDBRANCH   1  13
TORSDOF 5
ENDMDL
MODEL 7
REMARK VINA RESULT:      -7.5      0.995      2.195
REMARK  Name = 
REMARK  5 active torsions:
REMARK  status: ('A' for Active; 'I' for Inactive)
REMARK    1  A    between atoms: C_2  and  O_3
REMARK    2  A    between atoms: C_2  and  C_4
REMARK    3  A    between atoms: C_4  and  S_5
REMARK    4  A    between atoms: S_5  and  C_8
REMARK    5  A    between atoms: C_12  and  C_13
REMARK                            x       y       z     vdW  Elec       q    Type
REMARK                         _______ _______ _______ _____ _____    ______ ____
ROOT
ATOM      1  C   UNL     1       5.464   6.288  17.772  0.00  0.00    +0.000 A 
ATOM      2  C   UNL     1       4.843   7.400  17.208  0.00  0.00    +0.000 A 
ATOM      3  C   UNL     1       3.475   7.572  17.385  0.00  0.00    +0.000 A 
ATOM      4  C   UNL     1       2.742   6.635  18.119  0.00  0.00    +0.000 A 
ATOM      5  C   UNL     1       3.348   5.503  18.700  0.00  0.00    +0.000 A 
ATOM      6  C   UNL     1       4.729   5.341  18.496  0.00  0.00    +0.000 A 
ENDROOT
BRANCH   5   7
ATOM      7  C   UNL     1       2.561   4.538  19.504  0.00  0.00    +0.000 A 
ATOM      8  C   UNL     1       1.537   3.755  18.937  0.00  0.00    +0.000 A 
ATOM      9  C   UNL     1       0.800   2.850  19.709  0.00  0.00    +0.000 A 
ATOM     10  C   UNL     1       1.061   2.717  21.068  0.00  0.00    +0.000 A 
ATOM     11  C   UNL     1       2.070   3.471  21.654  0.00  0.00    +0.000 A 
ATOM     12  C   UNL     1       2.814   4.362  20.878  0.00  0.00    +0.000 A 
ENDBRANCH   5   7
BRANCH   1  13
ATOM     13  S   UNL     1       7.207   6.047  17.573  0.00  0.00    +0.000 S 
ATOM     14  O   UNL     1       7.804   5.915  18.896  0.00  0.00    +0.000 OA
ATOM     15  O   UNL     1       7.672   7.066  16.655  0.00  0.00    +0.000 OA
BRANCH  13  16
ATOM     16  C   UNL     1       7.421   4.488  16.805  0.00  0.00    +0.000 C 
BRANCH  16  18
ATOM     17  O   UNL     1       5.948   3.897  15.035  0.00  0.00    +0.000 OA
ATOM     18  C   UNL     1       6.945   4.509  15.396  0.00  0.00    +0.000 C 
BRANCH  18  19
ATOM     19  O   UNL     1       7.628   5.308  14.551  0.00  0.00    +0.000 OA
ATOM     20  H   UNL     1       7.217   6.176  14.337  0.00  0.00    +0.000 HD
ENDBRANCH  18  19
ENDBRANCH  16  18
ENDBRANCH  13  16
ENDBRANCH   1  13
TORSDOF 5
ENDMDL
MODEL 8
REMARK VINA RESULT:      -7.5      3.680      6.283
REMARK  Name = 
REMARK  5 active torsions:
REMARK  status: ('A' for Active; 'I' for Inactive)
REMARK    1  A    between atoms: C_2  and  O_3
REMARK    2  A    between atoms: C_2  and  C_4
REMARK    3  A    between atoms: C_4  and  S_5
REMARK    4  A    between atoms: S_5  and  C_8
REMARK    5  A    between atoms: C_12  and  C_13
REMARK                            x       y       z     vdW  Elec       q    Type
REMARK                         _______ _______ _______ _____ _____    ______ ____
ROOT
ATOM      1  C   UNL     1       4.285   4.028  17.882  0.00  0.00    +0.000 A 
ATOM      2  C   UNL     1       4.033   5.336  18.290  0.00  0.00    +0.000 A 
ATOM      3  C   UNL     1       4.412   6.387  17.463  0.00  0.00    +0.000 A 
ATOM      4  C   UNL     1       5.038   6.124  16.240  0.00  0.00    +0.000 A 
ATOM      5  C   UNL     1       5.301   4.809  15.806  0.00  0.00    +0.000 A 
ATOM      6  C   UNL     1       4.923   3.763  16.663  0.00  0.00    +0.000 A 
ENDROOT
BRANCH   5   7
ATOM      7  C   UNL     1       5.935   4.548  14.491  0.00  0.00    +0.000 A 
ATOM      8  C   UNL     1       7.152   5.150  14.117  0.00  0.00    +0.000 A 
ATOM      9  C   UNL     1       7.737   4.897  12.871  0.00  0.00    +0.000 A 
ATOM     10  C   UNL     1       7.113   4.047  11.966  0.00  0.00    +0.000 A 
ATOM     11  C   UNL     1       5.914   3.433  12.310  0.00  0.00    +0.000 A 
ATOM     12  C   UNL     1       5.340   3.675  13.560  0.00  0.00    +0.000 A 
ENDBRANCH   5   7
BRANCH   1  13
ATOM     13  S   UNL     1       3.803   2.668  18.909  0.00  0.00    +0.000 S 
ATOM     14  O   UNL     1       4.724   2.598  20.036  0.00  0.00    +0.000 OA
ATOM     15  O   UNL     1       3.619   1.526  18.038  0.00  0.00    +0.000 OA
BRANCH  13  16
ATOM     16  C   UNL     1       2.247   3.078  19.600  0.00  0.00    +0.000 C 
BRANCH  16  18
ATOM     17  O   UNL     1       2.319   4.695  21.341  0.00  0.00    +0.000 OA
ATOM     18  C   UNL     1       2.382   3.518  21.014  0.00  0.00    +0.000 C 
BRANCH  18  19
ATOM     19  O   UNL     1       2.496   2.535  21.932  0.00  0.00    +0.000 OA
ATOM     20  H   UNL     1       1.989   1.710  21.759  0.00  0.00    +0.000 HD
ENDBRANCH  18  19
ENDBRANCH  16  18
ENDBRANCH  13  16
ENDBRANCH   1  13
TORSDOF 5
ENDMDL
MODEL 9
REMARK VINA RESULT:      -7.5      2.207      4.113
REMARK  Name = 
REMARK  5 active torsions:
REMARK  status: ('A' for Active; 'I' for Inactive)
REMARK    1  A    between atoms: C_2  and  O_3
REMARK    2  A    between atoms: C_2  and  C_4
REMARK    3  A    between atoms: C_4  and  S_5
REMARK    4  A    between atoms: S_5  and  C_8
REMARK    5  A    between atoms: C_12  and  C_13
REMARK                            x       y       z     vdW  Elec       q    Type
REMARK                         _______ _______ _______ _____ _____    ______ ____
ROOT
ATOM      1  C   UNL     1       5.047   5.167  17.480  0.00  0.00    +0.000 A 
ATOM      2  C   UNL     1       4.345   3.980  17.282  0.00  0.00    +0.000 A 
ATOM      3  C   UNL     1       2.980   3.952  17.540  0.00  0.00    +0.000 A 
ATOM      4  C   UNL     1       2.329   5.103  17.992  0.00  0.00    +0.000 A 
ATOM      5  C   UNL     1       3.017   6.316  18.198  0.00  0.00    +0.000 A 
ATOM      6  C   UNL     1       4.399   6.319  17.946  0.00  0.00    +0.000 A 
ENDROOT
BRANCH   5   7
ATOM      7  C   UNL     1       2.305   7.536  18.646  0.00  0.00    +0.000 A 
ATOM      8  C   UNL     1       2.017   8.597  17.765  0.00  0.00    +0.000 A 
ATOM      9  C   UNL     1       1.347   9.745  18.202  0.00  0.00    +0.000 A 
ATOM     10  C   UNL     1       0.960   9.865  19.532  0.00  0.00    +0.000 A 
ATOM     11  C   UNL     1       1.224   8.831  20.422  0.00  0.00    +0.000 A 
ATOM     12  C   UNL     1       1.880   7.680  19.980  0.00  0.00    +0.000 A 
ENDBRANCH   5   7
BRANCH   1  13
ATOM     13  S   UNL     1       6.785   5.238  17.150  0.00  0.00    +0.000 S 
ATOM     14  O   UNL     1       7.494   4.725  18.316  0.00  0.00    +0.000 OA
ATOM     15  O   UNL     1       7.065   6.567  16.645  0.00  0.00    +0.000 OA
BRANCH  13  16
ATOM     16  C   UNL     1       7.105   4.093  15.865  0.00  0.00    +0.000 C 
BRANCH  16  18
ATOM     17  O   UNL     1       5.757   4.450  13.940  0.00  0.00    +0.000 OA
ATOM     18  C   UNL     1       6.804   4.677  14.531  0.00  0.00    +0.000 C 
BRANCH  18  19
ATOM     19  O   UNL     1       7.718   5.541  14.042  0.00  0.00    +0.000 OA
ATOM     20  H   UNL     1       8.388   5.880  14.678  0.00  0.00    +0.000 HD
ENDBRANCH  18  19
ENDBRANCH  16  18
ENDBRANCH  13  16
ENDBRANCH   1  13
TORSDOF 5
ENDMDL
