MODEL 1
REMARK VINA RESULT:      -7.8      0.000      0.000
REMARK  Name = 
REMARK  7 active torsions:
REMARK  status: ('A' for Active; 'I' for Inactive)
REMARK    1  A    between atoms: C_4  and  N_5
REMARK    2  A    between atoms: N_5  and  C_6
REMARK    3  A    between atoms: N_14  and  C_15
REMARK    4  A    between atoms: C_15  and  C_16
REMARK    5  A    between atoms: C_16  and  O_17
REMARK    6  A    between atoms: C_16  and  C_18
REMARK    7  A    between atoms: C_18  and  N_19
REMARK                            x       y       z     vdW  Elec       q    Type
REMARK                         _______ _______ _______ _____ _____    ______ ____
ROOT
ATOM      1  O   UNL     1       4.543   2.317  20.679  0.00  0.00    +0.000 OA
ATOM      2  C   UNL     1       4.170   2.763  19.597  0.00  0.00    +0.000 A 
ATOM      3  C   UNL     1       5.133   3.494  18.748  0.00  0.00    +0.000 A 
ATOM      4  C   UNL     1       4.790   3.988  17.539  0.00  0.00    +0.000 A 
ATOM      5  C   UNL     1       3.467   3.685  17.039  0.00  0.00    +0.000 A 
ATOM      6  C   UNL     1       2.561   3.087  17.819  0.00  0.00    +0.000 A 
ATOM      7  N   UNL     1       2.876   2.662  19.100  0.00  0.00    +0.000 N 
ENDROOT
BRANCH   4   8
ATOM      8  N   UNL     1       5.640   4.770  16.762  0.00  0.00    +0.000 N 
ATOM      9  H   UNL     1       5.212   5.128  15.910  0.00  0.00    +0.000 HD
BRANCH   8  10
ATOM     10  C   UNL     1       6.483   5.760  17.333  0.00  0.00    +0.000 A 
ATOM     11  C   UNL     1       6.414   7.072  16.853  0.00  0.00    +0.000 A 
ATOM     12  C   UNL     1       7.272   8.059  17.353  0.00  0.00    +0.000 A 
ATOM     13  C   UNL     1       8.180   7.751  18.365  0.00  0.00    +0.000 A 
ATOM     14  C   UNL     1       8.211   6.467  18.898  0.00  0.00    +0.000 A 
ATOM     15  C   UNL     1       7.362   5.480  18.391  0.00  0.00    +0.000 A 
ENDBRANCH   8  10
ENDBRANCH   4   8
BRANCH   7  16
ATOM     16  C   UNL     1       1.825   2.101  19.960  0.00  0.00    +0.000 C 
BRANCH  16  17
ATOM     17  C   UNL     1       1.219   3.117  20.940  0.00  0.00    +0.000 C 
BRANCH  17  18
ATOM     18  O   UNL     1       2.129   3.369  22.028  0.00  0.00    +0.000 OA
ATOM     19  H   UNL     1       2.063   2.622  22.652  0.00  0.00    +0.000 HD
ENDBRANCH  17  18
BRANCH  17  20
ATOM     20  C   UNL     1       0.922   4.473  20.272  0.00  0.00    +0.000 C 
BRANCH  20  21
ATOM     21  N   UNL     1       1.726   5.668  20.603  0.00  0.00    +0.000 NA
ATOM     22  C   UNL     1       0.799   6.611  21.273  0.00  0.00    +0.000 C 
ATOM     23  C   UNL     1       1.376   8.000  21.428  0.00  0.00    +0.000 C 
ATOM     24  C   UNL     1       1.529   8.526  20.038  0.00  0.00    +0.000 A 
ATOM     25  C   UNL     1       0.934   9.713  19.613  0.00  0.00    +0.000 A 
ATOM     26  C   UNL     1       1.224  10.210  18.348  0.00  0.00    +0.000 A 
ATOM     27  C   UNL     1       2.166   9.557  17.552  0.00  0.00    +0.000 A 
ATOM     28  C   UNL     1       2.673   8.312  17.941  0.00  0.00    +0.000 A 
ATOM     29  C   UNL     1       2.253   7.731  19.143  0.00  0.00    +0.000 A 
ATOM     30  C   UNL     1       2.495   6.259  19.466  0.00  0.00    +0.000 C 
ENDBRANCH  20  21
ENDBRANCH  17  20
ENDBRANCH  16  17
ENDBRANCH   7  16
TORSDOF 7
ENDMDL
MODEL 2
REMARK VINA RESULT:      -7.6      4.326      7.956
REMARK  Name = 
REMARK  7 active torsions:
REMARK  status: ('A' for Active; 'I' for Inactive)
REMARK    1  A    between atoms: C_4  and  N_5
REMARK    2  A    between atoms: N_5  and  C_6
REMARK    3  A    between atoms: N_14  and  C_15
REMARK    4  A    between atoms: C_15  and  C_16
REMARK    5  A    between atoms: C_16  and  O_17
REMARK    6  A    between atoms: C_16  and  C_18
REMARK    7  A    between atoms: C_18  and  N_19
REMARK                            x       y       z     vdW  Elec       q    Type
REMARK                         _______ _______ _______ _____ _____    ______ ____
ROOT
ATOM      1  O   UNL     1       5.552   6.764  15.267  0.00  0.00    +0.000 OA
ATOM      2  C   UNL     1       5.813   6.125  16.284  0.00  0.00    +0.000 A 
ATOM      3  C   UNL     1       5.012   4.926  16.606  0.00  0.00    +0.000 A 
ATOM      4  C   UNL     1       5.264   4.170  17.697  0.00  0.00    +0.000 A 
ATOM      5  C   UNL     1       6.424   4.504  18.493  0.00  0.00    +0.000 A 
ATOM      6  C   UNL     1       7.118   5.622  18.257  0.00  0.00    +0.000 A 
ATOM      7  N   UNL     1       6.806   6.458  17.197  0.00  0.00    +0.000 N 
ENDROOT
BRANCH   4   8
ATOM      8  N   UNL     1       4.465   3.099  18.086  0.00  0.00    +0.000 N 
ATOM      9  H   UNL     1       4.986   2.307  18.460  0.00  0.00    +0.000 HD
BRANCH   8  10
ATOM     10  C   UNL     1       3.268   3.283  18.826  0.00  0.00    +0.000 A 
ATOM     11  C   UNL     1       2.146   2.509  18.510  0.00  0.00    +0.000 A 
ATOM     12  C   UNL     1       0.933   2.708  19.180  0.00  0.00    +0.000 A 
ATOM     13  C   UNL     1       0.841   3.654  20.199  0.00  0.00    +0.000 A 
ATOM     14  C   UNL     1       1.968   4.382  20.569  0.00  0.00    +0.000 A 
ATOM     15  C   UNL     1       3.175   4.191  19.893  0.00  0.00    +0.000 A 
ENDBRANCH   8  10
ENDBRANCH   4   8
BRANCH   7  16
ATOM     16  C   UNL     1       7.528   7.727  17.033  0.00  0.00    +0.000 C 
BRANCH  16  17
ATOM     17  C   UNL     1       7.858   8.428  18.360  0.00  0.00    +0.000 C 
BRANCH  17  18
ATOM     18  O   UNL     1       8.907   7.723  19.052  0.00  0.00    +0.000 OA
ATOM     19  H   UNL     1       8.579   6.828  19.260  0.00  0.00    +0.000 HD
ENDBRANCH  17  18
BRANCH  17  20
ATOM     20  C   UNL     1       8.341   9.876  18.156  0.00  0.00    +0.000 C 
BRANCH  20  21
ATOM     21  N   UNL     1       9.624  10.331  18.732  0.00  0.00    +0.000 NA
ATOM     22  C   UNL     1       9.287  10.962  20.031  0.00  0.00    +0.000 C 
ATOM     23  C   UNL     1      10.438  11.737  20.631  0.00  0.00    +0.000 C 
ATOM     24  C   UNL     1      10.682  12.876  19.695  0.00  0.00    +0.000 A 
ATOM     25  C   UNL     1      10.648  14.208  20.108  0.00  0.00    +0.000 A 
ATOM     26  C   UNL     1      11.013  15.210  19.217  0.00  0.00    +0.000 A 
ATOM     27  C   UNL     1      11.482  14.865  17.948  0.00  0.00    +0.000 A 
ATOM     28  C   UNL     1      11.408  13.539  17.508  0.00  0.00    +0.000 A 
ATOM     29  C   UNL     1      10.885  12.551  18.350  0.00  0.00    +0.000 A 
ATOM     30  C   UNL     1      10.468  11.176  17.834  0.00  0.00    +0.000 C 
ENDBRANCH  20  21
ENDBRANCH  17  20
ENDBRANCH  16  17
ENDBRANCH   7  16
TORSDOF 7
ENDMDL
MODEL 3
REMARK VINA RESULT:      -7.5      5.008      7.654
REMARK  Name = 
REMARK  7 active torsions:
REMARK  status: ('A' for Active; 'I' for Inactive)
REMARK    1  A    between atoms: C_4  and  N_5
REMARK    2  A    between atoms: N_5  and  C_6
REMARK    3  A    between atoms: N_14  and  C_15
REMARK    4  A    between atoms: C_15  and  C_16
REMARK    5  A    between atoms: C_16  and  O_17
REMARK    6  A    between atoms: C_16  and  C_18
REMARK    7  A    between atoms: C_18  and  N_19
REMARK                            x       y       z     vdW  Elec       q    Type
REMARK                         _______ _______ _______ _____ _____    ______ ____
ROOT
ATOM      1  O   UNL     1       0.448   9.634  21.329  0.00  0.00    +0.000 OA
ATOM      2  C   UNL     1       1.066   9.154  20.381  0.00  0.00    +0.000 A 
ATOM      3  C   UNL     1       1.675   7.815  20.522  0.00  0.00    +0.000 A 
ATOM      4  C   UNL     1       2.347   7.225  19.510  0.00  0.00    +0.000 A 
ATOM      5  C   UNL     1       2.361   7.897  18.230  0.00  0.00    +0.000 A 
ATOM      6  C   UNL     1       1.876   9.136  18.102  0.00  0.00    +0.000 A 
ATOM      7  N   UNL     1       1.271   9.790  19.162  0.00  0.00    +0.000 N 
ENDROOT
BRANCH   4   8
ATOM      8  N   UNL     1       3.021   6.014  19.642  0.00  0.00    +0.000 N 
ATOM      9  H   UNL     1       3.550   5.926  20.508  0.00  0.00    +0.000 HD
BRANCH   8  10
ATOM     10  C   UNL     1       2.410   4.774  19.321  0.00  0.00    +0.000 A 
ATOM     11  C   UNL     1       1.452   4.241  20.190  0.00  0.00    +0.000 A 
ATOM     12  C   UNL     1       0.874   2.993  19.933  0.00  0.00    +0.000 A 
ATOM     13  C   UNL     1       1.220   2.283  18.784  0.00  0.00    +0.000 A 
ATOM     14  C   UNL     1       2.120   2.832  17.877  0.00  0.00    +0.000 A 
ATOM     15  C   UNL     1       2.705   4.073  18.140  0.00  0.00    +0.000 A 
ENDBRANCH   8  10
ENDBRANCH   4   8
BRANCH   7  16
ATOM     16  C   UNL     1       0.843  11.187  19.009  0.00  0.00    +0.000 C 
BRANCH  16  17
ATOM     17  C   UNL     1      -0.565  11.341  18.412  0.00  0.00    +0.000 C 
BRANCH  17  18
ATOM     18  O   UNL     1      -0.892  10.198  17.599  0.00  0.00    +0.000 OA
ATOM     19  H   UNL     1      -1.826   9.967  17.770  0.00  0.00    +0.000 HD
ENDBRANCH  17  18
BRANCH  17  20
ATOM     20  C   UNL     1      -1.654  11.456  19.494  0.00  0.00    +0.000 C 
BRANCH  20  21
ATOM     21  N   UNL     1      -2.778  12.403  19.335  0.00  0.00    +0.000 NA
ATOM     22  C   UNL     1      -2.994  13.009  20.671  0.00  0.00    +0.000 C 
ATOM     23  C   UNL     1      -4.284  13.790  20.767  0.00  0.00    +0.000 C 
ATOM     24  C   UNL     1      -5.374  12.779  20.617  0.00  0.00    +0.000 A 
ATOM     25  C   UNL     1      -6.372  12.601  21.574  0.00  0.00    +0.000 A 
ATOM     26  C   UNL     1      -7.428  11.737  21.311  0.00  0.00    +0.000 A 
ATOM     27  C   UNL     1      -7.516  11.120  20.062  0.00  0.00    +0.000 A 
ATOM     28  C   UNL     1      -6.457  11.218  19.152  0.00  0.00    +0.000 A 
ATOM     29  C   UNL     1      -5.316  11.958  19.486  0.00  0.00    +0.000 A 
ATOM     30  C   UNL     1      -4.009  11.838  18.705  0.00  0.00    +0.000 C 
ENDBRANCH  20  21
ENDBRANCH  17  20
ENDBRANCH  16  17
ENDBRANCH   7  16
TORSDOF 7
ENDMDL
MODEL 4
REMARK VINA RESULT:      -7.5      4.230      7.872
REMARK  Name = 
REMARK  7 active torsions:
REMARK  status: ('A' for Active; 'I' for Inactive)
REMARK    1  A    between atoms: C_4  and  N_5
REMARK    2  A    between atoms: N_5  and  C_6
REMARK    3  A    between atoms: N_14  and  C_15
REMARK    4  A    between atoms: C_15  and  C_16
REMARK    5  A    between atoms: C_16  and  O_17
REMARK    6  A    between atoms: C_16  and  C_18
REMARK    7  A    between atoms: C_18  and  N_19
REMARK                            x       y       z     vdW  Elec       q    Type
REMARK                         _______ _______ _______ _____ _____    ______ ____
ROOT
ATOM      1  O   UNL     1       7.033   5.485  15.052  0.00  0.00    +0.000 OA
ATOM      2  C   UNL     1       6.365   5.522  16.082  0.00  0.00    +0.000 A 
ATOM      3  C   UNL     1       5.238   4.580  16.243  0.00  0.00    +0.000 A 
ATOM      4  C   UNL     1       4.480   4.555  17.360  0.00  0.00    +0.000 A 
ATOM      5  C   UNL     1       4.873   5.411  18.458  0.00  0.00    +0.000 A 
ATOM      6  C   UNL     1       5.844   6.317  18.306  0.00  0.00    +0.000 A 
ATOM      7  N   UNL     1       6.564   6.416  17.127  0.00  0.00    +0.000 N 
ENDROOT
BRANCH   4   8
ATOM      8  N   UNL     1       3.349   3.756  17.501  0.00  0.00    +0.000 N 
ATOM      9  H   UNL     1       3.398   2.875  16.991  0.00  0.00    +0.000 HD
BRANCH   8  10
ATOM     10  C   UNL     1       2.723   3.553  18.759  0.00  0.00    +0.000 A 
ATOM     11  C   UNL     1       3.421   2.879  19.766  0.00  0.00    +0.000 A 
ATOM     12  C   UNL     1       2.811   2.610  20.997  0.00  0.00    +0.000 A 
ATOM     13  C   UNL     1       1.512   3.048  21.247  0.00  0.00    +0.000 A 
ATOM     14  C   UNL     1       0.831   3.780  20.278  0.00  0.00    +0.000 A 
ATOM     15  C   UNL     1       1.437   4.038  19.046  0.00  0.00    +0.000 A 
ENDBRANCH   8  10
ENDBRANCH   4   8
BRANCH   7  16
ATOM     16  C   UNL     1       7.554   7.490  16.965  0.00  0.00    +0.000 C 
BRANCH  16  17
ATOM     17  C   UNL     1       7.807   8.297  18.248  0.00  0.00    +0.000 C 
BRANCH  17  18
ATOM     18  O   UNL     1       8.802   7.647  19.061  0.00  0.00    +0.000 OA
ATOM     19  H   UNL     1       8.716   7.991  19.971  0.00  0.00    +0.000 HD
ENDBRANCH  17  18
BRANCH  17  20
ATOM     20  C   UNL     1       8.318   9.720  17.956  0.00  0.00    +0.000 C 
BRANCH  20  21
ATOM     21  N   UNL     1       9.562  10.217  18.579  0.00  0.00    +0.000 NA
ATOM     22  C   UNL     1       9.163  10.792  19.886  0.00  0.00    +0.000 C 
ATOM     23  C   UNL     1      10.261  11.601  20.539  0.00  0.00    +0.000 C 
ATOM     24  C   UNL     1      10.474  12.778  19.644  0.00  0.00    +0.000 A 
ATOM     25  C   UNL     1      10.367  14.094  20.093  0.00  0.00    +0.000 A 
ATOM     26  C   UNL     1      10.706  15.138  19.241  0.00  0.00    +0.000 A 
ATOM     27  C   UNL     1      11.223  14.854  17.977  0.00  0.00    +0.000 A 
ATOM     28  C   UNL     1      11.223  13.540  17.496  0.00  0.00    +0.000 A 
ATOM     29  C   UNL     1      10.726  12.503  18.296  0.00  0.00    +0.000 A 
ATOM     30  C   UNL     1      10.388  11.127  17.729  0.00  0.00    +0.000 C 
ENDBRANCH  20  21
ENDBRANCH  17  20
ENDBRANCH  16  17
ENDBRANCH   7  16
TORSDOF 7
ENDMDL
MODEL 5
REMARK VINA RESULT:      -7.4      4.985      7.799
REMARK  Name = 
REMARK  7 active torsions:
REMARK  status: ('A' for Active; 'I' for Inactive)
REMARK    1  A    between atoms: C_4  and  N_5
REMARK    2  A    between atoms: N_5  and  C_6
REMARK    3  A    between atoms: N_14  and  C_15
REMARK    4  A    between atoms: C_15  and  C_16
REMARK    5  A    between atoms: C_16  and  O_17
REMARK    6  A    between atoms: C_16  and  C_18
REMARK    7  A    between atoms: C_18  and  N_19
REMARK                            x       y       z     vdW  Elec       q    Type
REMARK                         _______ _______ _______ _____ _____    ______ ____
ROOT
ATOM      1  O   UNL     1       0.312   9.927  21.511  0.00  0.00    +0.000 OA
ATOM      2  C   UNL     1       0.913   9.460  20.546  0.00  0.00    +0.000 A 
ATOM      3  C   UNL     1       1.518   8.116  20.656  0.00  0.00    +0.000 A 
ATOM      4  C   UNL     1       2.170   7.539  19.624  0.00  0.00    +0.000 A 
ATOM      5  C   UNL     1       2.168   8.232  18.355  0.00  0.00    +0.000 A 
ATOM      6  C   UNL     1       1.687   9.475  18.255  0.00  0.00    +0.000 A 
ATOM      7  N   UNL     1       1.102  10.114  19.335  0.00  0.00    +0.000 N 
ENDROOT
BRANCH   4   8
ATOM      8  N   UNL     1       2.841   6.323  19.727  0.00  0.00    +0.000 N 
ATOM      9  H   UNL     1       3.425   6.240  20.557  0.00  0.00    +0.000 HD
BRANCH   8  10
ATOM     10  C   UNL     1       2.198   5.085  19.462  0.00  0.00    +0.000 A 
ATOM     11  C   UNL     1       1.495   4.449  20.491  0.00  0.00    +0.000 A 
ATOM     12  C   UNL     1       0.901   3.199  20.279  0.00  0.00    +0.000 A 
ATOM     13  C   UNL     1       0.970   2.593  19.026  0.00  0.00    +0.000 A 
ATOM     14  C   UNL     1       1.607   3.247  17.976  0.00  0.00    +0.000 A 
ATOM     15  C   UNL     1       2.209   4.489  18.191  0.00  0.00    +0.000 A 
ENDBRANCH   8  10
ENDBRANCH   4   8
BRANCH   7  16
ATOM     16  C   UNL     1       0.678  11.516  19.210  0.00  0.00    +0.000 C 
BRANCH  16  17
ATOM     17  C   UNL     1      -0.722  11.688  18.603  0.00  0.00    +0.000 C 
BRANCH  17  18
ATOM     18  O   UNL     1      -0.963  10.678  17.604  0.00  0.00    +0.000 OA
ATOM     19  H   UNL     1      -0.394   9.911  17.811  0.00  0.00    +0.000 HD
ENDBRANCH  17  18
BRANCH  17  20
ATOM     20  C   UNL     1      -1.839  11.562  19.655  0.00  0.00    +0.000 C 
BRANCH  20  21
ATOM     21  N   UNL     1      -2.291  12.743  20.421  0.00  0.00    +0.000 NA
ATOM     22  C   UNL     1      -1.683  12.612  21.767  0.00  0.00    +0.000 C 
ATOM     23  C   UNL     1      -2.261  13.580  22.774  0.00  0.00    +0.000 C 
ATOM     24  C   UNL     1      -3.687  13.170  22.949  0.00  0.00    +0.000 A 
ATOM     25  C   UNL     1      -4.228  12.836  24.191  0.00  0.00    +0.000 A 
ATOM     26  C   UNL     1      -5.591  12.591  24.301  0.00  0.00    +0.000 A 
ATOM     27  C   UNL     1      -6.412  12.759  23.185  0.00  0.00    +0.000 A 
ATOM     28  C   UNL     1      -5.848  12.985  21.924  0.00  0.00    +0.000 A 
ATOM     29  C   UNL     1      -4.457  13.069  21.786  0.00  0.00    +0.000 A 
ATOM     30  C   UNL     1      -3.766  12.979  20.427  0.00  0.00    +0.000 C 
ENDBRANCH  20  21
ENDBRANCH  17  20
ENDBRANCH  16  17
ENDBRANCH   7  16
TORSDOF 7
ENDMDL
MODEL 6
REMARK VINA RESULT:      -7.4      4.853      7.566
REMARK  Name = 
REMARK  7 active torsions:
REMARK  status: ('A' for Active; 'I' for Inactive)
REMARK    1  A    between atoms: C_4  and  N_5
REMARK    2  A    between atoms: N_5  and  C_6
REMARK    3  A    between atoms: N_14  and  C_15
REMARK    4  A    between atoms: C_15  and  C_16
REMARK    5  A    between atoms: C_16  and  O_17
REMARK    6  A    between atoms: C_16  and  C_18
REMARK    7  A    between atoms: C_18  and  N_19
REMARK                            x       y       z     vdW  Elec       q    Type
REMARK                         _______ _______ _______ _____ _____    ______ ____
ROOT
ATOM      1  O   UNL     1       0.500   9.490  21.289  0.00  0.00    +0.000 OA
ATOM      2  C   UNL     1       1.099   9.155  20.270  0.00  0.00    +0.000 A 
ATOM      3  C   UNL     1       1.723   7.818  20.209  0.00  0.00    +0.000 A 
ATOM      4  C   UNL     1       2.375   7.382  19.109  0.00  0.00    +0.000 A 
ATOM      5  C   UNL     1       2.352   8.227  17.935  0.00  0.00    +0.000 A 
ATOM      6  C   UNL     1       1.853   9.466  17.993  0.00  0.00    +0.000 A 
ATOM      7  N   UNL     1       1.269   9.957  19.148  0.00  0.00    +0.000 N 
ENDROOT
BRANCH   4   8
ATOM      8  N   UNL     1       3.063   6.173  19.055  0.00  0.00    +0.000 N 
ATOM      9  H   UNL     1       3.990   6.205  19.475  0.00  0.00    +0.000 HD
BRANCH   8  10
ATOM     10  C   UNL     1       2.435   4.936  19.360  0.00  0.00    +0.000 A 
ATOM     11  C   UNL     1       1.806   4.222  18.335  0.00  0.00    +0.000 A 
ATOM     12  C   UNL     1       1.127   3.030  18.612  0.00  0.00    +0.000 A 
ATOM     13  C   UNL     1       1.105   2.520  19.909  0.00  0.00    +0.000 A 
ATOM     14  C   UNL     1       1.785   3.186  20.925  0.00  0.00    +0.000 A 
ATOM     15  C   UNL     1       2.453   4.381  20.649  0.00  0.00    +0.000 A 
ENDBRANCH   8  10
ENDBRANCH   4   8
BRANCH   7  16
ATOM     16  C   UNL     1       0.824  11.357  19.201  0.00  0.00    +0.000 C 
BRANCH  16  17
ATOM     17  C   UNL     1      -0.598  11.576  18.663  0.00  0.00    +0.000 C 
BRANCH  17  18
ATOM     18  O   UNL     1      -0.910  10.595  17.656  0.00  0.00    +0.000 OA
ATOM     19  H   UNL     1      -1.585   9.993  18.023  0.00  0.00    +0.000 HD
ENDBRANCH  17  18
BRANCH  17  20
ATOM     20  C   UNL     1      -1.669  11.453  19.764  0.00  0.00    +0.000 C 
BRANCH  20  21
ATOM     21  N   UNL     1      -1.928  12.573  20.692  0.00  0.00    +0.000 NA
ATOM     22  C   UNL     1      -1.425  12.132  22.015  0.00  0.00    +0.000 C 
ATOM     23  C   UNL     1      -1.861  13.035  23.147  0.00  0.00    +0.000 C 
ATOM     24  C   UNL     1      -3.345  12.887  23.225  0.00  0.00    +0.000 A 
ATOM     25  C   UNL     1      -4.001  12.486  24.389  0.00  0.00    +0.000 A 
ATOM     26  C   UNL     1      -5.390  12.497  24.430  0.00  0.00    +0.000 A 
ATOM     27  C   UNL     1      -6.107  12.982  23.336  0.00  0.00    +0.000 A 
ATOM     28  C   UNL     1      -5.447  13.277  22.138  0.00  0.00    +0.000 A 
ATOM     29  C   UNL     1      -4.060  13.109  22.044  0.00  0.00    +0.000 A 
ATOM     30  C   UNL     1      -3.331  13.088  20.703  0.00  0.00    +0.000 C 
ENDBRANCH  20  21
ENDBRANCH  17  20
ENDBRANCH  16  17
ENDBRANCH   7  16
TORSDOF 7
ENDMDL
MODEL 7
REMARK VINA RESULT:      -7.4      5.380      7.995
REMARK  Name = 
REMARK  7 active torsions:
REMARK  status: ('A' for Active; 'I' for Inactive)
REMARK    1  A    between atoms: C_4  and  N_5
REMARK    2  A    between atoms: N_5  and  C_6
REMARK    3  A    between atoms: N_14  and  C_15
REMARK    4  A    between atoms: C_15  and  C_16
REMARK    5  A    between atoms: C_16  and  O_17
REMARK    6  A    between atoms: C_16  and  C_18
REMARK    7  A    between atoms: C_18  and  N_19
REMARK                            x       y       z     vdW  Elec       q    Type
REMARK                         _______ _______ _______ _____ _____    ______ ____
ROOT
ATOM      1  O   UNL     1       1.892   9.850  17.318  0.00  0.00    +0.000 OA
ATOM      2  C   UNL     1       1.683   9.299  18.396  0.00  0.00    +0.000 A 
ATOM      3  C   UNL     1       2.359   8.019  18.693  0.00  0.00    +0.000 A 
ATOM      4  C   UNL     1       2.189   7.376  19.869  0.00  0.00    +0.000 A 
ATOM      5  C   UNL     1       1.404   8.036  20.888  0.00  0.00    +0.000 A 
ATOM      6  C   UNL     1       0.730   9.158  20.615  0.00  0.00    +0.000 A 
ATOM      7  N   UNL     1       0.821   9.773  19.378  0.00  0.00    +0.000 N 
ENDROOT
BRANCH   4   8
ATOM      8  N   UNL     1       2.726   6.120  20.139  0.00  0.00    +0.000 N 
ATOM      9  H   UNL     1       3.018   5.994  21.107  0.00  0.00    +0.000 HD
BRANCH   8  10
ATOM     10  C   UNL     1       2.129   4.927  19.653  0.00  0.00    +0.000 A 
ATOM     11  C   UNL     1       1.274   4.204  20.491  0.00  0.00    +0.000 A 
ATOM     12  C   UNL     1       0.717   2.992  20.064  0.00  0.00    +0.000 A 
ATOM     13  C   UNL     1       0.978   2.514  18.782  0.00  0.00    +0.000 A 
ATOM     14  C   UNL     1       1.772   3.258  17.915  0.00  0.00    +0.000 A 
ATOM     15  C   UNL     1       2.336   4.461  18.345  0.00  0.00    +0.000 A 
ENDBRANCH   8  10
ENDBRANCH   4   8
BRANCH   7  16
ATOM     16  C   UNL     1      -0.013  10.947  19.084  0.00  0.00    +0.000 C 
BRANCH  16  17
ATOM     17  C   UNL     1      -0.134  11.930  20.259  0.00  0.00    +0.000 C 
BRANCH  17  18
ATOM     18  O   UNL     1      -0.107  13.289  19.781  0.00  0.00    +0.000 OA
ATOM     19  H   UNL     1      -1.023  13.626  19.787  0.00  0.00    +0.000 HD
ENDBRANCH  17  18
BRANCH  17  20
ATOM     20  C   UNL     1      -1.447  11.750  21.043  0.00  0.00    +0.000 C 
BRANCH  20  21
ATOM     21  N   UNL     1      -2.394  12.875  21.196  0.00  0.00    +0.000 NA
ATOM     22  C   UNL     1      -2.510  13.115  22.655  0.00  0.00    +0.000 C 
ATOM     23  C   UNL     1      -3.650  14.041  23.015  0.00  0.00    +0.000 C 
ATOM     24  C   UNL     1      -4.895  13.303  22.641  0.00  0.00    +0.000 A 
ATOM     25  C   UNL     1      -5.912  13.034  23.556  0.00  0.00    +0.000 A 
ATOM     26  C   UNL     1      -7.098  12.461  23.112  0.00  0.00    +0.000 A 
ATOM     27  C   UNL     1      -7.284  12.235  21.748  0.00  0.00    +0.000 A 
ATOM     28  C   UNL     1      -6.220  12.406  20.855  0.00  0.00    +0.000 A 
ATOM     29  C   UNL     1      -4.971  12.828  21.328  0.00  0.00    +0.000 A 
ATOM     30  C   UNL     1      -3.701  12.715  20.490  0.00  0.00    +0.000 C 
ENDBRANCH  20  21
ENDBRANCH  17  20
ENDBRANCH  16  17
ENDBRANCH   7  16
TORSDOF 7
ENDMDL
MODEL 8
REMARK VINA RESULT:      -7.4      4.598      8.152
REMARK  Name = 
REMARK  7 active torsions:
REMARK  status: ('A' for Active; 'I' for Inactive)
REMARK    1  A    between atoms: C_4  and  N_5
REMARK    2  A    between atoms: N_5  and  C_6
REMARK    3  A    between atoms: N_14  and  C_15
REMARK    4  A    between atoms: C_15  and  C_16
REMARK    5  A    between atoms: C_16  and  O_17
REMARK    6  A    between atoms: C_16  and  C_18
REMARK    7  A    between atoms: C_18  and  N_19
REMARK                            x       y       z     vdW  Elec       q    Type
REMARK                         _______ _______ _______ _____ _____    ______ ____
ROOT
ATOM      1  O   UNL     1       8.045   5.826  19.061  0.00  0.00    +0.000 OA
ATOM      2  C   UNL     1       7.059   5.943  18.337  0.00  0.00    +0.000 A 
ATOM      3  C   UNL     1       6.015   4.899  18.368  0.00  0.00    +0.000 A 
ATOM      4  C   UNL     1       4.898   4.981  17.613  0.00  0.00    +0.000 A 
ATOM      5  C   UNL     1       4.694   6.188  16.843  0.00  0.00    +0.000 A 
ATOM      6  C   UNL     1       5.657   7.111  16.749  0.00  0.00    +0.000 A 
ATOM      7  N   UNL     1       6.848   6.987  17.444  0.00  0.00    +0.000 N 
ENDROOT
BRANCH   4   8
ATOM      8  N   UNL     1       3.947   3.967  17.540  0.00  0.00    +0.000 N 
ATOM      9  H   UNL     1       4.334   3.050  17.321  0.00  0.00    +0.000 HD
BRANCH   8  10
ATOM     10  C   UNL     1       2.910   3.838  18.501  0.00  0.00    +0.000 A 
ATOM     11  C   UNL     1       1.967   2.815  18.351  0.00  0.00    +0.000 A 
ATOM     12  C   UNL     1       0.898   2.697  19.247  0.00  0.00    +0.000 A 
ATOM     13  C   UNL     1       0.784   3.575  20.323  0.00  0.00    +0.000 A 
ATOM     14  C   UNL     1       1.753   4.554  20.522  0.00  0.00    +0.000 A 
ATOM     15  C   UNL     1       2.813   4.678  19.621  0.00  0.00    +0.000 A 
ENDBRANCH   8  10
ENDBRANCH   4   8
BRANCH   7  16
ATOM     16  C   UNL     1       7.920   7.971  17.234  0.00  0.00    +0.000 C 
BRANCH  16  17
ATOM     17  C   UNL     1       8.069   8.979  18.383  0.00  0.00    +0.000 C 
BRANCH  17  18
ATOM     18  O   UNL     1       9.009   8.492  19.360  0.00  0.00    +0.000 OA
ATOM     19  H   UNL     1       8.640   7.675  19.748  0.00  0.00    +0.000 HD
ENDBRANCH  17  18
BRANCH  17  20
ATOM     20  C   UNL     1       8.584  10.349  17.902  0.00  0.00    +0.000 C 
BRANCH  20  21
ATOM     21  N   UNL     1       9.791  10.954  18.502  0.00  0.00    +0.000 NA
ATOM     22  C   UNL     1       9.311  11.795  19.624  0.00  0.00    +0.000 C 
ATOM     23  C   UNL     1      10.378  12.713  20.176  0.00  0.00    +0.000 C 
ATOM     24  C   UNL     1      10.687  13.673  19.074  0.00  0.00    +0.000 A 
ATOM     25  C   UNL     1      10.581  15.056  19.227  0.00  0.00    +0.000 A 
ATOM     26  C   UNL     1      11.009  15.893  18.205  0.00  0.00    +0.000 A 
ATOM     27  C   UNL     1      11.611  15.344  17.072  0.00  0.00    +0.000 A 
ATOM     28  C   UNL     1      11.613  13.957  16.879  0.00  0.00    +0.000 A 
ATOM     29  C   UNL     1      11.031  13.118  17.837  0.00  0.00    +0.000 A 
ATOM     30  C   UNL     1      10.701  11.656  17.547  0.00  0.00    +0.000 C 
ENDBRANCH  20  21
ENDBRANCH  17  20
ENDBRANCH  16  17
ENDBRANCH   7  16
TORSDOF 7
ENDMDL
MODEL 9
REMARK VINA RESULT:      -7.4      5.298      7.928
REMARK  Name = 
REMARK  7 active torsions:
REMARK  status: ('A' for Active; 'I' for Inactive)
REMARK    1  A    between atoms: C_4  and  N_5
REMARK    2  A    between atoms: N_5  and  C_6
REMARK    3  A    between atoms: N_14  and  C_15
REMARK    4  A    between atoms: C_15  and  C_16
REMARK    5  A    between atoms: C_16  and  O_17
REMARK    6  A    between atoms: C_16  and  C_18
REMARK    7  A    between atoms: C_18  and  N_19
REMARK                            x       y       z     vdW  Elec       q    Type
REMARK                         _______ _______ _______ _____ _____    ______ ____
ROOT
ATOM      1  O   UNL     1       1.830   9.712  17.312  0.00  0.00    +0.000 OA
ATOM      2  C   UNL     1       1.647   9.205  18.415  0.00  0.00    +0.000 A 
ATOM      3  C   UNL     1       2.322   7.933  18.744  0.00  0.00    +0.000 A 
ATOM      4  C   UNL     1       2.179   7.337  19.948  0.00  0.00    +0.000 A 
ATOM      5  C   UNL     1       1.424   8.042  20.961  0.00  0.00    +0.000 A 
ATOM      6  C   UNL     1       0.750   9.157  20.661  0.00  0.00    +0.000 A 
ATOM      7  N   UNL     1       0.813   9.723  19.399  0.00  0.00    +0.000 N 
ENDROOT
BRANCH   4   8
ATOM      8  N   UNL     1       2.715   6.090  20.253  0.00  0.00    +0.000 N 
ATOM      9  H   UNL     1       2.994   5.984  21.227  0.00  0.00    +0.000 HD
BRANCH   8  10
ATOM     10  C   UNL     1       2.129   4.884  19.785  0.00  0.00    +0.000 A 
ATOM     11  C   UNL     1       2.457   4.420  18.506  0.00  0.00    +0.000 A 
ATOM     12  C   UNL     1       1.851   3.268  17.991  0.00  0.00    +0.000 A 
ATOM     13  C   UNL     1       0.943   2.547  18.764  0.00  0.00    +0.000 A 
ATOM     14  C   UNL     1       0.660   2.960  20.062  0.00  0.00    +0.000 A 
ATOM     15  C   UNL     1       1.256   4.116  20.572  0.00  0.00    +0.000 A 
ENDBRANCH   8  10
ENDBRANCH   4   8
BRANCH   7  16
ATOM     16  C   UNL     1      -0.021  10.891  19.082  0.00  0.00    +0.000 C 
BRANCH  16  17
ATOM     17  C   UNL     1       0.104  12.036  20.098  0.00  0.00    +0.000 C 
BRANCH  17  18
ATOM     18  O   UNL     1       0.873  13.119  19.541  0.00  0.00    +0.000 OA
ATOM     19  H   UNL     1       0.849  13.860  20.176  0.00  0.00    +0.000 HD
ENDBRANCH  17  18
BRANCH  17  20
ATOM     20  C   UNL     1      -1.264  12.613  20.506  0.00  0.00    +0.000 C 
BRANCH  20  21
ATOM     21  N   UNL     1      -1.803  12.388  21.864  0.00  0.00    +0.000 NA
ATOM     22  C   UNL     1      -3.260  12.645  21.773  0.00  0.00    +0.000 C 
ATOM     23  C   UNL     1      -3.932  12.740  23.124  0.00  0.00    +0.000 C 
ATOM     24  C   UNL     1      -3.360  13.960  23.769  0.00  0.00    +0.000 A 
ATOM     25  C   UNL     1      -4.153  15.016  24.219  0.00  0.00    +0.000 A 
ATOM     26  C   UNL     1      -3.568  16.059  24.926  0.00  0.00    +0.000 A 
ATOM     27  C   UNL     1      -2.211  15.998  25.244  0.00  0.00    +0.000 A 
ATOM     28  C   UNL     1      -1.404  14.994  24.696  0.00  0.00    +0.000 A 
ATOM     29  C   UNL     1      -1.965  14.033  23.846  0.00  0.00    +0.000 A 
ATOM     30  C   UNL     1      -1.111  13.129  22.961  0.00  0.00    +0.000 C 
ENDBRANCH  20  21
ENDBRANCH  17  20
ENDBRANCH  16  17
ENDBRANCH   7  16
TORSDOF 7
ENDMDL
