MODEL 1
REMARK VINA RESULT:      -8.3      0.000      0.000
REMARK  Name = 
REMARK  8 active torsions:
REMARK  status: ('A' for Active; 'I' for Inactive)
REMARK    1  A    between atoms: C_1  and  C_2
REMARK    2  A    between atoms: N_4  and  C_5
REMARK    3  A    between atoms: C_5  and  C_6
REMARK    4  A    between atoms: N_8  and  C_9
REMARK    5  A    between atoms: C_12  and  N_13
REMARK    6  A    between atoms: N_16  and  C_17
REMARK    7  A    between atoms: C_17  and  C_18
REMARK    8  A    between atoms: C_19  and  C_20
REMARK                            x       y       z     vdW  Elec       q    Type
REMARK                         _______ _______ _______ _____ _____    ______ ____
ROOT
ATOM      1  C   UNL     1       2.875   6.968  18.685  0.00  0.00    +0.000 A 
ATOM      2  C   UNL     1       2.593   8.004  17.792  0.00  0.00    +0.000 A 
ATOM      3  C   UNL     1       1.780   9.080  18.162  0.00  0.00    +0.000 A 
ATOM      4  C   UNL     1       1.226   9.188  19.442  0.00  0.00    +0.000 A 
ATOM      5  C   UNL     1       1.496   8.123  20.320  0.00  0.00    +0.000 A 
ATOM      6  F   UNL     1       1.048   8.151  21.584  0.00  0.00    +0.000 F 
ATOM      7  C   UNL     1       2.291   7.023  19.950  0.00  0.00    +0.000 A 
ENDROOT
BRANCH   1  10
ATOM      8  C   UNL     1       5.541   4.509  18.077  0.00  0.00    +0.000 C 
ATOM      9  C   UNL     1       5.148   5.964  18.261  0.00  0.00    +0.000 C 
ATOM     10  N   UNL     1       3.719   5.901  18.294  0.00  0.00    +0.000 N 
ATOM     11  C   UNL     1       3.296   4.693  17.755  0.00  0.00    +0.000 C 
ATOM     12  O   UNL     1       2.163   4.343  17.468  0.00  0.00    +0.000 OA
ATOM     13  O   UNL     1       4.377   3.895  17.501  0.00  0.00    +0.000 OA
BRANCH   8  14
ATOM     14  C   UNL     1       6.721   4.316  17.125  0.00  0.00    +0.000 C 
BRANCH  14  18
ATOM     15  C   UNL     1       6.058   3.737  13.440  0.00  0.00    +0.000 C 
ATOM     16  C   UNL     1       6.458   4.494  14.676  0.00  0.00    +0.000 C 
ATOM     17  O   UNL     1       6.884   5.645  14.647  0.00  0.00    +0.000 OA
ATOM     18  N   UNL     1       6.312   3.774  15.837  0.00  0.00    +0.000 N 
ATOM     19  H   UNL     1       6.145   2.776  15.773  0.00  0.00    +0.000 HD
ENDBRANCH  14  18
ENDBRANCH   8  14
ENDBRANCH   1  10
BRANCH   4  20
ATOM     20  N   UNL     1       0.460  10.298  19.757  0.00  0.00    +0.000 N 
ATOM     21  C   UNL     1       1.041  11.634  19.948  0.00  0.00    +0.000 C 
ATOM     22  C   UNL     1       0.470  12.641  18.927  0.00  0.00    +0.000 C 
ATOM     23  N   UNL     1      -1.015  12.703  18.881  0.00  0.00    +0.000 NA
ATOM     24  C   UNL     1      -1.505  11.329  18.607  0.00  0.00    +0.000 C 
ATOM     25  C   UNL     1      -1.006  10.241  19.590  0.00  0.00    +0.000 C 
BRANCH  23  26
ATOM     26  C   UNL     1      -1.607  13.215  20.124  0.00  0.00    +0.000 C 
BRANCH  26  27
ATOM     27  C   UNL     1      -3.076  12.940  20.219  0.00  0.00    +0.000 C 
ATOM     28  C   UNL     1      -3.889  13.540  21.102  0.00  0.00    +0.000 C 
BRANCH  28  29
ATOM     29  C   UNL     1      -5.273  13.225  21.161  0.00  0.00    +0.000 A 
ATOM     30  C   UNL     1      -6.359  14.093  21.129  0.00  0.00    +0.000 A 
ATOM     31  C   UNL     1      -7.539  13.319  21.241  0.00  0.00    +0.000 A 
ATOM     32  C   UNL     1      -7.123  12.016  21.326  0.00  0.00    +0.000 A 
ATOM     33  O   UNL     1      -5.772  11.947  21.276  0.00  0.00    +0.000 OA
ENDBRANCH  28  29
ENDBRANCH  26  27
ENDBRANCH  23  26
ENDBRANCH   4  20
TORSDOF 7
ENDMDL
MODEL 2
REMARK VINA RESULT:      -8.2      0.990      1.368
REMARK  Name = 
REMARK  8 active torsions:
REMARK  status: ('A' for Active; 'I' for Inactive)
REMARK    1  A    between atoms: C_1  and  C_2
REMARK    2  A    between atoms: N_4  and  C_5
REMARK    3  A    between atoms: C_5  and  C_6
REMARK    4  A    between atoms: N_8  and  C_9
REMARK    5  A    between atoms: C_12  and  N_13
REMARK    6  A    between atoms: N_16  and  C_17
REMARK    7  A    between atoms: C_17  and  C_18
REMARK    8  A    between atoms: C_19  and  C_20
REMARK                            x       y       z     vdW  Elec       q    Type
REMARK                         _______ _______ _______ _____ _____    ______ ____
ROOT
ATOM      1  C   UNL     1       2.809   6.973  18.721  0.00  0.00    +0.000 A 
ATOM      2  C   UNL     1       2.478   7.969  17.798  0.00  0.00    +0.000 A 
ATOM      3  C   UNL     1       1.679   9.057  18.161  0.00  0.00    +0.000 A 
ATOM      4  C   UNL     1       1.188   9.220  19.461  0.00  0.00    +0.000 A 
ATOM      5  C   UNL     1       1.506   8.195  20.370  0.00  0.00    +0.000 A 
ATOM      6  F   UNL     1       1.121   8.277  21.653  0.00  0.00    +0.000 F 
ATOM      7  C   UNL     1       2.287   7.082  20.010  0.00  0.00    +0.000 A 
ENDROOT
BRANCH   1  10
ATOM      8  C   UNL     1       5.436   4.470  18.130  0.00  0.00    +0.000 C 
ATOM      9  C   UNL     1       5.067   5.932  18.312  0.00  0.00    +0.000 C 
ATOM     10  N   UNL     1       3.637   5.892  18.335  0.00  0.00    +0.000 N 
ATOM     11  C   UNL     1       3.198   4.692  17.793  0.00  0.00    +0.000 C 
ATOM     12  O   UNL     1       2.061   4.361  17.498  0.00  0.00    +0.000 OA
ATOM     13  O   UNL     1       4.266   3.875  17.546  0.00  0.00    +0.000 OA
BRANCH   8  14
ATOM     14  C   UNL     1       6.620   4.258  17.186  0.00  0.00    +0.000 C 
BRANCH  14  18
ATOM     15  C   UNL     1       6.217   3.825  13.444  0.00  0.00    +0.000 C 
ATOM     16  C   UNL     1       6.706   4.441  14.725  0.00  0.00    +0.000 C 
ATOM     17  O   UNL     1       7.492   5.384  14.757  0.00  0.00    +0.000 OA
ATOM     18  N   UNL     1       6.200   3.845  15.855  0.00  0.00    +0.000 N 
ATOM     19  H   UNL     1       5.719   2.957  15.762  0.00  0.00    +0.000 HD
ENDBRANCH  14  18
ENDBRANCH   8  14
ENDBRANCH   1  10
BRANCH   4  20
ATOM     20  N   UNL     1       0.434  10.341  19.765  0.00  0.00    +0.000 N 
ATOM     21  C   UNL     1      -0.771  10.281  20.605  0.00  0.00    +0.000 C 
ATOM     22  C   UNL     1      -0.610  11.147  21.872  0.00  0.00    +0.000 C 
ATOM     23  N   UNL     1      -0.203  12.554  21.615  0.00  0.00    +0.000 NA
ATOM     24  C   UNL     1       1.057  12.512  20.832  0.00  0.00    +0.000 C 
ATOM     25  C   UNL     1       0.997  11.684  19.525  0.00  0.00    +0.000 C 
BRANCH  23  26
ATOM     26  C   UNL     1      -1.226  13.323  20.892  0.00  0.00    +0.000 C 
BRANCH  26  27
ATOM     27  C   UNL     1      -2.581  13.212  21.519  0.00  0.00    +0.000 C 
ATOM     28  C   UNL     1      -3.676  12.813  20.855  0.00  0.00    +0.000 C 
BRANCH  28  29
ATOM     29  C   UNL     1      -4.942  12.744  21.497  0.00  0.00    +0.000 A 
ATOM     30  C   UNL     1      -6.206  12.735  20.917  0.00  0.00    +0.000 A 
ATOM     31  C   UNL     1      -7.163  12.683  21.959  0.00  0.00    +0.000 A 
ATOM     32  C   UNL     1      -6.443  12.652  23.125  0.00  0.00    +0.000 A 
ATOM     33  O   UNL     1      -5.116  12.684  22.862  0.00  0.00    +0.000 OA
ENDBRANCH  28  29
ENDBRANCH  26  27
ENDBRANCH  23  26
ENDBRANCH   4  20
TORSDOF 7
ENDMDL
MODEL 3
REMARK VINA RESULT:      -8.2      1.047      1.362
REMARK  Name = 
REMARK  8 active torsions:
REMARK  status: ('A' for Active; 'I' for Inactive)
REMARK    1  A    between atoms: C_1  and  C_2
REMARK    2  A    between atoms: N_4  and  C_5
REMARK    3  A    between atoms: C_5  and  C_6
REMARK    4  A    between atoms: N_8  and  C_9
REMARK    5  A    between atoms: C_12  and  N_13
REMARK    6  A    between atoms: N_16  and  C_17
REMARK    7  A    between atoms: C_17  and  C_18
REMARK    8  A    between atoms: C_19  and  C_20
REMARK                            x       y       z     vdW  Elec       q    Type
REMARK                         _______ _______ _______ _____ _____    ______ ____
ROOT
ATOM      1  C   UNL     1       2.714   7.115  18.865  0.00  0.00    +0.000 A 
ATOM      2  C   UNL     1       2.154   7.214  20.141  0.00  0.00    +0.000 A 
ATOM      3  C   UNL     1       1.379   8.318  20.509  0.00  0.00    +0.000 A 
ATOM      4  C   UNL     1       1.106   9.365  19.621  0.00  0.00    +0.000 A 
ATOM      5  C   UNL     1       1.700   9.263  18.350  0.00  0.00    +0.000 A 
ATOM      6  F   UNL     1       1.465  10.192  17.411  0.00  0.00    +0.000 F 
ATOM      7  C   UNL     1       2.503   8.170  17.978  0.00  0.00    +0.000 A 
ENDROOT
BRANCH   1  10
ATOM      8  C   UNL     1       5.170   4.420  18.386  0.00  0.00    +0.000 C 
ATOM      9  C   UNL     1       4.906   5.903  18.575  0.00  0.00    +0.000 C 
ATOM     10  N   UNL     1       3.478   5.977  18.509  0.00  0.00    +0.000 N 
ATOM     11  C   UNL     1       2.981   4.824  17.915  0.00  0.00    +0.000 C 
ATOM     12  O   UNL     1       1.843   4.590  17.543  0.00  0.00    +0.000 OA
ATOM     13  O   UNL     1       3.996   3.930  17.718  0.00  0.00    +0.000 OA
BRANCH   8  14
ATOM     14  C   UNL     1       6.391   4.130  17.512  0.00  0.00    +0.000 C 
BRANCH  14  18
ATOM     15  C   UNL     1       6.158   3.936  13.736  0.00  0.00    +0.000 C 
ATOM     16  C   UNL     1       6.597   4.462  15.075  0.00  0.00    +0.000 C 
ATOM     17  O   UNL     1       7.398   5.383  15.201  0.00  0.00    +0.000 OA
ATOM     18  N   UNL     1       6.026   3.809  16.140  0.00  0.00    +0.000 N 
ATOM     19  H   UNL     1       5.534   2.939  15.971  0.00  0.00    +0.000 HD
ENDBRANCH  14  18
ENDBRANCH   8  14
ENDBRANCH   1  10
BRANCH   4  20
ATOM     20  N   UNL     1       0.300  10.412  20.035  0.00  0.00    +0.000 N 
ATOM     21  C   UNL     1       0.840  11.634  20.646  0.00  0.00    +0.000 C 
ATOM     22  C   UNL     1       0.491  12.879  19.802  0.00  0.00    +0.000 C 
ATOM     23  N   UNL     1      -0.953  13.030  19.485  0.00  0.00    +0.000 NA
ATOM     24  C   UNL     1      -1.388  11.785  18.805  0.00  0.00    +0.000 C 
ATOM     25  C   UNL     1      -1.103  10.474  19.580  0.00  0.00    +0.000 C 
BRANCH  23  26
ATOM     26  C   UNL     1      -1.779  13.273  20.677  0.00  0.00    +0.000 C 
BRANCH  26  27
ATOM     27  C   UNL     1      -3.240  13.077  20.414  0.00  0.00    +0.000 C 
ATOM     28  C   UNL     1      -4.111  12.648  21.341  0.00  0.00    +0.000 C 
BRANCH  28  29
ATOM     29  C   UNL     1      -5.485  12.461  21.031  0.00  0.00    +0.000 A 
ATOM     30  C   UNL     1      -6.594  12.705  21.834  0.00  0.00    +0.000 A 
ATOM     31  C   UNL     1      -7.750  12.342  21.102  0.00  0.00    +0.000 A 
ATOM     32  C   UNL     1      -7.298  11.905  19.885  0.00  0.00    +0.000 A 
ATOM     33  O   UNL     1      -5.948  11.974  19.829  0.00  0.00    +0.000 OA
ENDBRANCH  28  29
ENDBRANCH  26  27
ENDBRANCH  23  26
ENDBRANCH   4  20
TORSDOF 7
ENDMDL
MODEL 4
REMARK VINA RESULT:      -8.2      1.486      1.997
REMARK  Name = 
REMARK  8 active torsions:
REMARK  status: ('A' for Active; 'I' for Inactive)
REMARK    1  A    between atoms: C_1  and  C_2
REMARK    2  A    between atoms: N_4  and  C_5
REMARK    3  A    between atoms: C_5  and  C_6
REMARK    4  A    between atoms: N_8  and  C_9
REMARK    5  A    between atoms: C_12  and  N_13
REMARK    6  A    between atoms: N_16  and  C_17
REMARK    7  A    between atoms: C_17  and  C_18
REMARK    8  A    between atoms: C_19  and  C_20
REMARK                            x       y       z     vdW  Elec       q    Type
REMARK                         _______ _______ _______ _____ _____    ______ ____
ROOT
ATOM      1  C   UNL     1       2.857   7.004  18.752  0.00  0.00    +0.000 A 
ATOM      2  C   UNL     1       2.288   7.068  20.026  0.00  0.00    +0.000 A 
ATOM      3  C   UNL     1       1.499   8.155  20.414  0.00  0.00    +0.000 A 
ATOM      4  C   UNL     1       1.221   9.220  19.549  0.00  0.00    +0.000 A 
ATOM      5  C   UNL     1       1.825   9.154  18.280  0.00  0.00    +0.000 A 
ATOM      6  F   UNL     1       1.587  10.102  17.362  0.00  0.00    +0.000 F 
ATOM      7  C   UNL     1       2.642   8.078  17.889  0.00  0.00    +0.000 A 
ENDROOT
BRANCH   1  10
ATOM      8  C   UNL     1       5.371   4.383  18.173  0.00  0.00    +0.000 C 
ATOM      9  C   UNL     1       5.065   5.862  18.336  0.00  0.00    +0.000 C 
ATOM     10  N   UNL     1       3.635   5.883  18.375  0.00  0.00    +0.000 N 
ATOM     11  C   UNL     1       3.140   4.695  17.855  0.00  0.00    +0.000 C 
ATOM     12  O   UNL     1       1.987   4.408  17.577  0.00  0.00    +0.000 OA
ATOM     13  O   UNL     1       4.170   3.830  17.610  0.00  0.00    +0.000 OA
BRANCH   8  14
ATOM     14  C   UNL     1       6.534   4.107  17.220  0.00  0.00    +0.000 C 
BRANCH  14  18
ATOM     15  C   UNL     1       6.100   3.797  13.469  0.00  0.00    +0.000 C 
ATOM     16  C   UNL     1       6.637   4.341  14.764  0.00  0.00    +0.000 C 
ATOM     17  O   UNL     1       7.497   5.215  14.817  0.00  0.00    +0.000 OA
ATOM     18  N   UNL     1       6.082   3.762  15.880  0.00  0.00    +0.000 N 
ATOM     19  H   UNL     1       5.530   2.918  15.767  0.00  0.00    +0.000 HD
ENDBRANCH  14  18
ENDBRANCH   8  14
ENDBRANCH   1  10
BRANCH   4  20
ATOM     20  N   UNL     1       0.402  10.248  19.982  0.00  0.00    +0.000 N 
ATOM     21  C   UNL     1      -0.744  10.026  20.875  0.00  0.00    +0.000 C 
ATOM     22  C   UNL     1      -0.578  10.801  22.199  0.00  0.00    +0.000 C 
ATOM     23  N   UNL     1      -0.295  12.252  22.039  0.00  0.00    +0.000 NA
ATOM     24  C   UNL     1       0.917  12.373  21.192  0.00  0.00    +0.000 C 
ATOM     25  C   UNL     1       0.846  11.648  19.826  0.00  0.00    +0.000 C 
BRANCH  23  26
ATOM     26  C   UNL     1      -1.413  12.990  21.434  0.00  0.00    +0.000 C 
BRANCH  26  27
ATOM     27  C   UNL     1      -2.687  12.841  22.208  0.00  0.00    +0.000 C 
ATOM     28  C   UNL     1      -3.906  12.955  21.660  0.00  0.00    +0.000 C 
BRANCH  28  29
ATOM     29  C   UNL     1      -5.083  12.823  22.446  0.00  0.00    +0.000 A 
ATOM     30  C   UNL     1      -5.304  13.251  23.750  0.00  0.00    +0.000 A 
ATOM     31  C   UNL     1      -6.617  12.873  24.117  0.00  0.00    +0.000 A 
ATOM     32  C   UNL     1      -7.143  12.241  23.020  0.00  0.00    +0.000 A 
ATOM     33  O   UNL     1      -6.237  12.208  22.015  0.00  0.00    +0.000 OA
ENDBRANCH  28  29
ENDBRANCH  26  27
ENDBRANCH  23  26
ENDBRANCH   4  20
TORSDOF 7
ENDMDL
MODEL 5
REMARK VINA RESULT:      -8.0      2.720      3.916
REMARK  Name = 
REMARK  8 active torsions:
REMARK  status: ('A' for Active; 'I' for Inactive)
REMARK    1  A    between atoms: C_1  and  C_2
REMARK    2  A    between atoms: N_4  and  C_5
REMARK    3  A    between atoms: C_5  and  C_6
REMARK    4  A    between atoms: N_8  and  C_9
REMARK    5  A    between atoms: C_12  and  N_13
REMARK    6  A    between atoms: N_16  and  C_17
REMARK    7  A    between atoms: C_17  and  C_18
REMARK    8  A    between atoms: C_19  and  C_20
REMARK                            x       y       z     vdW  Elec       q    Type
REMARK                         _______ _______ _______ _____ _____    ______ ____
ROOT
ATOM      1  C   UNL     1       2.874   7.040  18.504  0.00  0.00    +0.000 A 
ATOM      2  C   UNL     1       2.583   7.992  17.524  0.00  0.00    +0.000 A 
ATOM      3  C   UNL     1       1.802   9.115  17.812  0.00  0.00    +0.000 A 
ATOM      4  C   UNL     1       1.290   9.357  19.092  0.00  0.00    +0.000 A 
ATOM      5  C   UNL     1       1.568   8.376  20.060  0.00  0.00    +0.000 A 
ATOM      6  F   UNL     1       1.161   8.534  21.329  0.00  0.00    +0.000 F 
ATOM      7  C   UNL     1       2.330   7.229  19.774  0.00  0.00    +0.000 A 
ENDROOT
BRANCH   1  10
ATOM      8  C   UNL     1       5.466   4.469  18.073  0.00  0.00    +0.000 C 
ATOM      9  C   UNL     1       5.115   5.944  18.144  0.00  0.00    +0.000 C 
ATOM     10  N   UNL     1       3.685   5.923  18.192  0.00  0.00    +0.000 N 
ATOM     11  C   UNL     1       3.225   4.689  17.753  0.00  0.00    +0.000 C 
ATOM     12  O   UNL     1       2.080   4.349  17.502  0.00  0.00    +0.000 OA
ATOM     13  O   UNL     1       4.281   3.843  17.555  0.00  0.00    +0.000 OA
BRANCH   8  14
ATOM     14  C   UNL     1       6.633   4.170  17.131  0.00  0.00    +0.000 C 
BRANCH  14  18
ATOM     15  C   UNL     1       5.895   3.755  13.438  0.00  0.00    +0.000 C 
ATOM     16  C   UNL     1       6.339   4.450  14.695  0.00  0.00    +0.000 C 
ATOM     17  O   UNL     1       6.802   5.586  14.703  0.00  0.00    +0.000 OA
ATOM     18  N   UNL     1       6.186   3.691  15.831  0.00  0.00    +0.000 N 
ATOM     19  H   UNL     1       5.986   2.702  15.732  0.00  0.00    +0.000 HD
ENDBRANCH  14  18
ENDBRANCH   8  14
ENDBRANCH   1  10
BRANCH   4  20
ATOM     20  N   UNL     1       0.555  10.508  19.321  0.00  0.00    +0.000 N 
ATOM     21  C   UNL     1      -0.739  10.496  20.019  0.00  0.00    +0.000 C 
ATOM     22  C   UNL     1      -0.685  11.346  21.306  0.00  0.00    +0.000 C 
ATOM     23  N   UNL     1      -0.192  12.735  21.113  0.00  0.00    +0.000 NA
ATOM     24  C   UNL     1       1.146  12.643  20.477  0.00  0.00    +0.000 C 
ATOM     25  C   UNL     1       1.199  11.827  19.162  0.00  0.00    +0.000 C 
BRANCH  23  26
ATOM     26  C   UNL     1      -1.091  13.554  20.287  0.00  0.00    +0.000 C 
BRANCH  26  27
ATOM     27  C   UNL     1      -0.355  14.554  19.451  0.00  0.00    +0.000 C 
ATOM     28  C   UNL     1      -0.791  15.804  19.233  0.00  0.00    +0.000 C 
BRANCH  28  29
ATOM     29  C   UNL     1      -0.060  16.706  18.414  0.00  0.00    +0.000 A 
ATOM     30  C   UNL     1      -0.545  17.724  17.600  0.00  0.00    +0.000 A 
ATOM     31  C   UNL     1       0.559  18.335  16.959  0.00  0.00    +0.000 A 
ATOM     32  C   UNL     1       1.668  17.673  17.417  0.00  0.00    +0.000 A 
ATOM     33  O   UNL     1       1.312  16.700  18.288  0.00  0.00    +0.000 OA
ENDBRANCH  28  29
ENDBRANCH  26  27
ENDBRANCH  23  26
ENDBRANCH   4  20
TORSDOF 7
ENDMDL
MODEL 6
REMARK VINA RESULT:      -7.9      2.485      3.144
REMARK  Name = 
REMARK  8 active torsions:
REMARK  status: ('A' for Active; 'I' for Inactive)
REMARK    1  A    between atoms: C_1  and  C_2
REMARK    2  A    between atoms: N_4  and  C_5
REMARK    3  A    between atoms: C_5  and  C_6
REMARK    4  A    between atoms: N_8  and  C_9
REMARK    5  A    between atoms: C_12  and  N_13
REMARK    6  A    between atoms: N_16  and  C_17
REMARK    7  A    between atoms: C_17  and  C_18
REMARK    8  A    between atoms: C_19  and  C_20
REMARK                            x       y       z     vdW  Elec       q    Type
REMARK                         _______ _______ _______ _____ _____    ______ ____
ROOT
ATOM      1  C   UNL     1       3.703   6.376  17.894  0.00  0.00    +0.000 A 
ATOM      2  C   UNL     1       3.226   5.999  19.152  0.00  0.00    +0.000 A 
ATOM      3  C   UNL     1       2.350   6.817  19.871  0.00  0.00    +0.000 A 
ATOM      4  C   UNL     1       1.888   8.039  19.367  0.00  0.00    +0.000 A 
ATOM      5  C   UNL     1       2.399   8.417  18.112  0.00  0.00    +0.000 A 
ATOM      6  F   UNL     1       1.987   9.549  17.521  0.00  0.00    +0.000 F 
ATOM      7  C   UNL     1       3.302   7.615  17.392  0.00  0.00    +0.000 A 
ENDROOT
BRANCH   1  10
ATOM      8  C   UNL     1       6.426   4.673  16.105  0.00  0.00    +0.000 C 
ATOM      9  C   UNL     1       5.681   5.966  16.387  0.00  0.00    +0.000 C 
ATOM     10  N   UNL     1       4.573   5.521  17.176  0.00  0.00    +0.000 N 
ATOM     11  C   UNL     1       4.405   4.153  17.011  0.00  0.00    +0.000 C 
ATOM     12  O   UNL     1       3.483   3.448  17.388  0.00  0.00    +0.000 OA
ATOM     13  O   UNL     1       5.435   3.646  16.268  0.00  0.00    +0.000 OA
BRANCH   8  14
ATOM     14  C   UNL     1       6.986   4.596  14.684  0.00  0.00    +0.000 C 
BRANCH  14  18
ATOM     15  C   UNL     1       5.643   2.538  11.800  0.00  0.00    +0.000 C 
ATOM     16  C   UNL     1       6.460   3.597  12.489  0.00  0.00    +0.000 C 
ATOM     17  O   UNL     1       7.262   4.313  11.897  0.00  0.00    +0.000 OA
ATOM     18  N   UNL     1       6.231   3.681  13.841  0.00  0.00    +0.000 N 
ATOM     19  H   UNL     1       5.709   2.938  14.293  0.00  0.00    +0.000 HD
ENDBRANCH  14  18
ENDBRANCH   8  14
ENDBRANCH   1  10
BRANCH   4  20
ATOM     20  N   UNL     1       0.992   8.784  20.113  0.00  0.00    +0.000 N 
ATOM     21  C   UNL     1       0.617   8.428  21.488  0.00  0.00    +0.000 C 
ATOM     22  C   UNL     1       0.997   9.551  22.477  0.00  0.00    +0.000 C 
ATOM     23  N   UNL     1       0.486  10.899  22.113  0.00  0.00    +0.000 NA
ATOM     24  C   UNL     1       0.978  11.202  20.746  0.00  0.00    +0.000 C 
ATOM     25  C   UNL     1       0.630  10.145  19.668  0.00  0.00    +0.000 C 
BRANCH  23  26
ATOM     26  C   UNL     1      -0.981  10.988  22.157  0.00  0.00    +0.000 C 
BRANCH  26  27
ATOM     27  C   UNL     1      -1.462  12.311  22.664  0.00  0.00    +0.000 C 
ATOM     28  C   UNL     1      -2.563  12.462  23.417  0.00  0.00    +0.000 C 
BRANCH  28  29
ATOM     29  C   UNL     1      -2.985  13.746  23.856  0.00  0.00    +0.000 A 
ATOM     30  C   UNL     1      -3.998  14.547  23.340  0.00  0.00    +0.000 A 
ATOM     31  C   UNL     1      -4.030  15.747  24.089  0.00  0.00    +0.000 A 
ATOM     32  C   UNL     1      -3.045  15.622  25.034  0.00  0.00    +0.000 A 
ATOM     33  O   UNL     1      -2.416  14.430  24.907  0.00  0.00    +0.000 OA
ENDBRANCH  28  29
ENDBRANCH  26  27
ENDBRANCH  23  26
ENDBRANCH   4  20
TORSDOF 7
ENDMDL
MODEL 7
REMARK VINA RESULT:      -7.9      2.769      3.644
REMARK  Name = 
REMARK  8 active torsions:
REMARK  status: ('A' for Active; 'I' for Inactive)
REMARK    1  A    between atoms: C_1  and  C_2
REMARK    2  A    between atoms: N_4  and  C_5
REMARK    3  A    between atoms: C_5  and  C_6
REMARK    4  A    between atoms: N_8  and  C_9
REMARK    5  A    between atoms: C_12  and  N_13
REMARK    6  A    between atoms: N_16  and  C_17
REMARK    7  A    between atoms: C_17  and  C_18
REMARK    8  A    between atoms: C_19  and  C_20
REMARK                            x       y       z     vdW  Elec       q    Type
REMARK                         _______ _______ _______ _____ _____    ______ ____
ROOT
ATOM      1  C   UNL     1       4.149   6.065  17.418  0.00  0.00    +0.000 A 
ATOM      2  C   UNL     1       3.992   7.450  17.325  0.00  0.00    +0.000 A 
ATOM      3  C   UNL     1       3.049   8.127  18.103  0.00  0.00    +0.000 A 
ATOM      4  C   UNL     1       2.231   7.465  19.026  0.00  0.00    +0.000 A 
ATOM      5  C   UNL     1       2.381   6.068  19.088  0.00  0.00    +0.000 A 
ATOM      6  F   UNL     1       1.677   5.344  19.970  0.00  0.00    +0.000 F 
ATOM      7  C   UNL     1       3.308   5.373  18.290  0.00  0.00    +0.000 A 
ENDROOT
BRANCH   1  10
ATOM      8  C   UNL     1       6.469   4.775  14.873  0.00  0.00    +0.000 C 
ATOM      9  C   UNL     1       5.076   5.279  15.210  0.00  0.00    +0.000 C 
ATOM     10  N   UNL     1       5.125   5.404  16.635  0.00  0.00    +0.000 N 
ATOM     11  C   UNL     1       6.191   4.663  17.128  0.00  0.00    +0.000 C 
ATOM     12  O   UNL     1       6.458   4.395  18.288  0.00  0.00    +0.000 OA
ATOM     13  O   UNL     1       6.935   4.173  16.091  0.00  0.00    +0.000 OA
BRANCH   8  14
ATOM     14  C   UNL     1       6.478   3.719  13.768  0.00  0.00    +0.000 C 
BRANCH  14  18
ATOM     15  C   UNL     1       3.854   3.196  11.086  0.00  0.00    +0.000 C 
ATOM     16  C   UNL     1       5.122   2.947  11.855  0.00  0.00    +0.000 C 
ATOM     17  O   UNL     1       5.885   2.019  11.603  0.00  0.00    +0.000 OA
ATOM     18  N   UNL     1       5.341   3.848  12.869  0.00  0.00    +0.000 N 
ATOM     19  H   UNL     1       4.583   4.462  13.146  0.00  0.00    +0.000 HD
ENDBRANCH  14  18
ENDBRANCH   8  14
ENDBRANCH   1  10
BRANCH   4  20
ATOM     20  N   UNL     1       1.343   8.199  19.793  0.00  0.00    +0.000 N 
ATOM     21  C   UNL     1       1.166   7.972  21.234  0.00  0.00    +0.000 C 
ATOM     22  C   UNL     1       1.522   9.237  22.045  0.00  0.00    +0.000 C 
ATOM     23  N   UNL     1       0.823  10.474  21.606  0.00  0.00    +0.000 NA
ATOM     24  C   UNL     1       1.123  10.660  20.164  0.00  0.00    +0.000 C 
ATOM     25  C   UNL     1       0.781   9.454  19.255  0.00  0.00    +0.000 C 
BRANCH  23  26
ATOM     26  C   UNL     1      -0.630  10.418  21.819  0.00  0.00    +0.000 C 
BRANCH  26  27
ATOM     27  C   UNL     1      -1.102  11.421  22.825  0.00  0.00    +0.000 C 
ATOM     28  C   UNL     1      -1.530  12.652  22.503  0.00  0.00    +0.000 C 
BRANCH  28  29
ATOM     29  C   UNL     1      -1.950  13.571  23.502  0.00  0.00    +0.000 A 
ATOM     30  C   UNL     1      -1.210  14.571  24.123  0.00  0.00    +0.000 A 
ATOM     31  C   UNL     1      -2.048  15.210  25.068  0.00  0.00    +0.000 A 
ATOM     32  C   UNL     1      -3.262  14.581  24.975  0.00  0.00    +0.000 A 
ATOM     33  O   UNL     1      -3.217  13.603  24.041  0.00  0.00    +0.000 OA
ENDBRANCH  28  29
ENDBRANCH  26  27
ENDBRANCH  23  26
ENDBRANCH   4  20
TORSDOF 7
ENDMDL
MODEL 8
REMARK VINA RESULT:      -7.9      2.422      3.081
REMARK  Name = 
REMARK  8 active torsions:
REMARK  status: ('A' for Active; 'I' for Inactive)
REMARK    1  A    between atoms: C_1  and  C_2
REMARK    2  A    between atoms: N_4  and  C_5
REMARK    3  A    between atoms: C_5  and  C_6
REMARK    4  A    between atoms: N_8  and  C_9
REMARK    5  A    between atoms: C_12  and  N_13
REMARK    6  A    between atoms: N_16  and  C_17
REMARK    7  A    between atoms: C_17  and  C_18
REMARK    8  A    between atoms: C_19  and  C_20
REMARK                            x       y       z     vdW  Elec       q    Type
REMARK                         _______ _______ _______ _____ _____    ______ ____
ROOT
ATOM      1  C   UNL     1       2.718   7.000  18.831  0.00  0.00    +0.000 A 
ATOM      2  C   UNL     1       2.353   7.998  17.925  0.00  0.00    +0.000 A 
ATOM      3  C   UNL     1       1.551   9.075  18.316  0.00  0.00    +0.000 A 
ATOM      4  C   UNL     1       1.093   9.223  19.629  0.00  0.00    +0.000 A 
ATOM      5  C   UNL     1       1.446   8.196  20.523  0.00  0.00    +0.000 A 
ATOM      6  F   UNL     1       1.093   8.265  21.815  0.00  0.00    +0.000 F 
ATOM      7  C   UNL     1       2.229   7.094  20.134  0.00  0.00    +0.000 A 
ENDROOT
BRANCH   1  10
ATOM      8  C   UNL     1       5.347   4.514  18.178  0.00  0.00    +0.000 C 
ATOM      9  C   UNL     1       4.979   5.970  18.404  0.00  0.00    +0.000 C 
ATOM     10  N   UNL     1       3.548   5.931  18.417  0.00  0.00    +0.000 N 
ATOM     11  C   UNL     1       3.111   4.749  17.833  0.00  0.00    +0.000 C 
ATOM     12  O   UNL     1       1.976   4.429  17.520  0.00  0.00    +0.000 OA
ATOM     13  O   UNL     1       4.181   3.940  17.567  0.00  0.00    +0.000 OA
BRANCH   8  14
ATOM     14  C   UNL     1       6.537   4.331  17.235  0.00  0.00    +0.000 C 
BRANCH  14  18
ATOM     15  C   UNL     1       6.203   3.804  13.498  0.00  0.00    +0.000 C 
ATOM     16  C   UNL     1       6.689   4.437  14.773  0.00  0.00    +0.000 C 
ATOM     17  O   UNL     1       7.515   5.344  14.797  0.00  0.00    +0.000 OA
ATOM     18  N   UNL     1       6.130   3.898  15.907  0.00  0.00    +0.000 N 
ATOM     19  H   UNL     1       5.611   3.030  15.828  0.00  0.00    +0.000 HD
ENDBRANCH  14  18
ENDBRANCH   8  14
ENDBRANCH   1  10
BRANCH   4  20
ATOM     20  N   UNL     1       0.334  10.333  19.961  0.00  0.00    +0.000 N 
ATOM     21  C   UNL     1       0.801  11.359  20.903  0.00  0.00    +0.000 C 
ATOM     22  C   UNL     1       0.895  12.740  20.220  0.00  0.00    +0.000 C 
ATOM     23  N   UNL     1      -0.344  13.175  19.523  0.00  0.00    +0.000 NA
ATOM     24  C   UNL     1      -0.691  12.117  18.543  0.00  0.00    +0.000 C 
ATOM     25  C   UNL     1      -0.833  10.691  19.130  0.00  0.00    +0.000 C 
BRANCH  23  26
ATOM     26  C   UNL     1      -1.468  13.406  20.441  0.00  0.00    +0.000 C 
BRANCH  26  27
ATOM     27  C   UNL     1      -1.184  14.487  21.438  0.00  0.00    +0.000 C 
ATOM     28  C   UNL     1      -1.237  14.305  22.766  0.00  0.00    +0.000 C 
BRANCH  28  29
ATOM     29  C   UNL     1      -0.977  15.373  23.667  0.00  0.00    +0.000 A 
ATOM     30  C   UNL     1      -0.925  16.737  23.400  0.00  0.00    +0.000 A 
ATOM     31  C   UNL     1      -0.607  17.406  24.606  0.00  0.00    +0.000 A 
ATOM     32  C   UNL     1      -0.490  16.425  25.556  0.00  0.00    +0.000 A 
ATOM     33  O   UNL     1      -0.712  15.207  25.008  0.00  0.00    +0.000 OA
ENDBRANCH  28  29
ENDBRANCH  26  27
ENDBRANCH  23  26
ENDBRANCH   4  20
TORSDOF 7
ENDMDL
MODEL 9
REMARK VINA RESULT:      -7.7      2.333      2.971
REMARK  Name = 
REMARK  8 active torsions:
REMARK  status: ('A' for Active; 'I' for Inactive)
REMARK    1  A    between atoms: C_1  and  C_2
REMARK    2  A    between atoms: N_4  and  C_5
REMARK    3  A    between atoms: C_5  and  C_6
REMARK    4  A    between atoms: N_8  and  C_9
REMARK    5  A    between atoms: C_12  and  N_13
REMARK    6  A    between atoms: N_16  and  C_17
REMARK    7  A    between atoms: C_17  and  C_18
REMARK    8  A    between atoms: C_19  and  C_20
REMARK                            x       y       z     vdW  Elec       q    Type
REMARK                         _______ _______ _______ _____ _____    ______ ____
ROOT
ATOM      1  C   UNL     1       2.988   6.905  18.650  0.00  0.00    +0.000 A 
ATOM      2  C   UNL     1       2.386   6.854  19.909  0.00  0.00    +0.000 A 
ATOM      3  C   UNL     1       1.554   7.884  20.358  0.00  0.00    +0.000 A 
ATOM      4  C   UNL     1       1.263   9.003  19.570  0.00  0.00    +0.000 A 
ATOM      5  C   UNL     1       1.899   9.053  18.316  0.00  0.00    +0.000 A 
ATOM      6  F   UNL     1       1.653  10.061  17.466  0.00  0.00    +0.000 F 
ATOM      7  C   UNL     1       2.759   8.035  17.865  0.00  0.00    +0.000 A 
ENDROOT
BRANCH   1  10
ATOM      8  C   UNL     1       5.617   4.450  17.889  0.00  0.00    +0.000 C 
ATOM      9  C   UNL     1       5.235   5.904  18.101  0.00  0.00    +0.000 C 
ATOM     10  N   UNL     1       3.809   5.839  18.210  0.00  0.00    +0.000 N 
ATOM     11  C   UNL     1       3.359   4.635  17.687  0.00  0.00    +0.000 C 
ATOM     12  O   UNL     1       2.212   4.285  17.459  0.00  0.00    +0.000 OA
ATOM     13  O   UNL     1       4.425   3.838  17.372  0.00  0.00    +0.000 OA
BRANCH   8  14
ATOM     14  C   UNL     1       6.745   4.263  16.874  0.00  0.00    +0.000 C 
BRANCH  14  18
ATOM     15  C   UNL     1       6.017   3.649  13.207  0.00  0.00    +0.000 C 
ATOM     16  C   UNL     1       6.518   4.386  14.419  0.00  0.00    +0.000 C 
ATOM     17  O   UNL     1       7.103   5.462  14.352  0.00  0.00    +0.000 OA
ATOM     18  N   UNL     1       6.267   3.738  15.604  0.00  0.00    +0.000 N 
ATOM     19  H   UNL     1       5.961   2.771  15.575  0.00  0.00    +0.000 HD
ENDBRANCH  14  18
ENDBRANCH   8  14
ENDBRANCH   1  10
BRANCH   4  20
ATOM     20  N   UNL     1       0.401   9.970  20.058  0.00  0.00    +0.000 N 
ATOM     21  C   UNL     1       0.816  10.975  21.046  0.00  0.00    +0.000 C 
ATOM     22  C   UNL     1       0.668  12.405  20.482  0.00  0.00    +0.000 C 
ATOM     23  N   UNL     1      -0.675  12.718  19.928  0.00  0.00    +0.000 NA
ATOM     24  C   UNL     1      -0.972  11.701  18.890  0.00  0.00    +0.000 C 
ATOM     25  C   UNL     1      -0.874  10.228  19.359  0.00  0.00    +0.000 C 
BRANCH  23  26
ATOM     26  C   UNL     1      -1.731  12.723  20.951  0.00  0.00    +0.000 C 
BRANCH  26  27
ATOM     27  C   UNL     1      -1.485  13.736  22.026  0.00  0.00    +0.000 C 
ATOM     28  C   UNL     1      -2.432  14.158  22.879  0.00  0.00    +0.000 C 
BRANCH  28  29
ATOM     29  C   UNL     1      -2.147  15.137  23.869  0.00  0.00    +0.000 A 
ATOM     30  C   UNL     1      -2.110  16.520  23.733  0.00  0.00    +0.000 A 
ATOM     31  C   UNL     1      -1.757  17.072  24.987  0.00  0.00    +0.000 A 
ATOM     32  C   UNL     1      -1.605  16.006  25.835  0.00  0.00    +0.000 A 
ATOM     33  O   UNL     1      -1.839  14.845  25.180  0.00  0.00    +0.000 OA
ENDBRANCH  28  29
ENDBRANCH  26  27
ENDBRANCH  23  26
ENDBRANCH   4  20
TORSDOF 7
ENDMDL
