MODEL 1
REMARK VINA RESULT:      -7.0      0.000      0.000
REMARK  Name = 
REMARK  7 active torsions:
REMARK  status: ('A' for Active; 'I' for Inactive)
REMARK    1  A    between atoms: C_1  and  C_2
REMARK    2  A    between atoms: C_2  and  C_3
REMARK    3  A    between atoms: C_3  and  C_4
REMARK    4  A    between atoms: C_4  and  C_5
REMARK    5  A    between atoms: C_14  and  O_15
REMARK    6  A    between atoms: C_16  and  O_17
REMARK    7  A    between atoms: O_17  and  C_18
REMARK                            x       y       z     vdW  Elec       q    Type
REMARK                         _______ _______ _______ _____ _____    ______ ____
ROOT
ATOM      1  C   UNL     1       0.622  10.343  20.815  0.00  0.00    +0.000 A 
ATOM      2  C   UNL     1       0.829   9.055  21.255  0.00  0.00    +0.000 A 
ATOM      3  C   UNL     1       1.409   8.235  20.252  0.00  0.00    +0.000 A 
ATOM      4  C   UNL     1       1.599   8.875  19.060  0.00  0.00    +0.000 A 
ATOM      5  S   UNL     1       1.047  10.495  19.147  0.00  0.00    +0.000 S 
ATOM      6  C   UNL     1       2.181   8.201  17.831  0.00  0.00    +0.000 C 
ATOM      7  C   UNL     1       2.631   6.690  18.083  0.00  0.00    +0.000 C 
ATOM      8  C   UNL     1       4.147   6.355  18.023  0.00  0.00    +0.000 A 
ATOM      9  C   UNL     1       5.121   6.680  17.062  0.00  0.00    +0.000 A 
ATOM     10  C   UNL     1       6.443   6.187  17.251  0.00  0.00    +0.000 A 
ATOM     11  C   UNL     1       6.840   5.610  18.454  0.00  0.00    +0.000 A 
ATOM     12  C   UNL     1       5.845   5.120  19.265  0.00  0.00    +0.000 A 
ATOM     13  C   UNL     1       4.542   5.295  18.838  0.00  0.00    +0.000 A 
ATOM     14  C   UNL     1       3.535   4.182  18.945  0.00  0.00    +0.000 C 
ATOM     15  C   UNL     1       2.420   4.748  19.757  0.00  0.00    +0.000 C 
ATOM     16  N   UNL     1       1.910   6.056  19.281  0.00  0.00    +0.000 NA
ATOM     17  C   UNL     1       1.845   6.862  20.502  0.00  0.00    +0.000 C 
ENDROOT
BRANCH  10  18
ATOM     18  O   UNL     1       7.303   6.039  16.153  0.00  0.00    +0.000 OA
ATOM     19  H   UNL     1       7.107   6.786  15.578  0.00  0.00    +0.000 HD
ENDBRANCH  10  18
BRANCH  11  20
ATOM     20  O   UNL     1       8.109   5.250  18.814  0.00  0.00    +0.000 OA
ATOM     21  C   UNL     1       8.408   5.408  20.201  0.00  0.00    +0.000 C 
ENDBRANCH  11  20
BRANCH   1  22
ATOM     22  C   UNL     1       0.138  11.480  21.662  0.00  0.00    +0.000 C 
BRANCH  22  23
ATOM     23  C   UNL     1      -0.964  11.039  22.645  0.00  0.00    +0.000 C 
BRANCH  23  25
ATOM     24  C   UNL     1      -3.003  12.504  22.363  0.00  0.00    +0.000 C 
ATOM     25  C   UNL     1      -1.770  12.213  23.203  0.00  0.00    +0.000 C 
ENDBRANCH  23  25
ENDBRANCH  22  23
ENDBRANCH   1  22
TORSDOF 5
ENDMDL
MODEL 2
REMARK VINA RESULT:      -6.9      3.330      4.696
REMARK  Name = 
REMARK  7 active torsions:
REMARK  status: ('A' for Active; 'I' for Inactive)
REMARK    1  A    between atoms: C_1  and  C_2
REMARK    2  A    between atoms: C_2  and  C_3
REMARK    3  A    between atoms: C_3  and  C_4
REMARK    4  A    between atoms: C_4  and  C_5
REMARK    5  A    between atoms: C_14  and  O_15
REMARK    6  A    between atoms: C_16  and  O_17
REMARK    7  A    between atoms: O_17  and  C_18
REMARK                            x       y       z     vdW  Elec       q    Type
REMARK                         _______ _______ _______ _____ _____    ______ ____
ROOT
ATOM      1  C   UNL     1      -1.327  11.024  18.896  0.00  0.00    +0.000 A 
ATOM      2  C   UNL     1      -0.457  10.498  17.967  0.00  0.00    +0.000 A 
ATOM      3  C   UNL     1       0.471   9.599  18.554  0.00  0.00    +0.000 A 
ATOM      4  C   UNL     1       0.338   9.478  19.909  0.00  0.00    +0.000 A 
ATOM      5  S   UNL     1      -0.921  10.485  20.487  0.00  0.00    +0.000 S 
ATOM      6  C   UNL     1       1.231   8.596  20.762  0.00  0.00    +0.000 C 
ATOM      7  C   UNL     1       2.293   7.754  19.918  0.00  0.00    +0.000 C 
ATOM      8  C   UNL     1       2.135   6.208  19.872  0.00  0.00    +0.000 A 
ATOM      9  C   UNL     1       1.938   5.275  20.905  0.00  0.00    +0.000 A 
ATOM     10  C   UNL     1       1.876   3.895  20.561  0.00  0.00    +0.000 A 
ATOM     11  C   UNL     1       1.767   3.477  19.238  0.00  0.00    +0.000 A 
ATOM     12  C   UNL     1       2.174   4.367  18.273  0.00  0.00    +0.000 A 
ATOM     13  C   UNL     1       2.599   5.610  18.701  0.00  0.00    +0.000 A 
ATOM     14  C   UNL     1       3.828   6.253  18.118  0.00  0.00    +0.000 C 
ATOM     15  C   UNL     1       3.361   7.565  17.586  0.00  0.00    +0.000 C 
ATOM     16  N   UNL     1       2.583   8.381  18.548  0.00  0.00    +0.000 NA
ATOM     17  C   UNL     1       1.419   8.810  17.769  0.00  0.00    +0.000 C 
ENDROOT
BRANCH  10  18
ATOM     18  O   UNL     1       2.177   2.916  21.521  0.00  0.00    +0.000 OA
ATOM     19  H   UNL     1       1.323   2.611  21.845  0.00  0.00    +0.000 HD
ENDBRANCH  10  18
BRANCH  11  20
ATOM     20  O   UNL     1       1.540   2.206  18.793  0.00  0.00    +0.000 OA
ATOM     21  C   UNL     1       2.680   1.547  18.243  0.00  0.00    +0.000 C 
ENDBRANCH  11  20
BRANCH   1  22
ATOM     22  C   UNL     1      -2.497  11.907  18.584  0.00  0.00    +0.000 C 
BRANCH  22  23
ATOM     23  C   UNL     1      -3.547  11.185  17.717  0.00  0.00    +0.000 C 
BRANCH  23  25
ATOM     24  C   UNL     1      -3.173   9.867  15.594  0.00  0.00    +0.000 C 
ATOM     25  C   UNL     1      -3.232  11.251  16.221  0.00  0.00    +0.000 C 
ENDBRANCH  23  25
ENDBRANCH  22  23
ENDBRANCH   1  22
TORSDOF 5
ENDMDL
MODEL 3
REMARK VINA RESULT:      -6.8      3.111      4.429
REMARK  Name = 
REMARK  7 active torsions:
REMARK  status: ('A' for Active; 'I' for Inactive)
REMARK    1  A    between atoms: C_1  and  C_2
REMARK    2  A    between atoms: C_2  and  C_3
REMARK    3  A    between atoms: C_3  and  C_4
REMARK    4  A    between atoms: C_4  and  C_5
REMARK    5  A    between atoms: C_14  and  O_15
REMARK    6  A    between atoms: C_16  and  O_17
REMARK    7  A    between atoms: O_17  and  C_18
REMARK                            x       y       z     vdW  Elec       q    Type
REMARK                         _______ _______ _______ _____ _____    ______ ____
ROOT
ATOM      1  C   UNL     1      -1.417  11.242  19.397  0.00  0.00    +0.000 A 
ATOM      2  C   UNL     1      -0.619  10.770  18.380  0.00  0.00    +0.000 A 
ATOM      3  C   UNL     1       0.334   9.825  18.842  0.00  0.00    +0.000 A 
ATOM      4  C   UNL     1       0.289   9.615  20.192  0.00  0.00    +0.000 A 
ATOM      5  S   UNL     1      -0.914  10.594  20.918  0.00  0.00    +0.000 S 
ATOM      6  C   UNL     1       1.224   8.670  20.923  0.00  0.00    +0.000 C 
ATOM      7  C   UNL     1       2.215   7.875  19.955  0.00  0.00    +0.000 C 
ATOM      8  C   UNL     1       2.032   6.338  19.818  0.00  0.00    +0.000 A 
ATOM      9  C   UNL     1       1.891   5.339  20.799  0.00  0.00    +0.000 A 
ATOM     10  C   UNL     1       1.787   3.986  20.370  0.00  0.00    +0.000 A 
ATOM     11  C   UNL     1       1.584   3.659  19.032  0.00  0.00    +0.000 A 
ATOM     12  C   UNL     1       1.938   4.607  18.102  0.00  0.00    +0.000 A 
ATOM     13  C   UNL     1       2.409   5.814  18.582  0.00  0.00    +0.000 A 
ATOM     14  C   UNL     1       3.605   6.482  17.961  0.00  0.00    +0.000 C 
ATOM     15  C   UNL     1       3.123   7.831  17.549  0.00  0.00    +0.000 C 
ATOM     16  N   UNL     1       2.422   8.589  18.613  0.00  0.00    +0.000 NA
ATOM     17  C   UNL     1       1.216   9.080  17.944  0.00  0.00    +0.000 C 
ENDROOT
BRANCH  10  18
ATOM     18  O   UNL     1       2.137   2.943  21.240  0.00  0.00    +0.000 OA
ATOM     19  H   UNL     1       2.187   3.349  22.112  0.00  0.00    +0.000 HD
ENDBRANCH  10  18
BRANCH  11  20
ATOM     20  O   UNL     1       1.309   2.422  18.520  0.00  0.00    +0.000 OA
ATOM     21  C   UNL     1       2.386   1.810  17.813  0.00  0.00    +0.000 C 
ENDBRANCH  11  20
BRANCH   1  22
ATOM     22  C   UNL     1      -2.592  12.155  19.224  0.00  0.00    +0.000 C 
BRANCH  22  23
ATOM     23  C   UNL     1      -3.581  11.626  18.167  0.00  0.00    +0.000 C 
BRANCH  23  25
ATOM     24  C   UNL     1      -5.196  12.420  19.942  0.00  0.00    +0.000 C 
ATOM     25  C   UNL     1      -5.032  11.624  18.657  0.00  0.00    +0.000 C 
ENDBRANCH  23  25
ENDBRANCH  22  23
ENDBRANCH   1  22
TORSDOF 5
ENDMDL
MODEL 4
REMARK VINA RESULT:      -6.7      0.996      1.081
REMARK  Name = 
REMARK  7 active torsions:
REMARK  status: ('A' for Active; 'I' for Inactive)
REMARK    1  A    between atoms: C_1  and  C_2
REMARK    2  A    between atoms: C_2  and  C_3
REMARK    3  A    between atoms: C_3  and  C_4
REMARK    4  A    between atoms: C_4  and  C_5
REMARK    5  A    between atoms: C_14  and  O_15
REMARK    6  A    between atoms: C_16  and  O_17
REMARK    7  A    between atoms: O_17  and  C_18
REMARK                            x       y       z     vdW  Elec       q    Type
REMARK                         _______ _______ _______ _____ _____    ______ ____
ROOT
ATOM      1  C   UNL     1       0.693  10.577  20.450  0.00  0.00    +0.000 A 
ATOM      2  C   UNL     1       0.868   9.308  20.954  0.00  0.00    +0.000 A 
ATOM      3  C   UNL     1       1.459   8.433  20.006  0.00  0.00    +0.000 A 
ATOM      4  C   UNL     1       1.688   9.014  18.790  0.00  0.00    +0.000 A 
ATOM      5  S   UNL     1       1.162  10.644  18.788  0.00  0.00    +0.000 S 
ATOM      6  C   UNL     1       2.288   8.274  17.609  0.00  0.00    +0.000 C 
ATOM      7  C   UNL     1       2.707   6.770  17.942  0.00  0.00    +0.000 C 
ATOM      8  C   UNL     1       4.218   6.409  17.935  0.00  0.00    +0.000 A 
ATOM      9  C   UNL     1       5.220   6.673  16.985  0.00  0.00    +0.000 A 
ATOM     10  C   UNL     1       6.529   6.169  17.230  0.00  0.00    +0.000 A 
ATOM     11  C   UNL     1       6.887   5.643  18.468  0.00  0.00    +0.000 A 
ATOM     12  C   UNL     1       5.864   5.207  19.275  0.00  0.00    +0.000 A 
ATOM     13  C   UNL     1       4.575   5.382  18.808  0.00  0.00    +0.000 A 
ATOM     14  C   UNL     1       3.548   4.291  18.941  0.00  0.00    +0.000 C 
ATOM     15  C   UNL     1       2.423   4.912  19.698  0.00  0.00    +0.000 C 
ATOM     16  N   UNL     1       1.947   6.204  19.149  0.00  0.00    +0.000 NA
ATOM     17  C   UNL     1       1.865   7.067  20.329  0.00  0.00    +0.000 C 
ENDROOT
BRANCH  10  18
ATOM     18  O   UNL     1       7.413   5.956  16.161  0.00  0.00    +0.000 OA
ATOM     19  H   UNL     1       7.585   6.832  15.800  0.00  0.00    +0.000 HD
ENDBRANCH  10  18
BRANCH  11  20
ATOM     20  O   UNL     1       8.140   5.280  18.876  0.00  0.00    +0.000 OA
ATOM     21  C   UNL     1       8.373   5.397  20.279  0.00  0.00    +0.000 C 
ENDBRANCH  11  20
BRANCH   1  22
ATOM     22  C   UNL     1       0.209  11.760  21.232  0.00  0.00    +0.000 C 
BRANCH  22  23
ATOM     23  C   UNL     1      -1.315  11.949  21.105  0.00  0.00    +0.000 C 
BRANCH  23  25
ATOM     24  C   UNL     1      -2.753  11.827  19.030  0.00  0.00    +0.000 C 
ATOM     25  C   UNL     1      -1.724  12.638  19.801  0.00  0.00    +0.000 C 
ENDBRANCH  23  25
ENDBRANCH  22  23
ENDBRANCH   1  22
TORSDOF 5
ENDMDL
MODEL 5
REMARK VINA RESULT:      -6.5      3.033      4.274
REMARK  Name = 
REMARK  7 active torsions:
REMARK  status: ('A' for Active; 'I' for Inactive)
REMARK    1  A    between atoms: C_1  and  C_2
REMARK    2  A    between atoms: C_2  and  C_3
REMARK    3  A    between atoms: C_3  and  C_4
REMARK    4  A    between atoms: C_4  and  C_5
REMARK    5  A    between atoms: C_14  and  O_15
REMARK    6  A    between atoms: C_16  and  O_17
REMARK    7  A    between atoms: O_17  and  C_18
REMARK                            x       y       z     vdW  Elec       q    Type
REMARK                         _______ _______ _______ _____ _____    ______ ____
ROOT
ATOM      1  C   UNL     1      -1.388  11.303  19.550  0.00  0.00    +0.000 A 
ATOM      2  C   UNL     1      -0.582  10.869  18.522  0.00  0.00    +0.000 A 
ATOM      3  C   UNL     1       0.351   9.889  18.951  0.00  0.00    +0.000 A 
ATOM      4  C   UNL     1       0.284   9.616  20.289  0.00  0.00    +0.000 A 
ATOM      5  S   UNL     1      -0.916  10.577  21.045  0.00  0.00    +0.000 S 
ATOM      6  C   UNL     1       1.196   8.624  20.986  0.00  0.00    +0.000 C 
ATOM      7  C   UNL     1       2.189   7.861  19.996  0.00  0.00    +0.000 C 
ATOM      8  C   UNL     1       1.987   6.335  19.783  0.00  0.00    +0.000 A 
ATOM      9  C   UNL     1       1.818   5.294  20.712  0.00  0.00    +0.000 A 
ATOM     10  C   UNL     1       1.701   3.964  20.218  0.00  0.00    +0.000 A 
ATOM     11  C   UNL     1       1.513   3.704  18.864  0.00  0.00    +0.000 A 
ATOM     12  C   UNL     1       1.894   4.690  17.985  0.00  0.00    +0.000 A 
ATOM     13  C   UNL     1       2.374   5.866  18.528  0.00  0.00    +0.000 A 
ATOM     14  C   UNL     1       3.588   6.545  17.956  0.00  0.00    +0.000 C 
ATOM     15  C   UNL     1       3.131   7.919  17.603  0.00  0.00    +0.000 C 
ATOM     16  N   UNL     1       2.426   8.636  18.693  0.00  0.00    +0.000 NA
ATOM     17  C   UNL     1       1.235   9.176  18.031  0.00  0.00    +0.000 C 
ENDROOT
BRANCH  10  18
ATOM     18  O   UNL     1       2.024   2.875  21.042  0.00  0.00    +0.000 OA
ATOM     19  H   UNL     1       1.645   2.107  20.603  0.00  0.00    +0.000 HD
ENDBRANCH  10  18
BRANCH  11  20
ATOM     20  O   UNL     1       1.228   2.497  18.289  0.00  0.00    +0.000 OA
ATOM     21  C   UNL     1       2.343   1.838  17.689  0.00  0.00    +0.000 C 
ENDBRANCH  11  20
BRANCH   1  22
ATOM     22  C   UNL     1      -2.548  12.241  19.404  0.00  0.00    +0.000 C 
BRANCH  22  23
ATOM     23  C   UNL     1      -2.559  13.319  20.505  0.00  0.00    +0.000 C 
BRANCH  23  25
ATOM     24  C   UNL     1      -0.713  14.532  21.733  0.00  0.00    +0.000 C 
ATOM     25  C   UNL     1      -1.388  14.298  20.392  0.00  0.00    +0.000 C 
ENDBRANCH  23  25
ENDBRANCH  22  23
ENDBRANCH   1  22
TORSDOF 5
ENDMDL
MODEL 6
REMARK VINA RESULT:      -6.4      1.168      1.813
REMARK  Name = 
REMARK  7 active torsions:
REMARK  status: ('A' for Active; 'I' for Inactive)
REMARK    1  A    between atoms: C_1  and  C_2
REMARK    2  A    between atoms: C_2  and  C_3
REMARK    3  A    between atoms: C_3  and  C_4
REMARK    4  A    between atoms: C_4  and  C_5
REMARK    5  A    between atoms: C_14  and  O_15
REMARK    6  A    between atoms: C_16  and  O_17
REMARK    7  A    between atoms: O_17  and  C_18
REMARK                            x       y       z     vdW  Elec       q    Type
REMARK                         _______ _______ _______ _____ _____    ______ ____
ROOT
ATOM      1  C   UNL     1       0.635  10.677  20.537  0.00  0.00    +0.000 A 
ATOM      2  C   UNL     1       0.885   9.445  21.097  0.00  0.00    +0.000 A 
ATOM      3  C   UNL     1       1.421   8.528  20.155  0.00  0.00    +0.000 A 
ATOM      4  C   UNL     1       1.536   9.041  18.894  0.00  0.00    +0.000 A 
ATOM      5  S   UNL     1       0.966  10.655  18.841  0.00  0.00    +0.000 S 
ATOM      6  C   UNL     1       2.058   8.245  17.712  0.00  0.00    +0.000 C 
ATOM      7  C   UNL     1       2.544   6.773  18.095  0.00  0.00    +0.000 C 
ATOM      8  C   UNL     1       4.059   6.447  17.986  0.00  0.00    +0.000 A 
ATOM      9  C   UNL     1       4.973   6.677  16.942  0.00  0.00    +0.000 A 
ATOM     10  C   UNL     1       6.311   6.218  17.107  0.00  0.00    +0.000 A 
ATOM     11  C   UNL     1       6.783   5.776  18.340  0.00  0.00    +0.000 A 
ATOM     12  C   UNL     1       5.841   5.366  19.252  0.00  0.00    +0.000 A 
ATOM     13  C   UNL     1       4.514   5.483  18.884  0.00  0.00    +0.000 A 
ATOM     14  C   UNL     1       3.531   4.379  19.164  0.00  0.00    +0.000 C 
ATOM     15  C   UNL     1       2.455   5.018  19.973  0.00  0.00    +0.000 C 
ATOM     16  N   UNL     1       1.900   6.263  19.391  0.00  0.00    +0.000 NA
ATOM     17  C   UNL     1       1.890   7.193  20.523  0.00  0.00    +0.000 C 
ENDROOT
BRANCH  10  18
ATOM     18  O   UNL     1       7.111   5.962  15.984  0.00  0.00    +0.000 OA
ATOM     19  H   UNL     1       7.315   6.829  15.618  0.00  0.00    +0.000 HD
ENDBRANCH  10  18
BRANCH  11  20
ATOM     20  O   UNL     1       8.074   5.467  18.664  0.00  0.00    +0.000 OA
ATOM     21  C   UNL     1       8.350   5.428  20.063  0.00  0.00    +0.000 C 
ENDBRANCH  11  20
BRANCH   1  22
ATOM     22  C   UNL     1       0.183  11.894  21.286  0.00  0.00    +0.000 C 
BRANCH  22  23
ATOM     23  C   UNL     1       0.614  13.196  20.583  0.00  0.00    +0.000 C 
BRANCH  23  25
ATOM     24  C   UNL     1       2.765  14.053  19.571  0.00  0.00    +0.000 C 
ATOM     25  C   UNL     1       2.081  13.551  20.833  0.00  0.00    +0.000 C 
ENDBRANCH  23  25
ENDBRANCH  22  23
ENDBRANCH   1  22
TORSDOF 5
ENDMDL
MODEL 7
REMARK VINA RESULT:      -6.4      4.613      8.421
REMARK  Name = 
REMARK  7 active torsions:
REMARK  status: ('A' for Active; 'I' for Inactive)
REMARK    1  A    between atoms: C_1  and  C_2
REMARK    2  A    between atoms: C_2  and  C_3
REMARK    3  A    between atoms: C_3  and  C_4
REMARK    4  A    between atoms: C_4  and  C_5
REMARK    5  A    between atoms: C_14  and  O_15
REMARK    6  A    between atoms: C_16  and  O_17
REMARK    7  A    between atoms: O_17  and  C_18
REMARK                            x       y       z     vdW  Elec       q    Type
REMARK                         _______ _______ _______ _____ _____    ______ ____
ROOT
ATOM      1  C   UNL     1       2.531   6.006  19.885  0.00  0.00    +0.000 A 
ATOM      2  C   UNL     1       1.995   6.925  20.759  0.00  0.00    +0.000 A 
ATOM      3  C   UNL     1       1.553   8.099  20.096  0.00  0.00    +0.000 A 
ATOM      4  C   UNL     1       1.787   8.091  18.750  0.00  0.00    +0.000 A 
ATOM      5  S   UNL     1       2.576   6.645  18.280  0.00  0.00    +0.000 S 
ATOM      6  C   UNL     1       1.427   9.244  17.831  0.00  0.00    +0.000 C 
ATOM      7  C   UNL     1       0.668  10.439  18.570  0.00  0.00    +0.000 C 
ATOM      8  C   UNL     1      -0.818  10.705  18.202  0.00  0.00    +0.000 A 
ATOM      9  C   UNL     1      -1.443  10.837  16.949  0.00  0.00    +0.000 A 
ATOM     10  C   UNL     1      -2.835  11.132  16.920  0.00  0.00    +0.000 A 
ATOM     11  C   UNL     1      -3.620  11.057  18.067  0.00  0.00    +0.000 A 
ATOM     12  C   UNL     1      -2.965  11.143  19.273  0.00  0.00    +0.000 A 
ATOM     13  C   UNL     1      -1.587  11.239  19.235  0.00  0.00    +0.000 A 
ATOM     14  C   UNL     1      -0.853  12.206  20.123  0.00  0.00    +0.000 C 
ATOM     15  C   UNL     1       0.101  11.366  20.902  0.00  0.00    +0.000 C 
ATOM     16  N   UNL     1       0.938  10.458  20.081  0.00  0.00    +0.000 NA
ATOM     17  C   UNL     1       0.832   9.174  20.777  0.00  0.00    +0.000 C 
ENDROOT
BRANCH  10  18
ATOM     18  O   UNL     1      -3.401  11.750  15.794  0.00  0.00    +0.000 OA
ATOM     19  H   UNL     1      -2.771  12.431  15.539  0.00  0.00    +0.000 HD
ENDBRANCH  10  18
BRANCH  11  20
ATOM     20  O   UNL     1      -4.981  11.156  18.141  0.00  0.00    +0.000 OA
ATOM     21  C   UNL     1      -5.465  12.359  18.737  0.00  0.00    +0.000 C 
ENDBRANCH  11  20
BRANCH   1  22
ATOM     22  C   UNL     1       2.976   4.622  20.248  0.00  0.00    +0.000 C 
BRANCH  22  23
ATOM     23  C   UNL     1       2.192   4.063  21.451  0.00  0.00    +0.000 C 
BRANCH  23  25
ATOM     24  C   UNL     1       0.822   2.899  19.675  0.00  0.00    +0.000 C 
ATOM     25  C   UNL     1       1.357   2.830  21.097  0.00  0.00    +0.000 C 
ENDBRANCH  23  25
ENDBRANCH  22  23
ENDBRANCH   1  22
TORSDOF 5
ENDMDL
MODEL 8
REMARK VINA RESULT:      -5.9      4.252      8.259
REMARK  Name = 
REMARK  7 active torsions:
REMARK  status: ('A' for Active; 'I' for Inactive)
REMARK    1  A    between atoms: C_1  and  C_2
REMARK    2  A    between atoms: C_2  and  C_3
REMARK    3  A    between atoms: C_3  and  C_4
REMARK    4  A    between atoms: C_4  and  C_5
REMARK    5  A    between atoms: C_14  and  O_15
REMARK    6  A    between atoms: C_16  and  O_17
REMARK    7  A    between atoms: O_17  and  C_18
REMARK                            x       y       z     vdW  Elec       q    Type
REMARK                         _______ _______ _______ _____ _____    ______ ____
ROOT
ATOM      1  C   UNL     1       1.730   4.142  19.257  0.00  0.00    +0.000 A 
ATOM      2  C   UNL     1       1.368   4.839  20.388  0.00  0.00    +0.000 A 
ATOM      3  C   UNL     1       1.480   6.243  20.209  0.00  0.00    +0.000 A 
ATOM      4  C   UNL     1       1.960   6.604  18.981  0.00  0.00    +0.000 A 
ATOM      5  S   UNL     1       2.300   5.219  18.032  0.00  0.00    +0.000 S 
ATOM      6  C   UNL     1       2.191   8.044  18.564  0.00  0.00    +0.000 C 
ATOM      7  C   UNL     1       1.741   9.109  19.665  0.00  0.00    +0.000 C 
ATOM      8  C   UNL     1       0.532  10.031  19.345  0.00  0.00    +0.000 A 
ATOM      9  C   UNL     1       0.246  10.808  18.209  0.00  0.00    +0.000 A 
ATOM     10  C   UNL     1      -0.935  11.603  18.218  0.00  0.00    +0.000 A 
ATOM     11  C   UNL     1      -1.911  11.448  19.199  0.00  0.00    +0.000 A 
ATOM     12  C   UNL     1      -1.516  10.862  20.378  0.00  0.00    +0.000 A 
ATOM     13  C   UNL     1      -0.205  10.432  20.459  0.00  0.00    +0.000 A 
ATOM     14  C   UNL     1       0.617  10.681  21.694  0.00  0.00    +0.000 C 
ATOM     15  C   UNL     1       1.065   9.331  22.137  0.00  0.00    +0.000 C 
ATOM     16  N   UNL     1       1.698   8.510  21.077  0.00  0.00    +0.000 NA
ATOM     17  C   UNL     1       1.038   7.210  21.212  0.00  0.00    +0.000 C 
ENDROOT
BRANCH  10  18
ATOM     18  O   UNL     1      -1.030  12.733  17.390  0.00  0.00    +0.000 OA
ATOM     19  H   UNL     1      -1.610  13.340  17.861  0.00  0.00    +0.000 HD
ENDBRANCH  10  18
BRANCH  11  20
ATOM     20  O   UNL     1      -3.148  12.028  19.227  0.00  0.00    +0.000 OA
ATOM     21  C   UNL     1      -3.405  12.841  20.372  0.00  0.00    +0.000 C 
ENDBRANCH  11  20
BRANCH   1  22
ATOM     22  C   UNL     1       1.611   2.659  19.078  0.00  0.00    +0.000 C 
BRANCH  22  23
ATOM     23  C   UNL     1       2.597   2.125  18.021  0.00  0.00    +0.000 C 
BRANCH  23  25
ATOM     24  C   UNL     1       4.431   2.124  19.760  0.00  0.00    +0.000 C 
ATOM     25  C   UNL     1       3.765   1.349  18.634  0.00  0.00    +0.000 C 
ENDBRANCH  23  25
ENDBRANCH  22  23
ENDBRANCH   1  22
TORSDOF 5
ENDMDL
MODEL 9
REMARK VINA RESULT:      -5.9      5.517      7.421
REMARK  Name = 
REMARK  7 active torsions:
REMARK  status: ('A' for Active; 'I' for Inactive)
REMARK    1  A    between atoms: C_1  and  C_2
REMARK    2  A    between atoms: C_2  and  C_3
REMARK    3  A    between atoms: C_3  and  C_4
REMARK    4  A    between atoms: C_4  and  C_5
REMARK    5  A    between atoms: C_14  and  O_15
REMARK    6  A    between atoms: C_16  and  O_17
REMARK    7  A    between atoms: O_17  and  C_18
REMARK                            x       y       z     vdW  Elec       q    Type
REMARK                         _______ _______ _______ _____ _____    ______ ____
ROOT
ATOM      1  C   UNL     1       8.521   9.567  18.303  0.00  0.00    +0.000 A 
ATOM      2  C   UNL     1       7.749   9.117  17.255  0.00  0.00    +0.000 A 
ATOM      3  C   UNL     1       7.403   7.748  17.395  0.00  0.00    +0.000 A 
ATOM      4  C   UNL     1       7.938   7.157  18.505  0.00  0.00    +0.000 A 
ATOM      5  S   UNL     1       8.893   8.273  19.386  0.00  0.00    +0.000 S 
ATOM      6  C   UNL     1       7.731   5.695  18.857  0.00  0.00    +0.000 C 
ATOM      7  C   UNL     1       6.758   4.927  17.851  0.00  0.00    +0.000 C 
ATOM      8  C   UNL     1       5.382   4.442  18.386  0.00  0.00    +0.000 A 
ATOM      9  C   UNL     1       5.051   3.723  19.548  0.00  0.00    +0.000 A 
ATOM     10  C   UNL     1       3.687   3.372  19.757  0.00  0.00    +0.000 A 
ATOM     11  C   UNL     1       2.668   3.917  18.981  0.00  0.00    +0.000 A 
ATOM     12  C   UNL     1       3.026   4.423  17.755  0.00  0.00    +0.000 A 
ATOM     13  C   UNL     1       4.369   4.394  17.429  0.00  0.00    +0.000 A 
ATOM     14  C   UNL     1       4.825   3.977  16.058  0.00  0.00    +0.000 C 
ATOM     15  C   UNL     1       5.624   5.129  15.551  0.00  0.00    +0.000 C 
ATOM     16  N   UNL     1       6.675   5.609  16.479  0.00  0.00    +0.000 NA
ATOM     17  C   UNL     1       6.488   7.062  16.485  0.00  0.00    +0.000 C 
ENDROOT
BRANCH  10  18
ATOM     18  O   UNL     1       3.358   2.281  20.576  0.00  0.00    +0.000 OA
ATOM     19  H   UNL     1       2.416   2.139  20.438  0.00  0.00    +0.000 HD
ENDBRANCH  10  18
BRANCH  11  20
ATOM     20  O   UNL     1       1.322   3.788  19.183  0.00  0.00    +0.000 OA
ATOM     21  C   UNL     1       0.760   2.560  18.723  0.00  0.00    +0.000 C 
ENDBRANCH  11  20
BRANCH   1  22
ATOM     22  C   UNL     1       8.950  10.986  18.516  0.00  0.00    +0.000 C 
BRANCH  22  23
ATOM     23  C   UNL     1      10.321  11.276  17.874  0.00  0.00    +0.000 C 
BRANCH  23  25
ATOM     24  C   UNL     1      10.833  11.855  20.280  0.00  0.00    +0.000 C 
ATOM     25  C   UNL     1      11.414  11.560  18.906  0.00  0.00    +0.000 C 
ENDBRANCH  23  25
ENDBRANCH  22  23
ENDBRANCH   1  22
TORSDOF 5
ENDMDL
