MODEL 1
REMARK VINA RESULT:      -8.3      0.000      0.000
REMARK  Name = 
REMARK  9 active torsions:
REMARK  status: ('A' for Active; 'I' for Inactive)
REMARK    1  A    between atoms: C_1  and  C_2
REMARK    2  A    between atoms: C_6  and  C_7
REMARK    3  A    between atoms: C_8  and  N_9
REMARK    4  A    between atoms: C_10  and  C_12
REMARK    5  A    between atoms: C_12  and  C_13
REMARK    6  A    between atoms: C_13  and  C_14
REMARK    7  A    between atoms: N_16  and  N_17
REMARK    8  A    between atoms: C_21  and  C_22
REMARK    9  A    between atoms: N_23  and  N_24
REMARK                            x       y       z     vdW  Elec       q    Type
REMARK                         _______ _______ _______ _____ _____    ______ ____
ROOT
ATOM      1  C   UNL     1       7.595   7.452  17.705  0.00  0.00    +0.000 C 
ATOM      2  O   UNL     1       6.903   7.703  16.716  0.00  0.00    +0.000 OA
ATOM      3  N   UNL     1       8.376   8.410  18.322  0.00  0.00    +0.000 N 
ATOM      4  H   UNL     1       8.775   8.305  19.252  0.00  0.00    +0.000 HD
ENDROOT
BRANCH   3   5
ATOM      5  N   UNL     1       8.269   9.728  17.839  0.00  0.00    +0.000 N 
ATOM      6  C   UNL     1       9.003  10.750  18.352  0.00  0.00    +0.000 A 
ATOM      7  N   UNL     1       9.979  10.710  19.237  0.00  0.00    +0.000 NA
ATOM      8  N   UNL     1      10.414  11.999  19.464  0.00  0.00    +0.000 NA
ATOM      9  C   UNL     1       9.702  12.812  18.710  0.00  0.00    +0.000 A 
ATOM     10  C   UNL     1       9.814  14.288  18.649  0.00  0.00    +0.000 C 
ATOM     11  N   UNL     1       8.799  12.072  17.985  0.00  0.00    +0.000 N 
ATOM     12  H   UNL     1       7.430   9.897  17.285  0.00  0.00    +0.000 HD
BRANCH  11  13
ATOM     13  N   UNL     1       7.841  12.578  17.037  0.00  0.00    +0.000 N 
ATOM     14  H   UNL     1       8.142  13.470  16.649  0.00  0.00    +0.000 HD
ATOM     15  H   UNL     1       6.947  12.772  17.483  0.00  0.00    +0.000 HD
ENDBRANCH  11  13
ENDBRANCH   3   5
BRANCH   1  16
ATOM     16  C   UNL     1       7.644   6.065  18.318  0.00  0.00    +0.000 C 
BRANCH  16  17
ATOM     17  C   UNL     1       6.668   5.091  17.666  0.00  0.00    +0.000 C 
BRANCH  17  19
ATOM     18  N   UNL     1       4.373   4.373  18.092  0.00  0.00    +0.000 N 
ATOM     19  C   UNL     1       5.617   4.605  18.660  0.00  0.00    +0.000 C 
ATOM     20  O   UNL     1       5.887   4.525  19.854  0.00  0.00    +0.000 OA
ATOM     21  H   UNL     1       4.216   4.866  17.221  0.00  0.00    +0.000 HD
BRANCH  18  29
ATOM     22  C   UNL     1       2.747   6.503  19.510  0.00  0.00    +0.000 C 
ATOM     23  C   UNL     1       2.419   5.034  19.496  0.00  0.00    +0.000 A 
ATOM     24  C   UNL     1       1.310   4.619  20.262  0.00  0.00    +0.000 A 
ATOM     25  C   UNL     1       0.974   3.275  20.384  0.00  0.00    +0.000 A 
ATOM     26  C   UNL     1       1.745   2.317  19.739  0.00  0.00    +0.000 A 
ATOM     27  C   UNL     1       2.857   2.692  18.966  0.00  0.00    +0.000 A 
ATOM     28  C   UNL     1       3.610   1.603  18.246  0.00  0.00    +0.000 C 
ATOM     29  C   UNL     1       3.199   4.059  18.830  0.00  0.00    +0.000 A 
ENDBRANCH  18  29
ENDBRANCH  17  19
ENDBRANCH  16  17
ENDBRANCH   1  16
TORSDOF 6
ENDMDL
MODEL 2
REMARK VINA RESULT:      -8.3      0.146      1.785
REMARK  Name = 
REMARK  9 active torsions:
REMARK  status: ('A' for Active; 'I' for Inactive)
REMARK    1  A    between atoms: C_1  and  C_2
REMARK    2  A    between atoms: C_6  and  C_7
REMARK    3  A    between atoms: C_8  and  N_9
REMARK    4  A    between atoms: C_10  and  C_12
REMARK    5  A    between atoms: C_12  and  C_13
REMARK    6  A    between atoms: C_13  and  C_14
REMARK    7  A    between atoms: N_16  and  N_17
REMARK    8  A    between atoms: C_21  and  C_22
REMARK    9  A    between atoms: N_23  and  N_24
REMARK                            x       y       z     vdW  Elec       q    Type
REMARK                         _______ _______ _______ _____ _____    ______ ____
ROOT
ATOM      1  C   UNL     1       7.584   7.551  17.724  0.00  0.00    +0.000 C 
ATOM      2  O   UNL     1       6.893   7.802  16.735  0.00  0.00    +0.000 OA
ATOM      3  N   UNL     1       8.369   8.508  18.339  0.00  0.00    +0.000 N 
ATOM      4  H   UNL     1       8.768   8.403  19.269  0.00  0.00    +0.000 HD
ENDROOT
BRANCH   3   5
ATOM      5  N   UNL     1       8.265   9.826  17.854  0.00  0.00    +0.000 N 
ATOM      6  C   UNL     1       9.055  10.832  18.314  0.00  0.00    +0.000 A 
ATOM      7  N   UNL     1      10.082  10.772  19.138  0.00  0.00    +0.000 NA
ATOM      8  N   UNL     1      10.562  12.051  19.329  0.00  0.00    +0.000 NA
ATOM      9  C   UNL     1       9.825  12.877  18.613  0.00  0.00    +0.000 A 
ATOM     10  C   UNL     1       9.971  14.349  18.535  0.00  0.00    +0.000 C 
ATOM     11  N   UNL     1       8.862  12.156  17.950  0.00  0.00    +0.000 N 
ATOM     12  H   UNL     1       7.399  10.012  17.350  0.00  0.00    +0.000 HD
BRANCH  11  13
ATOM     13  N   UNL     1       7.861  12.681  17.059  0.00  0.00    +0.000 N 
ATOM     14  H   UNL     1       6.937  12.654  17.484  0.00  0.00    +0.000 HD
ATOM     15  H   UNL     1       7.782  12.114  16.217  0.00  0.00    +0.000 HD
ENDBRANCH  11  13
ENDBRANCH   3   5
BRANCH   1  16
ATOM     16  C   UNL     1       7.629   6.165  18.340  0.00  0.00    +0.000 C 
BRANCH  16  17
ATOM     17  C   UNL     1       6.663   5.188  17.678  0.00  0.00    +0.000 C 
BRANCH  17  19
ATOM     18  N   UNL     1       4.412   4.395  18.195  0.00  0.00    +0.000 N 
ATOM     19  C   UNL     1       5.691   4.592  18.692  0.00  0.00    +0.000 C 
ATOM     20  O   UNL     1       6.048   4.402  19.851  0.00  0.00    +0.000 OA
ATOM     21  H   UNL     1       4.188   4.967  17.389  0.00  0.00    +0.000 HD
BRANCH  18  29
ATOM     22  C   UNL     1       3.629   1.483  18.503  0.00  0.00    +0.000 C 
ATOM     23  C   UNL     1       2.913   2.641  19.144  0.00  0.00    +0.000 A 
ATOM     24  C   UNL     1       1.750   2.343  19.884  0.00  0.00    +0.000 A 
ATOM     25  C   UNL     1       0.968   3.348  20.445  0.00  0.00    +0.000 A 
ATOM     26  C   UNL     1       1.339   4.676  20.274  0.00  0.00    +0.000 A 
ATOM     27  C   UNL     1       2.491   5.012  19.544  0.00  0.00    +0.000 A 
ATOM     28  C   UNL     1       2.865   6.469  19.453  0.00  0.00    +0.000 C 
ATOM     29  C   UNL     1       3.297   3.992  18.980  0.00  0.00    +0.000 A 
ENDBRANCH  18  29
ENDBRANCH  17  19
ENDBRANCH  16  17
ENDBRANCH   1  16
TORSDOF 6
ENDMDL
MODEL 3
REMARK VINA RESULT:      -8.2      1.187      2.000
REMARK  Name = 
REMARK  9 active torsions:
REMARK  status: ('A' for Active; 'I' for Inactive)
REMARK    1  A    between atoms: C_1  and  C_2
REMARK    2  A    between atoms: C_6  and  C_7
REMARK    3  A    between atoms: C_8  and  N_9
REMARK    4  A    between atoms: C_10  and  C_12
REMARK    5  A    between atoms: C_12  and  C_13
REMARK    6  A    between atoms: C_13  and  C_14
REMARK    7  A    between atoms: N_16  and  N_17
REMARK    8  A    between atoms: C_21  and  C_22
REMARK    9  A    between atoms: N_23  and  N_24
REMARK                            x       y       z     vdW  Elec       q    Type
REMARK                         _______ _______ _______ _____ _____    ______ ____
ROOT
ATOM      1  C   UNL     1       7.840   7.418  18.090  0.00  0.00    +0.000 C 
ATOM      2  O   UNL     1       7.264   7.549  17.009  0.00  0.00    +0.000 OA
ATOM      3  N   UNL     1       8.504   8.462  18.706  0.00  0.00    +0.000 N 
ATOM      4  H   UNL     1       8.792   8.455  19.682  0.00  0.00    +0.000 HD
ENDROOT
BRANCH   3   5
ATOM      5  N   UNL     1       8.405   9.727  18.097  0.00  0.00    +0.000 N 
ATOM      6  C   UNL     1       9.150  10.788  18.505  0.00  0.00    +0.000 A 
ATOM      7  N   UNL     1      10.130  10.826  19.386  0.00  0.00    +0.000 NA
ATOM      8  N   UNL     1      10.576  12.128  19.484  0.00  0.00    +0.000 NA
ATOM      9  C   UNL     1       9.866  12.869  18.657  0.00  0.00    +0.000 A 
ATOM     10  C   UNL     1       9.991  14.331  18.451  0.00  0.00    +0.000 C 
ATOM     11  N   UNL     1       8.954  12.069  18.011  0.00  0.00    +0.000 N 
ATOM     12  H   UNL     1       7.565   9.848  17.532  0.00  0.00    +0.000 HD
BRANCH  11  13
ATOM     13  N   UNL     1       7.997  12.489  17.022  0.00  0.00    +0.000 N 
ATOM     14  H   UNL     1       8.063  13.489  16.846  0.00  0.00    +0.000 HD
ATOM     15  H   UNL     1       7.043  12.339  17.345  0.00  0.00    +0.000 HD
ENDBRANCH  11  13
ENDBRANCH   3   5
BRANCH   1  16
ATOM     16  C   UNL     1       7.868   6.092  18.828  0.00  0.00    +0.000 C 
BRANCH  16  17
ATOM     17  C   UNL     1       7.732   4.891  17.898  0.00  0.00    +0.000 C 
BRANCH  17  19
ATOM     18  N   UNL     1       5.430   4.802  18.710  0.00  0.00    +0.000 N 
ATOM     19  C   UNL     1       6.266   4.555  17.632  0.00  0.00    +0.000 C 
ATOM     20  O   UNL     1       5.935   4.039  16.569  0.00  0.00    +0.000 OA
ATOM     21  H   UNL     1       5.903   4.828  19.605  0.00  0.00    +0.000 HD
BRANCH  18  29
ATOM     22  C   UNL     1       4.513   2.151  19.860  0.00  0.00    +0.000 C 
ATOM     23  C   UNL     1       3.602   3.209  19.298  0.00  0.00    +0.000 A 
ATOM     24  C   UNL     1       2.226   2.903  19.242  0.00  0.00    +0.000 A 
ATOM     25  C   UNL     1       1.311   3.777  18.663  0.00  0.00    +0.000 A 
ATOM     26  C   UNL     1       1.759   4.977  18.127  0.00  0.00    +0.000 A 
ATOM     27  C   UNL     1       3.121   5.317  18.165  0.00  0.00    +0.000 A 
ATOM     28  C   UNL     1       3.525   6.663  17.620  0.00  0.00    +0.000 C 
ATOM     29  C   UNL     1       4.056   4.437  18.762  0.00  0.00    +0.000 A 
ENDBRANCH  18  29
ENDBRANCH  17  19
ENDBRANCH  16  17
ENDBRANCH   1  16
TORSDOF 6
ENDMDL
MODEL 4
REMARK VINA RESULT:      -8.0      1.063      1.142
REMARK  Name = 
REMARK  9 active torsions:
REMARK  status: ('A' for Active; 'I' for Inactive)
REMARK    1  A    between atoms: C_1  and  C_2
REMARK    2  A    between atoms: C_6  and  C_7
REMARK    3  A    between atoms: C_8  and  N_9
REMARK    4  A    between atoms: C_10  and  C_12
REMARK    5  A    between atoms: C_12  and  C_13
REMARK    6  A    between atoms: C_13  and  C_14
REMARK    7  A    between atoms: N_16  and  N_17
REMARK    8  A    between atoms: C_21  and  C_22
REMARK    9  A    between atoms: N_23  and  N_24
REMARK                            x       y       z     vdW  Elec       q    Type
REMARK                         _______ _______ _______ _____ _____    ______ ____
ROOT
ATOM      1  C   UNL     1       7.793   7.415  17.832  0.00  0.00    +0.000 C 
ATOM      2  O   UNL     1       7.065   7.592  16.853  0.00  0.00    +0.000 OA
ATOM      3  N   UNL     1       8.520   8.440  18.407  0.00  0.00    +0.000 N 
ATOM      4  H   UNL     1       8.945   8.386  19.329  0.00  0.00    +0.000 HD
ENDROOT
BRANCH   3   5
ATOM      5  N   UNL     1       8.314   9.734  17.893  0.00  0.00    +0.000 N 
ATOM      6  C   UNL     1       9.042  10.803  18.309  0.00  0.00    +0.000 A 
ATOM      7  N   UNL     1      10.090  10.835  19.108  0.00  0.00    +0.000 NA
ATOM      8  N   UNL     1      10.484  12.149  19.256  0.00  0.00    +0.000 NA
ATOM      9  C   UNL     1       9.675  12.904  18.540  0.00  0.00    +0.000 A 
ATOM     10  C   UNL     1       9.716  14.380  18.422  0.00  0.00    +0.000 C 
ATOM     11  N   UNL     1       8.749  12.101  17.918  0.00  0.00    +0.000 N 
ATOM     12  H   UNL     1       7.425   9.847  17.407  0.00  0.00    +0.000 HD
BRANCH  11  13
ATOM     13  N   UNL     1       7.693  12.533  17.041  0.00  0.00    +0.000 N 
ATOM     14  H   UNL     1       7.690  11.996  16.176  0.00  0.00    +0.000 HD
ATOM     15  H   UNL     1       7.826  13.500  16.751  0.00  0.00    +0.000 HD
ENDBRANCH  11  13
ENDBRANCH   3   5
BRANCH   1  16
ATOM     16  C   UNL     1       7.948   6.051  18.479  0.00  0.00    +0.000 C 
BRANCH  16  17
ATOM     17  C   UNL     1       6.817   5.720  19.448  0.00  0.00    +0.000 C 
BRANCH  17  19
ATOM     18  N   UNL     1       4.528   4.873  19.512  0.00  0.00    +0.000 N 
ATOM     19  C   UNL     1       5.674   4.994  18.743  0.00  0.00    +0.000 C 
ATOM     20  O   UNL     1       5.845   4.513  17.626  0.00  0.00    +0.000 OA
ATOM     21  H   UNL     1       4.688   4.948  20.510  0.00  0.00    +0.000 HD
BRANCH  18  29
ATOM     22  C   UNL     1       2.236   6.084  17.940  0.00  0.00    +0.000 C 
ATOM     23  C   UNL     1       2.305   4.653  18.401  0.00  0.00    +0.000 A 
ATOM     24  C   UNL     1       1.181   3.843  18.138  0.00  0.00    +0.000 A 
ATOM     25  C   UNL     1       1.108   2.531  18.596  0.00  0.00    +0.000 A 
ATOM     26  C   UNL     1       2.164   2.005  19.329  0.00  0.00    +0.000 A 
ATOM     27  C   UNL     1       3.300   2.781  19.611  0.00  0.00    +0.000 A 
ATOM     28  C   UNL     1       4.432   2.124  20.358  0.00  0.00    +0.000 C 
ATOM     29  C   UNL     1       3.385   4.114  19.138  0.00  0.00    +0.000 A 
ENDBRANCH  18  29
ENDBRANCH  17  19
ENDBRANCH  16  17
ENDBRANCH   1  16
TORSDOF 6
ENDMDL
MODEL 5
REMARK VINA RESULT:      -7.9      4.876      6.664
REMARK  Name = 
REMARK  9 active torsions:
REMARK  status: ('A' for Active; 'I' for Inactive)
REMARK    1  A    between atoms: C_1  and  C_2
REMARK    2  A    between atoms: C_6  and  C_7
REMARK    3  A    between atoms: C_8  and  N_9
REMARK    4  A    between atoms: C_10  and  C_12
REMARK    5  A    between atoms: C_12  and  C_13
REMARK    6  A    between atoms: C_13  and  C_14
REMARK    7  A    between atoms: N_16  and  N_17
REMARK    8  A    between atoms: C_21  and  C_22
REMARK    9  A    between atoms: N_23  and  N_24
REMARK                            x       y       z     vdW  Elec       q    Type
REMARK                         _______ _______ _______ _____ _____    ______ ____
ROOT
ATOM      1  C   UNL     1       4.429   3.005  18.481  0.00  0.00    +0.000 C 
ATOM      2  O   UNL     1       3.732   2.152  17.927  0.00  0.00    +0.000 OA
ATOM      3  N   UNL     1       5.419   3.699  17.812  0.00  0.00    +0.000 N 
ATOM      4  H   UNL     1       5.852   4.549  18.163  0.00  0.00    +0.000 HD
ENDROOT
BRANCH   3   5
ATOM      5  N   UNL     1       5.533   3.471  16.427  0.00  0.00    +0.000 N 
ATOM      6  C   UNL     1       6.363   4.202  15.638  0.00  0.00    +0.000 A 
ATOM      7  N   UNL     1       7.256   5.107  15.985  0.00  0.00    +0.000 NA
ATOM      8  N   UNL     1       7.849   5.595  14.839  0.00  0.00    +0.000 NA
ATOM      9  C   UNL     1       7.315   4.977  13.805  0.00  0.00    +0.000 A 
ATOM     10  C   UNL     1       7.637   5.202  12.377  0.00  0.00    +0.000 C 
ATOM     11  N   UNL     1       6.373   4.083  14.257  0.00  0.00    +0.000 N 
ATOM     12  H   UNL     1       4.769   2.920  16.036  0.00  0.00    +0.000 HD
BRANCH  11  13
ATOM     13  N   UNL     1       5.569   3.206  13.448  0.00  0.00    +0.000 N 
ATOM     14  H   UNL     1       5.888   2.242  13.520  0.00  0.00    +0.000 HD
ATOM     15  H   UNL     1       5.647   3.437  12.460  0.00  0.00    +0.000 HD
ENDBRANCH  11  13
ENDBRANCH   3   5
BRANCH   1  16
ATOM     16  C   UNL     1       4.253   3.355  19.947  0.00  0.00    +0.000 C 
BRANCH  16  17
ATOM     17  C   UNL     1       2.818   3.731  20.301  0.00  0.00    +0.000 C 
BRANCH  17  19
ATOM     18  N   UNL     1       2.788   6.129  19.839  0.00  0.00    +0.000 N 
ATOM     19  C   UNL     1       2.316   4.888  19.441  0.00  0.00    +0.000 C 
ATOM     20  O   UNL     1       1.505   4.682  18.543  0.00  0.00    +0.000 OA
ATOM     21  H   UNL     1       3.093   6.166  20.805  0.00  0.00    +0.000 HD
BRANCH  18  29
ATOM     22  C   UNL     1       3.816   7.170  17.184  0.00  0.00    +0.000 C 
ATOM     23  C   UNL     1       2.811   7.874  18.057  0.00  0.00    +0.000 A 
ATOM     24  C   UNL     1       2.376   9.146  17.631  0.00  0.00    +0.000 A 
ATOM     25  C   UNL     1       1.514   9.916  18.407  0.00  0.00    +0.000 A 
ATOM     26  C   UNL     1       1.072   9.424  19.628  0.00  0.00    +0.000 A 
ATOM     27  C   UNL     1       1.483   8.160  20.085  0.00  0.00    +0.000 A 
ATOM     28  C   UNL     1       0.913   7.666  21.390  0.00  0.00    +0.000 C 
ATOM     29  C   UNL     1       2.351   7.368  19.295  0.00  0.00    +0.000 A 
ENDBRANCH  18  29
ENDBRANCH  17  19
ENDBRANCH  16  17
ENDBRANCH   1  16
TORSDOF 6
ENDMDL
MODEL 6
REMARK VINA RESULT:      -7.9      4.197      8.002
REMARK  Name = 
REMARK  9 active torsions:
REMARK  status: ('A' for Active; 'I' for Inactive)
REMARK    1  A    between atoms: C_1  and  C_2
REMARK    2  A    between atoms: C_6  and  C_7
REMARK    3  A    between atoms: C_8  and  N_9
REMARK    4  A    between atoms: C_10  and  C_12
REMARK    5  A    between atoms: C_12  and  C_13
REMARK    6  A    between atoms: C_13  and  C_14
REMARK    7  A    between atoms: N_16  and  N_17
REMARK    8  A    between atoms: C_21  and  C_22
REMARK    9  A    between atoms: N_23  and  N_24
REMARK                            x       y       z     vdW  Elec       q    Type
REMARK                         _______ _______ _______ _____ _____    ______ ____
ROOT
ATOM      1  C   UNL     1       7.051   5.202  19.057  0.00  0.00    +0.000 C 
ATOM      2  O   UNL     1       6.873   5.530  20.232  0.00  0.00    +0.000 OA
ATOM      3  N   UNL     1       6.407   4.120  18.487  0.00  0.00    +0.000 N 
ATOM      4  H   UNL     1       6.354   3.956  17.485  0.00  0.00    +0.000 HD
ENDROOT
BRANCH   3   5
ATOM      5  N   UNL     1       5.445   3.462  19.276  0.00  0.00    +0.000 N 
ATOM      6  C   UNL     1       4.119   3.748  19.190  0.00  0.00    +0.000 A 
ATOM      7  N   UNL     1       3.492   4.533  18.336  0.00  0.00    +0.000 NA
ATOM      8  N   UNL     1       2.148   4.526  18.647  0.00  0.00    +0.000 NA
ATOM      9  C   UNL     1       1.969   3.733  19.684  0.00  0.00    +0.000 A 
ATOM     10  C   UNL     1       0.687   3.447  20.367  0.00  0.00    +0.000 C 
ATOM     11  N   UNL     1       3.184   3.213  20.062  0.00  0.00    +0.000 N 
ATOM     12  H   UNL     1       5.836   2.972  20.079  0.00  0.00    +0.000 HD
BRANCH  11  13
ATOM     13  N   UNL     1       3.422   2.298  21.147  0.00  0.00    +0.000 N 
ATOM     14  H   UNL     1       2.555   1.871  21.467  0.00  0.00    +0.000 HD
ATOM     15  H   UNL     1       3.797   2.779  21.961  0.00  0.00    +0.000 HD
ENDBRANCH  11  13
ENDBRANCH   3   5
BRANCH   1  16
ATOM     16  C   UNL     1       7.998   5.962  18.147  0.00  0.00    +0.000 C 
BRANCH  16  17
ATOM     17  C   UNL     1       7.293   7.021  17.306  0.00  0.00    +0.000 C 
BRANCH  17  19
ATOM     18  N   UNL     1       7.384   5.405  15.476  0.00  0.00    +0.000 N 
ATOM     19  C   UNL     1       6.633   6.406  16.074  0.00  0.00    +0.000 C 
ATOM     20  O   UNL     1       5.572   6.856  15.653  0.00  0.00    +0.000 OA
ATOM     21  H   UNL     1       8.374   5.446  15.690  0.00  0.00    +0.000 HD
BRANCH  18  29
ATOM     22  C   UNL     1       8.831   6.089  12.901  0.00  0.00    +0.000 C 
ATOM     23  C   UNL     1       7.720   5.081  13.025  0.00  0.00    +0.000 A 
ATOM     24  C   UNL     1       7.279   4.467  11.835  0.00  0.00    +0.000 A 
ATOM     25  C   UNL     1       6.202   3.586  11.828  0.00  0.00    +0.000 A 
ATOM     26  C   UNL     1       5.544   3.303  13.018  0.00  0.00    +0.000 A 
ATOM     27  C   UNL     1       5.955   3.895  14.224  0.00  0.00    +0.000 A 
ATOM     28  C   UNL     1       5.234   3.493  15.485  0.00  0.00    +0.000 C 
ATOM     29  C   UNL     1       7.057   4.785  14.239  0.00  0.00    +0.000 A 
ENDBRANCH  18  29
ENDBRANCH  17  19
ENDBRANCH  16  17
ENDBRANCH   1  16
TORSDOF 6
ENDMDL
MODEL 7
REMARK VINA RESULT:      -7.8      0.836      2.280
REMARK  Name = 
REMARK  9 active torsions:
REMARK  status: ('A' for Active; 'I' for Inactive)
REMARK    1  A    between atoms: C_1  and  C_2
REMARK    2  A    between atoms: C_6  and  C_7
REMARK    3  A    between atoms: C_8  and  N_9
REMARK    4  A    between atoms: C_10  and  C_12
REMARK    5  A    between atoms: C_12  and  C_13
REMARK    6  A    between atoms: C_13  and  C_14
REMARK    7  A    between atoms: N_16  and  N_17
REMARK    8  A    between atoms: C_21  and  C_22
REMARK    9  A    between atoms: N_23  and  N_24
REMARK                            x       y       z     vdW  Elec       q    Type
REMARK                         _______ _______ _______ _____ _____    ______ ____
ROOT
ATOM      1  C   UNL     1       7.565   7.353  17.836  0.00  0.00    +0.000 C 
ATOM      2  O   UNL     1       8.241   6.849  18.735  0.00  0.00    +0.000 OA
ATOM      3  N   UNL     1       7.638   8.697  17.522  0.00  0.00    +0.000 N 
ATOM      4  H   UNL     1       7.276   9.099  16.661  0.00  0.00    +0.000 HD
ENDROOT
BRANCH   3   5
ATOM      5  N   UNL     1       8.606   9.459  18.203  0.00  0.00    +0.000 N 
ATOM      6  C   UNL     1       8.706  10.806  18.052  0.00  0.00    +0.000 A 
ATOM      7  N   UNL     1       7.909  11.631  17.401  0.00  0.00    +0.000 NA
ATOM      8  N   UNL     1       8.422  12.907  17.510  0.00  0.00    +0.000 NA
ATOM      9  C   UNL     1       9.523  12.847  18.232  0.00  0.00    +0.000 A 
ATOM     10  C   UNL     1      10.412  13.979  18.583  0.00  0.00    +0.000 C 
ATOM     11  N   UNL     1       9.744  11.542  18.602  0.00  0.00    +0.000 N 
ATOM     12  H   UNL     1       9.370   8.905  18.589  0.00  0.00    +0.000 HD
BRANCH  11  13
ATOM     13  N   UNL     1      10.836  11.052  19.402  0.00  0.00    +0.000 N 
ATOM     14  H   UNL     1      11.729  11.200  18.937  0.00  0.00    +0.000 HD
ATOM     15  H   UNL     1      10.772  10.046  19.538  0.00  0.00    +0.000 HD
ENDBRANCH  11  13
ENDBRANCH   3   5
BRANCH   1  16
ATOM     16  C   UNL     1       6.594   6.533  17.007  0.00  0.00    +0.000 C 
BRANCH  16  17
ATOM     17  C   UNL     1       6.744   5.031  17.229  0.00  0.00    +0.000 C 
BRANCH  17  19
ATOM     18  N   UNL     1       4.474   4.377  17.852  0.00  0.00    +0.000 N 
ATOM     19  C   UNL     1       5.778   4.527  18.299  0.00  0.00    +0.000 C 
ATOM     20  O   UNL     1       6.166   4.366  19.452  0.00  0.00    +0.000 OA
ATOM     21  H   UNL     1       4.252   4.927  17.031  0.00  0.00    +0.000 HD
BRANCH  18  29
ATOM     22  C   UNL     1       3.584   1.521  18.343  0.00  0.00    +0.000 C 
ATOM     23  C   UNL     1       2.935   2.742  18.939  0.00  0.00    +0.000 A 
ATOM     24  C   UNL     1       1.784   2.533  19.726  0.00  0.00    +0.000 A 
ATOM     25  C   UNL     1       1.062   3.600  20.253  0.00  0.00    +0.000 A 
ATOM     26  C   UNL     1       1.480   4.899  19.999  0.00  0.00    +0.000 A 
ATOM     27  C   UNL     1       2.623   5.146  19.219  0.00  0.00    +0.000 A 
ATOM     28  C   UNL     1       3.052   6.580  19.038  0.00  0.00    +0.000 C 
ATOM     29  C   UNL     1       3.368   4.065  18.689  0.00  0.00    +0.000 A 
ENDBRANCH  18  29
ENDBRANCH  17  19
ENDBRANCH  16  17
ENDBRANCH   1  16
TORSDOF 6
ENDMDL
MODEL 8
REMARK VINA RESULT:      -7.8      0.849      1.440
REMARK  Name = 
REMARK  9 active torsions:
REMARK  status: ('A' for Active; 'I' for Inactive)
REMARK    1  A    between atoms: C_1  and  C_2
REMARK    2  A    between atoms: C_6  and  C_7
REMARK    3  A    between atoms: C_8  and  N_9
REMARK    4  A    between atoms: C_10  and  C_12
REMARK    5  A    between atoms: C_12  and  C_13
REMARK    6  A    between atoms: C_13  and  C_14
REMARK    7  A    between atoms: N_16  and  N_17
REMARK    8  A    between atoms: C_21  and  C_22
REMARK    9  A    between atoms: N_23  and  N_24
REMARK                            x       y       z     vdW  Elec       q    Type
REMARK                         _______ _______ _______ _____ _____    ______ ____
ROOT
ATOM      1  C   UNL     1       7.678   7.617  17.996  0.00  0.00    +0.000 C 
ATOM      2  O   UNL     1       8.431   7.076  18.808  0.00  0.00    +0.000 OA
ATOM      3  N   UNL     1       7.741   8.969  17.717  0.00  0.00    +0.000 N 
ATOM      4  H   UNL     1       7.301   9.403  16.909  0.00  0.00    +0.000 HD
ENDROOT
BRANCH   3   5
ATOM      5  N   UNL     1       8.784   9.697  18.321  0.00  0.00    +0.000 N 
ATOM      6  C   UNL     1       8.927  11.037  18.146  0.00  0.00    +0.000 A 
ATOM      7  N   UNL     1       8.123  11.888  17.541  0.00  0.00    +0.000 NA
ATOM      8  N   UNL     1       8.694  13.143  17.599  0.00  0.00    +0.000 NA
ATOM      9  C   UNL     1       9.838  13.044  18.244  0.00  0.00    +0.000 A 
ATOM     10  C   UNL     1      10.795  14.141  18.520  0.00  0.00    +0.000 C 
ATOM     11  N   UNL     1      10.030  11.735  18.615  0.00  0.00    +0.000 N 
ATOM     12  H   UNL     1       9.549   9.116  18.661  0.00  0.00    +0.000 HD
BRANCH  11  13
ATOM     13  N   UNL     1      11.153  11.208  19.345  0.00  0.00    +0.000 N 
ATOM     14  H   UNL     1      11.911  11.885  19.395  0.00  0.00    +0.000 HD
ATOM     15  H   UNL     1      11.553  10.398  18.874  0.00  0.00    +0.000 HD
ENDBRANCH  11  13
ENDBRANCH   3   5
BRANCH   1  16
ATOM     16  C   UNL     1       6.616   6.836  17.244  0.00  0.00    +0.000 C 
BRANCH  16  17
ATOM     17  C   UNL     1       6.693   5.334  17.495  0.00  0.00    +0.000 C 
BRANCH  17  19
ATOM     18  N   UNL     1       4.440   4.571  18.049  0.00  0.00    +0.000 N 
ATOM     19  C   UNL     1       5.688   4.895  18.557  0.00  0.00    +0.000 C 
ATOM     20  O   UNL     1       5.994   4.926  19.746  0.00  0.00    +0.000 OA
ATOM     21  H   UNL     1       4.240   4.983  17.145  0.00  0.00    +0.000 HD
BRANCH  18  29
ATOM     22  C   UNL     1       2.833   6.745  19.421  0.00  0.00    +0.000 C 
ATOM     23  C   UNL     1       2.529   5.272  19.491  0.00  0.00    +0.000 A 
ATOM     24  C   UNL     1       1.456   4.880  20.318  0.00  0.00    +0.000 A 
ATOM     25  C   UNL     1       1.146   3.539  20.519  0.00  0.00    +0.000 A 
ATOM     26  C   UNL     1       1.909   2.561  19.894  0.00  0.00    +0.000 A 
ATOM     27  C   UNL     1       2.985   2.913  19.062  0.00  0.00    +0.000 A 
ATOM     28  C   UNL     1       3.728   1.801  18.367  0.00  0.00    +0.000 C 
ATOM     29  C   UNL     1       3.299   4.277  18.845  0.00  0.00    +0.000 A 
ENDBRANCH  18  29
ENDBRANCH  17  19
ENDBRANCH  16  17
ENDBRANCH   1  16
TORSDOF 6
ENDMDL
MODEL 9
REMARK VINA RESULT:      -7.8      1.247      2.207
REMARK  Name = 
REMARK  9 active torsions:
REMARK  status: ('A' for Active; 'I' for Inactive)
REMARK    1  A    between atoms: C_1  and  C_2
REMARK    2  A    between atoms: C_6  and  C_7
REMARK    3  A    between atoms: C_8  and  N_9
REMARK    4  A    between atoms: C_10  and  C_12
REMARK    5  A    between atoms: C_12  and  C_13
REMARK    6  A    between atoms: C_13  and  C_14
REMARK    7  A    between atoms: N_16  and  N_17
REMARK    8  A    between atoms: C_21  and  C_22
REMARK    9  A    between atoms: N_23  and  N_24
REMARK                            x       y       z     vdW  Elec       q    Type
REMARK                         _______ _______ _______ _____ _____    ______ ____
ROOT
ATOM      1  C   UNL     1       7.400   7.821  17.328  0.00  0.00    +0.000 C 
ATOM      2  O   UNL     1       8.293   7.343  16.625  0.00  0.00    +0.000 OA
ATOM      3  N   UNL     1       7.551   9.018  18.002  0.00  0.00    +0.000 N 
ATOM      4  H   UNL     1       6.778   9.547  18.399  0.00  0.00    +0.000 HD
ENDROOT
BRANCH   3   5
ATOM      5  N   UNL     1       8.739   9.736  17.767  0.00  0.00    +0.000 N 
ATOM      6  C   UNL     1       9.369  10.434  18.748  0.00  0.00    +0.000 A 
ATOM      7  N   UNL     1       9.106  10.477  20.039  0.00  0.00    +0.000 NA
ATOM      8  N   UNL     1      10.004  11.336  20.638  0.00  0.00    +0.000 NA
ATOM      9  C   UNL     1      10.810  11.803  19.706  0.00  0.00    +0.000 A 
ATOM     10  C   UNL     1      11.913  12.773  19.896  0.00  0.00    +0.000 C 
ATOM     11  N   UNL     1      10.454  11.260  18.494  0.00  0.00    +0.000 N 
ATOM     12  H   UNL     1       8.928   9.909  16.780  0.00  0.00    +0.000 HD
BRANCH  11  13
ATOM     13  N   UNL     1      11.088  11.507  17.226  0.00  0.00    +0.000 N 
ATOM     14  H   UNL     1      12.032  11.866  17.350  0.00  0.00    +0.000 HD
ATOM     15  H   UNL     1      10.597  12.228  16.702  0.00  0.00    +0.000 HD
ENDBRANCH  11  13
ENDBRANCH   3   5
BRANCH   1  16
ATOM     16  C   UNL     1       6.064   7.125  17.510  0.00  0.00    +0.000 C 
BRANCH  16  17
ATOM     17  C   UNL     1       6.122   5.634  17.195  0.00  0.00    +0.000 C 
BRANCH  17  19
ATOM     18  N   UNL     1       3.992   4.749  17.997  0.00  0.00    +0.000 N 
ATOM     19  C   UNL     1       5.357   4.814  18.231  0.00  0.00    +0.000 C 
ATOM     20  O   UNL     1       5.942   4.349  19.204  0.00  0.00    +0.000 OA
ATOM     21  H   UNL     1       3.634   5.500  17.418  0.00  0.00    +0.000 HD
BRANCH  18  29
ATOM     22  C   UNL     1       3.482   1.763  18.097  0.00  0.00    +0.000 C 
ATOM     23  C   UNL     1       2.796   2.784  18.964  0.00  0.00    +0.000 A 
ATOM     24  C   UNL     1       1.791   2.313  19.834  0.00  0.00    +0.000 A 
ATOM     25  C   UNL     1       1.039   3.186  20.615  0.00  0.00    +0.000 A 
ATOM     26  C   UNL     1       1.280   4.551  20.537  0.00  0.00    +0.000 A 
ATOM     27  C   UNL     1       2.273   5.058  19.682  0.00  0.00    +0.000 A 
ATOM     28  C   UNL     1       2.520   6.545  19.697  0.00  0.00    +0.000 C 
ATOM     29  C   UNL     1       3.049   4.174  18.893  0.00  0.00    +0.000 A 
ENDBRANCH  18  29
ENDBRANCH  17  19
ENDBRANCH  16  17
ENDBRANCH   1  16
TORSDOF 6
ENDMDL
