MODEL 1
REMARK VINA RESULT:      -8.3      0.000      0.000
REMARK  Name = 
REMARK  11 active torsions:
REMARK  status: ('A' for Active; 'I' for Inactive)
REMARK    1  A    between atoms: C_1  and  C_2
REMARK    2  A    between atoms: C_2  and  C_3
REMARK    3  A    between atoms: C_2  and  N_25
REMARK    4  A    between atoms: C_3  and  C_4
REMARK    5  A    between atoms: C_4  and  C_5
REMARK    6  A    between atoms: C_5  and  N_6
REMARK    7  A    between atoms: N_6  and  C_7
REMARK    8  A    between atoms: N_6  and  C_8
REMARK    9  A    between atoms: C_8  and  C_9
REMARK   10  A    between atoms: C_12  and  C_13
REMARK   11  A    between atoms: N_25  and  C_26
REMARK                            x       y       z     vdW  Elec       q    Type
REMARK                         _______ _______ _______ _____ _____    ______ ____
ROOT
ATOM      1  N   UNL     1       1.462   4.497  20.909  0.00  0.00    +0.000 NA
ATOM      2  C   UNL     1       2.289   3.451  21.566  0.00  0.00    +0.000 C 
ENDROOT
BRANCH   1   3
ATOM      3  C   UNL     1       0.701   3.876  19.799  0.00  0.00    +0.000 C 
BRANCH   3   4
ATOM      4  C   UNL     1       1.465   2.905  18.855  0.00  0.00    +0.000 C 
BRANCH   4   5
ATOM      5  C   UNL     1       2.630   3.386  17.940  0.00  0.00    +0.000 C 
BRANCH   5   7
ATOM      6  C   UNL     1       4.841   3.285  19.231  0.00  0.00    +0.000 C 
ATOM      7  C   UNL     1       4.088   2.784  18.002  0.00  0.00    +0.000 C 
BRANCH   7   8
ATOM      8  N   UNL     1       4.818   3.107  16.768  0.00  0.00    +0.000 N 
ATOM      9  H   UNL     1       5.809   2.883  16.942  0.00  0.00    +0.000 HD
BRANCH   8  10
ATOM     10  C   UNL     1       4.880   4.459  16.143  0.00  0.00    +0.000 A 
ATOM     11  C   UNL     1       5.471   4.288  14.904  0.00  0.00    +0.000 A 
ATOM     12  C   UNL     1       6.841   4.103  14.963  0.00  0.00    +0.000 A 
ATOM     13  N   UNL     1       7.571   4.533  16.021  0.00  0.00    +0.000 NA
ATOM     14  C   UNL     1       6.945   5.432  16.798  0.00  0.00    +0.000 A 
ATOM     15  C   UNL     1       7.695   6.462  17.349  0.00  0.00    +0.000 A 
ATOM     16  C   UNL     1       7.125   7.712  17.597  0.00  0.00    +0.000 A 
ATOM     17  C   UNL     1       5.781   7.916  17.309  0.00  0.00    +0.000 A 
ATOM     18  C   UNL     1       4.986   6.824  16.923  0.00  0.00    +0.000 A 
ATOM     19  C   UNL     1       5.542   5.525  16.771  0.00  0.00    +0.000 A 
ENDBRANCH   8  10
ENDBRANCH   7   8
ENDBRANCH   5   7
ENDBRANCH   4   5
ENDBRANCH   3   4
ENDBRANCH   1   3
BRANCH   1  20
ATOM     20  C   UNL     1       2.411   5.582  20.457  0.00  0.00    +0.000 C 
BRANCH  20  21
ATOM     21  C   UNL     1       1.890   6.966  20.108  0.00  0.00    +0.000 A 
ATOM     22  C   UNL     1       1.158   7.740  20.987  0.00  0.00    +0.000 A 
ATOM     23  C   UNL     1       0.707   9.007  20.630  0.00  0.00    +0.000 A 
ATOM     24  C   UNL     1       1.110   9.671  19.449  0.00  0.00    +0.000 A 
ATOM     25  C   UNL     1       1.770   8.884  18.513  0.00  0.00    +0.000 A 
ATOM     26  C   UNL     1       2.144   7.548  18.842  0.00  0.00    +0.000 A 
BRANCH  24  27
ATOM     27  C   UNL     1       0.858  11.139  19.414  0.00  0.00    +0.000 A 
ATOM     28  C   UNL     1      -0.036  11.573  20.394  0.00  0.00    +0.000 A 
ATOM     29  S   UNL     1      -0.857  12.959  19.873  0.00  0.00    +0.000 S 
ATOM     30  C   UNL     1       0.605  13.466  19.139  0.00  0.00    +0.000 A 
ATOM     31  C   UNL     1       0.916  14.809  18.866  0.00  0.00    +0.000 A 
ATOM     32  C   UNL     1       2.205  15.102  18.465  0.00  0.00    +0.000 A 
ATOM     33  C   UNL     1       3.085  14.065  18.197  0.00  0.00    +0.000 A 
ATOM     34  F   UNL     1       4.338  14.382  17.842  0.00  0.00    +0.000 F 
ATOM     35  C   UNL     1       2.731  12.707  18.341  0.00  0.00    +0.000 A 
ATOM     36  C   UNL     1       1.478  12.373  18.924  0.00  0.00    +0.000 A 
ENDBRANCH  24  27
ENDBRANCH  20  21
ENDBRANCH   1  20
TORSDOF 9
ENDMDL
MODEL 2
REMARK VINA RESULT:      -8.2      5.676     10.898
REMARK  Name = 
REMARK  11 active torsions:
REMARK  status: ('A' for Active; 'I' for Inactive)
REMARK    1  A    between atoms: C_1  and  C_2
REMARK    2  A    between atoms: C_2  and  C_3
REMARK    3  A    between atoms: C_2  and  N_25
REMARK    4  A    between atoms: C_3  and  C_4
REMARK    5  A    between atoms: C_4  and  C_5
REMARK    6  A    between atoms: C_5  and  N_6
REMARK    7  A    between atoms: N_6  and  C_7
REMARK    8  A    between atoms: N_6  and  C_8
REMARK    9  A    between atoms: C_8  and  C_9
REMARK   10  A    between atoms: C_12  and  C_13
REMARK   11  A    between atoms: N_25  and  C_26
REMARK                            x       y       z     vdW  Elec       q    Type
REMARK                         _______ _______ _______ _____ _____    ______ ____
ROOT
ATOM      1  N   UNL     1      -0.219  12.757  18.787  0.00  0.00    +0.000 NA
ATOM      2  C   UNL     1      -0.055  14.226  18.942  0.00  0.00    +0.000 C 
ENDROOT
BRANCH   1   3
ATOM      3  C   UNL     1      -1.551  12.368  19.305  0.00  0.00    +0.000 C 
BRANCH   3   4
ATOM      4  C   UNL     1      -2.091  10.961  18.920  0.00  0.00    +0.000 C 
BRANCH   4   5
ATOM      5  C   UNL     1      -2.273  10.520  17.438  0.00  0.00    +0.000 C 
BRANCH   5   7
ATOM      6  C   UNL     1      -3.447  10.858  15.185  0.00  0.00    +0.000 C 
ATOM      7  C   UNL     1      -3.652  10.592  16.674  0.00  0.00    +0.000 C 
BRANCH   7   8
ATOM      8  N   UNL     1      -4.509  11.621  17.280  0.00  0.00    +0.000 N 
ATOM      9  H   UNL     1      -4.062  11.896  18.167  0.00  0.00    +0.000 HD
BRANCH   8  10
ATOM     10  C   UNL     1      -5.935  11.424  17.665  0.00  0.00    +0.000 A 
ATOM     11  C   UNL     1      -6.642  12.462  17.086  0.00  0.00    +0.000 A 
ATOM     12  C   UNL     1      -6.490  13.671  17.743  0.00  0.00    +0.000 A 
ATOM     13  N   UNL     1      -6.121  13.730  19.046  0.00  0.00    +0.000 NA
ATOM     14  C   UNL     1      -6.265  12.576  19.716  0.00  0.00    +0.000 A 
ATOM     15  C   UNL     1      -6.681  12.630  21.039  0.00  0.00    +0.000 A 
ATOM     16  C   UNL     1      -7.440  11.598  21.596  0.00  0.00    +0.000 A 
ATOM     17  C   UNL     1      -7.759  10.492  20.817  0.00  0.00    +0.000 A 
ATOM     18  C   UNL     1      -7.185  10.359  19.542  0.00  0.00    +0.000 A 
ATOM     19  C   UNL     1      -6.326  11.361  19.011  0.00  0.00    +0.000 A 
ENDBRANCH   8  10
ENDBRANCH   7   8
ENDBRANCH   5   7
ENDBRANCH   4   5
ENDBRANCH   3   4
ENDBRANCH   1   3
BRANCH   1  20
ATOM     20  C   UNL     1       0.930  12.111  19.525  0.00  0.00    +0.000 C 
BRANCH  20  21
ATOM     21  C   UNL     1       1.233  10.634  19.337  0.00  0.00    +0.000 A 
ATOM     22  C   UNL     1       1.645  10.096  18.134  0.00  0.00    +0.000 A 
ATOM     23  C   UNL     1       1.921   8.737  18.008  0.00  0.00    +0.000 A 
ATOM     24  C   UNL     1       1.991   7.853  19.109  0.00  0.00    +0.000 A 
ATOM     25  C   UNL     1       1.496   8.348  20.309  0.00  0.00    +0.000 A 
ATOM     26  C   UNL     1       1.116   9.719  20.412  0.00  0.00    +0.000 A 
BRANCH  24  27
ATOM     27  C   UNL     1       2.671   6.552  18.851  0.00  0.00    +0.000 A 
ATOM     28  C   UNL     1       3.858   6.679  18.128  0.00  0.00    +0.000 A 
ATOM     29  S   UNL     1       4.155   5.275  17.230  0.00  0.00    +0.000 S 
ATOM     30  C   UNL     1       3.535   4.380  18.552  0.00  0.00    +0.000 A 
ATOM     31  C   UNL     1       3.867   3.040  18.812  0.00  0.00    +0.000 A 
ATOM     32  C   UNL     1       3.465   2.499  20.018  0.00  0.00    +0.000 A 
ATOM     33  C   UNL     1       2.628   3.231  20.845  0.00  0.00    +0.000 A 
ATOM     34  F   UNL     1       2.282   2.694  22.022  0.00  0.00    +0.000 F 
ATOM     35  C   UNL     1       2.181   4.530  20.521  0.00  0.00    +0.000 A 
ATOM     36  C   UNL     1       2.718   5.187  19.381  0.00  0.00    +0.000 A 
ENDBRANCH  24  27
ENDBRANCH  20  21
ENDBRANCH   1  20
TORSDOF 9
ENDMDL
MODEL 3
REMARK VINA RESULT:      -7.9      1.345      2.906
REMARK  Name = 
REMARK  11 active torsions:
REMARK  status: ('A' for Active; 'I' for Inactive)
REMARK    1  A    between atoms: C_1  and  C_2
REMARK    2  A    between atoms: C_2  and  C_3
REMARK    3  A    between atoms: C_2  and  N_25
REMARK    4  A    between atoms: C_3  and  C_4
REMARK    5  A    between atoms: C_4  and  C_5
REMARK    6  A    between atoms: C_5  and  N_6
REMARK    7  A    between atoms: N_6  and  C_7
REMARK    8  A    between atoms: N_6  and  C_8
REMARK    9  A    between atoms: C_8  and  C_9
REMARK   10  A    between atoms: C_12  and  C_13
REMARK   11  A    between atoms: N_25  and  C_26
REMARK                            x       y       z     vdW  Elec       q    Type
REMARK                         _______ _______ _______ _____ _____    ______ ____
ROOT
ATOM      1  N   UNL     1       3.089   4.702  18.592  0.00  0.00    +0.000 NA
ATOM      2  C   UNL     1       1.719   4.203  18.306  0.00  0.00    +0.000 C 
ENDROOT
BRANCH   1   3
ATOM      3  C   UNL     1       3.956   3.548  18.928  0.00  0.00    +0.000 C 
BRANCH   3   4
ATOM      4  C   UNL     1       5.361   3.851  19.522  0.00  0.00    +0.000 C 
BRANCH   4   5
ATOM      5  C   UNL     1       6.097   5.199  19.262  0.00  0.00    +0.000 C 
BRANCH   5   7
ATOM      6  C   UNL     1       7.874   6.766  18.286  0.00  0.00    +0.000 C 
ATOM      7  C   UNL     1       7.415   5.315  18.401  0.00  0.00    +0.000 C 
BRANCH   7   8
ATOM      8  N   UNL     1       7.202   4.723  17.073  0.00  0.00    +0.000 N 
ATOM      9  H   UNL     1       8.055   4.192  16.844  0.00  0.00    +0.000 HD
BRANCH   8  10
ATOM     10  C   UNL     1       6.937   5.496  15.827  0.00  0.00    +0.000 A 
ATOM     11  C   UNL     1       5.624   5.925  15.905  0.00  0.00    +0.000 A 
ATOM     12  C   UNL     1       4.699   4.928  15.646  0.00  0.00    +0.000 A 
ATOM     13  N   UNL     1       5.023   3.828  14.923  0.00  0.00    +0.000 NA
ATOM     14  C   UNL     1       6.152   3.949  14.205  0.00  0.00    +0.000 A 
ATOM     15  C   UNL     1       6.200   3.356  12.950  0.00  0.00    +0.000 A 
ATOM     16  C   UNL     1       6.973   3.908  11.926  0.00  0.00    +0.000 A 
ATOM     17  C   UNL     1       7.720   5.052  12.178  0.00  0.00    +0.000 A 
ATOM     18  C   UNL     1       7.809   5.541  13.491  0.00  0.00    +0.000 A 
ATOM     19  C   UNL     1       7.106   4.918  14.559  0.00  0.00    +0.000 A 
ENDBRANCH   8  10
ENDBRANCH   7   8
ENDBRANCH   5   7
ENDBRANCH   4   5
ENDBRANCH   3   4
ENDBRANCH   1   3
BRANCH   1  20
ATOM     20  C   UNL     1       2.961   5.707  19.712  0.00  0.00    +0.000 C 
BRANCH  20  21
ATOM     21  C   UNL     1       2.305   7.055  19.467  0.00  0.00    +0.000 A 
ATOM     22  C   UNL     1       1.661   7.773  20.456  0.00  0.00    +0.000 A 
ATOM     23  C   UNL     1       1.080   9.009  20.190  0.00  0.00    +0.000 A 
ATOM     24  C   UNL     1       1.261   9.707  18.974  0.00  0.00    +0.000 A 
ATOM     25  C   UNL     1       1.826   8.972  17.938  0.00  0.00    +0.000 A 
ATOM     26  C   UNL     1       2.331   7.661  18.187  0.00  0.00    +0.000 A 
BRANCH  24  27
ATOM     27  C   UNL     1       0.911  11.155  19.001  0.00  0.00    +0.000 A 
ATOM     28  C   UNL     1      -0.140  11.457  19.868  0.00  0.00    +0.000 A 
ATOM     29  S   UNL     1      -0.977  12.825  19.327  0.00  0.00    +0.000 S 
ATOM     30  C   UNL     1       0.532  13.476  18.848  0.00  0.00    +0.000 A 
ATOM     31  C   UNL     1       0.782  14.852  18.712  0.00  0.00    +0.000 A 
ATOM     32  C   UNL     1       2.090  15.254  18.523  0.00  0.00    +0.000 A 
ATOM     33  C   UNL     1       3.071  14.297  18.317  0.00  0.00    +0.000 A 
ATOM     34  F   UNL     1       4.335  14.716  18.169  0.00  0.00    +0.000 F 
ATOM     35  C   UNL     1       2.799  12.913  18.317  0.00  0.00    +0.000 A 
ATOM     36  C   UNL     1       1.504  12.458  18.689  0.00  0.00    +0.000 A 
ENDBRANCH  24  27
ENDBRANCH  20  21
ENDBRANCH   1  20
TORSDOF 9
ENDMDL
MODEL 4
REMARK VINA RESULT:      -7.5      5.861     12.137
REMARK  Name = 
REMARK  11 active torsions:
REMARK  status: ('A' for Active; 'I' for Inactive)
REMARK    1  A    between atoms: C_1  and  C_2
REMARK    2  A    between atoms: C_2  and  C_3
REMARK    3  A    between atoms: C_2  and  N_25
REMARK    4  A    between atoms: C_3  and  C_4
REMARK    5  A    between atoms: C_4  and  C_5
REMARK    6  A    between atoms: C_5  and  N_6
REMARK    7  A    between atoms: N_6  and  C_7
REMARK    8  A    between atoms: N_6  and  C_8
REMARK    9  A    between atoms: C_8  and  C_9
REMARK   10  A    between atoms: C_12  and  C_13
REMARK   11  A    between atoms: N_25  and  C_26
REMARK                            x       y       z     vdW  Elec       q    Type
REMARK                         _______ _______ _______ _____ _____    ______ ____
ROOT
ATOM      1  N   UNL     1      -1.023  11.443  19.252  0.00  0.00    +0.000 NA
ATOM      2  C   UNL     1      -1.483  12.282  18.115  0.00  0.00    +0.000 C 
ENDROOT
BRANCH   1   3
ATOM      3  C   UNL     1      -1.520  12.038  20.516  0.00  0.00    +0.000 C 
BRANCH   3   4
ATOM      4  C   UNL     1      -1.740  13.577  20.549  0.00  0.00    +0.000 C 
BRANCH   4   5
ATOM      5  C   UNL     1      -3.102  14.210  20.963  0.00  0.00    +0.000 C 
BRANCH   5   7
ATOM      6  C   UNL     1      -2.347  16.588  20.381  0.00  0.00    +0.000 C 
ATOM      7  C   UNL     1      -3.296  15.752  21.235  0.00  0.00    +0.000 C 
BRANCH   7   8
ATOM      8  N   UNL     1      -3.108  16.037  22.665  0.00  0.00    +0.000 N 
ATOM      9  H   UNL     1      -2.460  15.323  23.028  0.00  0.00    +0.000 HD
BRANCH   8  10
ATOM     10  C   UNL     1      -4.198  16.056  23.682  0.00  0.00    +0.000 A 
ATOM     11  C   UNL     1      -3.582  15.944  24.915  0.00  0.00    +0.000 A 
ATOM     12  C   UNL     1      -3.148  14.662  25.204  0.00  0.00    +0.000 A 
ATOM     13  N   UNL     1      -3.694  13.575  24.605  0.00  0.00    +0.000 NA
ATOM     14  C   UNL     1      -4.876  13.804  24.011  0.00  0.00    +0.000 A 
ATOM     15  C   UNL     1      -5.844  12.810  24.068  0.00  0.00    +0.000 A 
ATOM     16  C   UNL     1      -7.203  13.132  24.079  0.00  0.00    +0.000 A 
ATOM     17  C   UNL     1      -7.587  14.465  24.010  0.00  0.00    +0.000 A 
ATOM     18  C   UNL     1      -6.615  15.450  23.772  0.00  0.00    +0.000 A 
ATOM     19  C   UNL     1      -5.238  15.115  23.654  0.00  0.00    +0.000 A 
ENDBRANCH   8  10
ENDBRANCH   7   8
ENDBRANCH   5   7
ENDBRANCH   4   5
ENDBRANCH   3   4
ENDBRANCH   1   3
BRANCH   1  20
ATOM     20  C   UNL     1       0.483  11.379  19.165  0.00  0.00    +0.000 C 
BRANCH  20  21
ATOM     21  C   UNL     1       1.192  10.041  19.045  0.00  0.00    +0.000 A 
ATOM     22  C   UNL     1       1.164   9.080  20.036  0.00  0.00    +0.000 A 
ATOM     23  C   UNL     1       1.821   7.863  19.881  0.00  0.00    +0.000 A 
ATOM     24  C   UNL     1       2.391   7.438  18.659  0.00  0.00    +0.000 A 
ATOM     25  C   UNL     1       2.509   8.416  17.679  0.00  0.00    +0.000 A 
ATOM     26  C   UNL     1       1.923   9.701  17.880  0.00  0.00    +0.000 A 
BRANCH  24  27
ATOM     27  C   UNL     1       2.695   5.983  18.559  0.00  0.00    +0.000 A 
ATOM     28  C   UNL     1       3.956   5.713  18.025  0.00  0.00    +0.000 A 
ATOM     29  S   UNL     1       3.956   4.215  17.237  0.00  0.00    +0.000 S 
ATOM     30  C   UNL     1       2.928   3.638  18.480  0.00  0.00    +0.000 A 
ATOM     31  C   UNL     1       2.819   2.284  18.838  0.00  0.00    +0.000 A 
ATOM     32  C   UNL     1       2.116   1.976  19.987  0.00  0.00    +0.000 A 
ATOM     33  C   UNL     1       1.420   2.978  20.646  0.00  0.00    +0.000 A 
ATOM     34  F   UNL     1       0.775   2.655  21.775  0.00  0.00    +0.000 F 
ATOM     35  C   UNL     1       1.417   4.319  20.208  0.00  0.00    +0.000 A 
ATOM     36  C   UNL     1       2.273   4.706  19.141  0.00  0.00    +0.000 A 
ENDBRANCH  24  27
ENDBRANCH  20  21
ENDBRANCH   1  20
TORSDOF 9
ENDMDL
MODEL 5
REMARK VINA RESULT:      -7.5      5.577     11.785
REMARK  Name = 
REMARK  11 active torsions:
REMARK  status: ('A' for Active; 'I' for Inactive)
REMARK    1  A    between atoms: C_1  and  C_2
REMARK    2  A    between atoms: C_2  and  C_3
REMARK    3  A    between atoms: C_2  and  N_25
REMARK    4  A    between atoms: C_3  and  C_4
REMARK    5  A    between atoms: C_4  and  C_5
REMARK    6  A    between atoms: C_5  and  N_6
REMARK    7  A    between atoms: N_6  and  C_7
REMARK    8  A    between atoms: N_6  and  C_8
REMARK    9  A    between atoms: C_8  and  C_9
REMARK   10  A    between atoms: C_12  and  C_13
REMARK   11  A    between atoms: N_25  and  C_26
REMARK                            x       y       z     vdW  Elec       q    Type
REMARK                         _______ _______ _______ _____ _____    ______ ____
ROOT
ATOM      1  N   UNL     1      -1.175  11.446  19.532  0.00  0.00    +0.000 NA
ATOM      2  C   UNL     1      -1.784  10.513  18.549  0.00  0.00    +0.000 C 
ENDROOT
BRANCH   1   3
ATOM      3  C   UNL     1      -1.791  12.783  19.366  0.00  0.00    +0.000 C 
BRANCH   3   4
ATOM      4  C   UNL     1      -0.891  14.027  19.612  0.00  0.00    +0.000 C 
BRANCH   4   5
ATOM      5  C   UNL     1      -1.366  15.238  20.468  0.00  0.00    +0.000 C 
BRANCH   5   7
ATOM      6  C   UNL     1      -0.408  14.511  22.730  0.00  0.00    +0.000 C 
ATOM      7  C   UNL     1      -1.596  15.161  22.027  0.00  0.00    +0.000 C 
BRANCH   7   8
ATOM      8  N   UNL     1      -2.841  14.435  22.316  0.00  0.00    +0.000 N 
ATOM      9  H   UNL     1      -3.428  14.502  21.472  0.00  0.00    +0.000 HD
BRANCH   8  10
ATOM     10  C   UNL     1      -3.789  14.772  23.416  0.00  0.00    +0.000 A 
ATOM     11  C   UNL     1      -3.387  14.035  24.516  0.00  0.00    +0.000 A 
ATOM     12  C   UNL     1      -3.733  12.697  24.443  0.00  0.00    +0.000 A 
ATOM     13  N   UNL     1      -4.754  12.268  23.662  0.00  0.00    +0.000 NA
ATOM     14  C   UNL     1      -5.596  13.237  23.268  0.00  0.00    +0.000 A 
ATOM     15  C   UNL     1      -6.950  12.941  23.186  0.00  0.00    +0.000 A 
ATOM     16  C   UNL     1      -7.915  13.924  23.417  0.00  0.00    +0.000 A 
ATOM     17  C   UNL     1      -7.509  15.220  23.708  0.00  0.00    +0.000 A 
ATOM     18  C   UNL     1      -6.148  15.554  23.613  0.00  0.00    +0.000 A 
ATOM     19  C   UNL     1      -5.171  14.578  23.274  0.00  0.00    +0.000 A 
ENDBRANCH   8  10
ENDBRANCH   7   8
ENDBRANCH   5   7
ENDBRANCH   4   5
ENDBRANCH   3   4
ENDBRANCH   1   3
BRANCH   1  20
ATOM     20  C   UNL     1       0.314  11.431  19.283  0.00  0.00    +0.000 C 
BRANCH  20  21
ATOM     21  C   UNL     1       1.059  10.115  19.138  0.00  0.00    +0.000 A 
ATOM     22  C   UNL     1       1.130   9.173  20.146  0.00  0.00    +0.000 A 
ATOM     23  C   UNL     1       1.817   7.976  19.968  0.00  0.00    +0.000 A 
ATOM     24  C   UNL     1       2.317   7.545  18.718  0.00  0.00    +0.000 A 
ATOM     25  C   UNL     1       2.336   8.507  17.715  0.00  0.00    +0.000 A 
ATOM     26  C   UNL     1       1.721   9.776  17.933  0.00  0.00    +0.000 A 
BRANCH  24  27
ATOM     27  C   UNL     1       2.663   6.099  18.623  0.00  0.00    +0.000 A 
ATOM     28  C   UNL     1       3.945   5.866  18.123  0.00  0.00    +0.000 A 
ATOM     29  S   UNL     1       4.007   4.370  17.332  0.00  0.00    +0.000 S 
ATOM     30  C   UNL     1       2.961   3.762  18.544  0.00  0.00    +0.000 A 
ATOM     31  C   UNL     1       2.880   2.404  18.896  0.00  0.00    +0.000 A 
ATOM     32  C   UNL     1       2.154   2.074  20.025  0.00  0.00    +0.000 A 
ATOM     33  C   UNL     1       1.414   3.055  20.666  0.00  0.00    +0.000 A 
ATOM     34  F   UNL     1       0.746   2.711  21.776  0.00  0.00    +0.000 F 
ATOM     35  C   UNL     1       1.386   4.397  20.232  0.00  0.00    +0.000 A 
ATOM     36  C   UNL     1       2.260   4.810  19.190  0.00  0.00    +0.000 A 
ENDBRANCH  24  27
ENDBRANCH  20  21
ENDBRANCH   1  20
TORSDOF 9
ENDMDL
MODEL 6
REMARK VINA RESULT:      -7.4      5.508     11.235
REMARK  Name = 
REMARK  11 active torsions:
REMARK  status: ('A' for Active; 'I' for Inactive)
REMARK    1  A    between atoms: C_1  and  C_2
REMARK    2  A    between atoms: C_2  and  C_3
REMARK    3  A    between atoms: C_2  and  N_25
REMARK    4  A    between atoms: C_3  and  C_4
REMARK    5  A    between atoms: C_4  and  C_5
REMARK    6  A    between atoms: C_5  and  N_6
REMARK    7  A    between atoms: N_6  and  C_7
REMARK    8  A    between atoms: N_6  and  C_8
REMARK    9  A    between atoms: C_8  and  C_9
REMARK   10  A    between atoms: C_12  and  C_13
REMARK   11  A    between atoms: N_25  and  C_26
REMARK                            x       y       z     vdW  Elec       q    Type
REMARK                         _______ _______ _______ _____ _____    ______ ____
ROOT
ATOM      1  N   UNL     1      -0.428  12.080  19.311  0.00  0.00    +0.000 NA
ATOM      2  C   UNL     1       0.212  13.394  19.580  0.00  0.00    +0.000 C 
ENDROOT
BRANCH   1   3
ATOM      3  C   UNL     1      -1.871  12.296  19.053  0.00  0.00    +0.000 C 
BRANCH   3   4
ATOM      4  C   UNL     1      -2.635  11.195  18.264  0.00  0.00    +0.000 C 
BRANCH   4   5
ATOM      5  C   UNL     1      -3.916  11.507  17.436  0.00  0.00    +0.000 C 
BRANCH   5   7
ATOM      6  C   UNL     1      -6.287  12.408  17.071  0.00  0.00    +0.000 C 
ATOM      7  C   UNL     1      -5.318  11.817  18.091  0.00  0.00    +0.000 C 
BRANCH   7   8
ATOM      8  N   UNL     1      -5.148  12.718  19.240  0.00  0.00    +0.000 N 
ATOM      9  H   UNL     1      -4.184  13.079  19.195  0.00  0.00    +0.000 HD
BRANCH   8  10
ATOM     10  C   UNL     1      -5.295  12.316  20.668  0.00  0.00    +0.000 A 
ATOM     11  C   UNL     1      -6.604  11.899  20.823  0.00  0.00    +0.000 A 
ATOM     12  C   UNL     1      -7.515  12.939  20.880  0.00  0.00    +0.000 A 
ATOM     13  N   UNL     1      -7.143  14.190  21.245  0.00  0.00    +0.000 NA
ATOM     14  C   UNL     1      -5.955  14.256  21.869  0.00  0.00    +0.000 A 
ATOM     15  C   UNL     1      -5.806  15.167  22.906  0.00  0.00    +0.000 A 
ATOM     16  C   UNL     1      -4.941  14.906  23.971  0.00  0.00    +0.000 A 
ATOM     17  C   UNL     1      -4.205  13.728  23.976  0.00  0.00    +0.000 A 
ATOM     18  C   UNL     1      -4.224  12.899  22.843  0.00  0.00    +0.000 A 
ATOM     19  C   UNL     1      -5.023  13.215  21.711  0.00  0.00    +0.000 A 
ENDBRANCH   8  10
ENDBRANCH   7   8
ENDBRANCH   5   7
ENDBRANCH   4   5
ENDBRANCH   3   4
ENDBRANCH   1   3
BRANCH   1  20
ATOM     20  C   UNL     1      -0.153  11.208  20.513  0.00  0.00    +0.000 C 
BRANCH  20  21
ATOM     21  C   UNL     1       0.607   9.901  20.359  0.00  0.00    +0.000 A 
ATOM     22  C   UNL     1       0.741   8.982  21.382  0.00  0.00    +0.000 A 
ATOM     23  C   UNL     1       1.440   7.792  21.195  0.00  0.00    +0.000 A 
ATOM     24  C   UNL     1       1.890   7.345  19.932  0.00  0.00    +0.000 A 
ATOM     25  C   UNL     1       1.845   8.286  18.911  0.00  0.00    +0.000 A 
ATOM     26  C   UNL     1       1.219   9.548  19.132  0.00  0.00    +0.000 A 
BRANCH  24  27
ATOM     27  C   UNL     1       2.256   5.903  19.850  0.00  0.00    +0.000 A 
ATOM     28  C   UNL     1       1.398   5.069  20.568  0.00  0.00    +0.000 A 
ATOM     29  S   UNL     1       2.218   3.681  21.085  0.00  0.00    +0.000 S 
ATOM     30  C   UNL     1       3.052   3.700  19.589  0.00  0.00    +0.000 A 
ATOM     31  C   UNL     1       3.625   2.560  19.000  0.00  0.00    +0.000 A 
ATOM     32  C   UNL     1       4.085   2.668  17.701  0.00  0.00    +0.000 A 
ATOM     33  C   UNL     1       4.113   3.913  17.093  0.00  0.00    +0.000 A 
ATOM     34  F   UNL     1       4.534   3.981  15.823  0.00  0.00    +0.000 F 
ATOM     35  C   UNL     1       3.663   5.086  17.735  0.00  0.00    +0.000 A 
ATOM     36  C   UNL     1       3.016   4.986  18.996  0.00  0.00    +0.000 A 
ENDBRANCH  24  27
ENDBRANCH  20  21
ENDBRANCH   1  20
TORSDOF 9
ENDMDL
MODEL 7
REMARK VINA RESULT:      -7.4      2.528      3.137
REMARK  Name = 
REMARK  11 active torsions:
REMARK  status: ('A' for Active; 'I' for Inactive)
REMARK    1  A    between atoms: C_1  and  C_2
REMARK    2  A    between atoms: C_2  and  C_3
REMARK    3  A    between atoms: C_2  and  N_25
REMARK    4  A    between atoms: C_3  and  C_4
REMARK    5  A    between atoms: C_4  and  C_5
REMARK    6  A    between atoms: C_5  and  N_6
REMARK    7  A    between atoms: N_6  and  C_7
REMARK    8  A    between atoms: N_6  and  C_8
REMARK    9  A    between atoms: C_8  and  C_9
REMARK   10  A    between atoms: C_12  and  C_13
REMARK   11  A    between atoms: N_25  and  C_26
REMARK                            x       y       z     vdW  Elec       q    Type
REMARK                         _______ _______ _______ _____ _____    ______ ____
ROOT
ATOM      1  N   UNL     1       3.005   5.151  20.290  0.00  0.00    +0.000 NA
ATOM      2  C   UNL     1       4.255   4.381  20.052  0.00  0.00    +0.000 C 
ENDROOT
BRANCH   1   3
ATOM      3  C   UNL     1       1.847   4.239  20.137  0.00  0.00    +0.000 C 
BRANCH   3   4
ATOM      4  C   UNL     1       1.408   3.868  18.692  0.00  0.00    +0.000 C 
BRANCH   4   5
ATOM      5  C   UNL     1       2.385   3.955  17.482  0.00  0.00    +0.000 C 
BRANCH   5   7
ATOM      6  C   UNL     1       3.379   1.671  18.084  0.00  0.00    +0.000 C 
ATOM      7  C   UNL     1       3.291   2.752  17.010  0.00  0.00    +0.000 C 
BRANCH   7   8
ATOM      8  N   UNL     1       4.628   3.243  16.645  0.00  0.00    +0.000 N 
ATOM      9  H   UNL     1       5.181   3.274  17.515  0.00  0.00    +0.000 HD
BRANCH   8  10
ATOM     10  C   UNL     1       4.909   4.564  16.016  0.00  0.00    +0.000 A 
ATOM     11  C   UNL     1       5.642   4.303  14.873  0.00  0.00    +0.000 A 
ATOM     12  C   UNL     1       6.966   3.987  15.123  0.00  0.00    +0.000 A 
ATOM     13  N   UNL     1       7.585   4.373  16.265  0.00  0.00    +0.000 NA
ATOM     14  C   UNL     1       6.953   5.349  16.937  0.00  0.00    +0.000 A 
ATOM     15  C   UNL     1       7.721   6.315  17.572  0.00  0.00    +0.000 A 
ATOM     16  C   UNL     1       7.250   7.622  17.723  0.00  0.00    +0.000 A 
ATOM     17  C   UNL     1       5.985   7.947  17.249  0.00  0.00    +0.000 A 
ATOM     18  C   UNL     1       5.145   6.928  16.772  0.00  0.00    +0.000 A 
ATOM     19  C   UNL     1       5.583   5.577  16.715  0.00  0.00    +0.000 A 
ENDBRANCH   8  10
ENDBRANCH   7   8
ENDBRANCH   5   7
ENDBRANCH   4   5
ENDBRANCH   3   4
ENDBRANCH   1   3
BRANCH   1  20
ATOM     20  C   UNL     1       3.006   6.297  19.306  0.00  0.00    +0.000 C 
BRANCH  20  21
ATOM     21  C   UNL     1       2.151   7.527  19.556  0.00  0.00    +0.000 A 
ATOM     22  C   UNL     1       1.922   8.495  18.597  0.00  0.00    +0.000 A 
ATOM     23  C   UNL     1       1.124   9.603  18.865  0.00  0.00    +0.000 A 
ATOM     24  C   UNL     1       0.344   9.734  20.036  0.00  0.00    +0.000 A 
ATOM     25  C   UNL     1       0.623   8.823  21.048  0.00  0.00    +0.000 A 
ATOM     26  C   UNL     1       1.522   7.743  20.807  0.00  0.00    +0.000 A 
BRANCH  24  27
ATOM     27  C   UNL     1      -0.732  10.764  19.986  0.00  0.00    +0.000 A 
ATOM     28  C   UNL     1      -1.496  10.713  18.819  0.00  0.00    +0.000 A 
ATOM     29  S   UNL     1      -2.111  12.246  18.448  0.00  0.00    +0.000 S 
ATOM     30  C   UNL     1      -2.330  12.490  20.129  0.00  0.00    +0.000 A 
ATOM     31  C   UNL     1      -3.267  13.385  20.673  0.00  0.00    +0.000 A 
ATOM     32  C   UNL     1      -3.489  13.336  22.036  0.00  0.00    +0.000 A 
ATOM     33  C   UNL     1      -2.681  12.534  22.827  0.00  0.00    +0.000 A 
ATOM     34  F   UNL     1      -2.942  12.483  24.140  0.00  0.00    +0.000 F 
ATOM     35  C   UNL     1      -1.647  11.734  22.296  0.00  0.00    +0.000 A 
ATOM     36  C   UNL     1      -1.509  11.619  20.886  0.00  0.00    +0.000 A 
ENDBRANCH  24  27
ENDBRANCH  20  21
ENDBRANCH   1  20
TORSDOF 9
ENDMDL
MODEL 8
REMARK VINA RESULT:      -7.4      5.811     11.786
REMARK  Name = 
REMARK  11 active torsions:
REMARK  status: ('A' for Active; 'I' for Inactive)
REMARK    1  A    between atoms: C_1  and  C_2
REMARK    2  A    between atoms: C_2  and  C_3
REMARK    3  A    between atoms: C_2  and  N_25
REMARK    4  A    between atoms: C_3  and  C_4
REMARK    5  A    between atoms: C_4  and  C_5
REMARK    6  A    between atoms: C_5  and  N_6
REMARK    7  A    between atoms: N_6  and  C_7
REMARK    8  A    between atoms: N_6  and  C_8
REMARK    9  A    between atoms: C_8  and  C_9
REMARK   10  A    between atoms: C_12  and  C_13
REMARK   11  A    between atoms: N_25  and  C_26
REMARK                            x       y       z     vdW  Elec       q    Type
REMARK                         _______ _______ _______ _____ _____    ______ ____
ROOT
ATOM      1  N   UNL     1      -0.357  12.367  20.728  0.00  0.00    +0.000 NA
ATOM      2  C   UNL     1      -0.477  13.149  21.986  0.00  0.00    +0.000 C 
ENDROOT
BRANCH   1   3
ATOM      3  C   UNL     1      -1.330  12.897  19.743  0.00  0.00    +0.000 C 
BRANCH   3   4
ATOM      4  C   UNL     1      -2.779  12.334  19.788  0.00  0.00    +0.000 C 
BRANCH   4   5
ATOM      5  C   UNL     1      -3.760  12.665  20.951  0.00  0.00    +0.000 C 
BRANCH   5   7
ATOM      6  C   UNL     1      -5.637  14.255  20.233  0.00  0.00    +0.000 C 
ATOM      7  C   UNL     1      -5.313  12.855  20.749  0.00  0.00    +0.000 C 
BRANCH   7   8
ATOM      8  N   UNL     1      -6.022  12.581  22.007  0.00  0.00    +0.000 N 
ATOM      9  H   UNL     1      -6.926  13.072  21.953  0.00  0.00    +0.000 HD
BRANCH   8  10
ATOM     10  C   UNL     1      -5.521  12.940  23.364  0.00  0.00    +0.000 A 
ATOM     11  C   UNL     1      -6.530  12.611  24.252  0.00  0.00    +0.000 A 
ATOM     12  C   UNL     1      -7.582  13.510  24.253  0.00  0.00    +0.000 A 
ATOM     13  N   UNL     1      -7.424  14.789  23.831  0.00  0.00    +0.000 NA
ATOM     14  C   UNL     1      -6.147  15.197  23.760  0.00  0.00    +0.000 A 
ATOM     15  C   UNL     1      -5.854  16.507  24.110  0.00  0.00    +0.000 A 
ATOM     16  C   UNL     1      -4.619  16.841  24.670  0.00  0.00    +0.000 A 
ATOM     17  C   UNL     1      -3.665  15.848  24.855  0.00  0.00    +0.000 A 
ATOM     18  C   UNL     1      -3.898  14.564  24.336  0.00  0.00    +0.000 A 
ATOM     19  C   UNL     1      -5.113  14.247  23.670  0.00  0.00    +0.000 A 
ENDBRANCH   8  10
ENDBRANCH   7   8
ENDBRANCH   5   7
ENDBRANCH   4   5
ENDBRANCH   3   4
ENDBRANCH   1   3
BRANCH   1  20
ATOM     20  C   UNL     1      -0.591  10.920  21.090  0.00  0.00    +0.000 C 
BRANCH  20  21
ATOM     21  C   UNL     1       0.379   9.844  20.632  0.00  0.00    +0.000 A 
ATOM     22  C   UNL     1       0.748   8.774  21.424  0.00  0.00    +0.000 A 
ATOM     23  C   UNL     1       1.634   7.806  20.962  0.00  0.00    +0.000 A 
ATOM     24  C   UNL     1       2.069   7.727  19.619  0.00  0.00    +0.000 A 
ATOM     25  C   UNL     1       1.784   8.835  18.830  0.00  0.00    +0.000 A 
ATOM     26  C   UNL     1       0.958   9.880  19.340  0.00  0.00    +0.000 A 
BRANCH  24  27
ATOM     27  C   UNL     1       2.682   6.432  19.213  0.00  0.00    +0.000 A 
ATOM     28  C   UNL     1       1.917   5.319  19.564  0.00  0.00    +0.000 A 
ATOM     29  S   UNL     1       2.910   3.970  19.805  0.00  0.00    +0.000 S 
ATOM     30  C   UNL     1       3.864   4.523  18.494  0.00  0.00    +0.000 A 
ATOM     31  C   UNL     1       4.675   3.684  17.710  0.00  0.00    +0.000 A 
ATOM     32  C   UNL     1       5.228   4.215  16.561  0.00  0.00    +0.000 A 
ATOM     33  C   UNL     1       5.099   5.572  16.309  0.00  0.00    +0.000 A 
ATOM     34  F   UNL     1       5.618   6.052  15.171  0.00  0.00    +0.000 F 
ATOM     35  C   UNL     1       4.397   6.444  17.169  0.00  0.00    +0.000 A 
ATOM     36  C   UNL     1       3.663   5.905  18.260  0.00  0.00    +0.000 A 
ENDBRANCH  24  27
ENDBRANCH  20  21
ENDBRANCH   1  20
TORSDOF 9
ENDMDL
MODEL 9
REMARK VINA RESULT:      -7.3      5.141      9.402
REMARK  Name = 
REMARK  11 active torsions:
REMARK  status: ('A' for Active; 'I' for Inactive)
REMARK    1  A    between atoms: C_1  and  C_2
REMARK    2  A    between atoms: C_2  and  C_3
REMARK    3  A    between atoms: C_2  and  N_25
REMARK    4  A    between atoms: C_3  and  C_4
REMARK    5  A    between atoms: C_4  and  C_5
REMARK    6  A    between atoms: C_5  and  N_6
REMARK    7  A    between atoms: N_6  and  C_7
REMARK    8  A    between atoms: N_6  and  C_8
REMARK    9  A    between atoms: C_8  and  C_9
REMARK   10  A    between atoms: C_12  and  C_13
REMARK   11  A    between atoms: N_25  and  C_26
REMARK                            x       y       z     vdW  Elec       q    Type
REMARK                         _______ _______ _______ _____ _____    ______ ____
ROOT
ATOM      1  N   UNL     1       1.614  12.521  20.517  0.00  0.00    +0.000 NA
ATOM      2  C   UNL     1       0.549  13.207  21.295  0.00  0.00    +0.000 C 
ENDROOT
BRANCH   1   3
ATOM      3  C   UNL     1       2.580  13.536  20.033  0.00  0.00    +0.000 C 
BRANCH   3   4
ATOM      4  C   UNL     1       3.438  14.278  21.097  0.00  0.00    +0.000 C 
BRANCH   4   5
ATOM      5  C   UNL     1       4.057  15.682  20.828  0.00  0.00    +0.000 C 
BRANCH   5   7
ATOM      6  C   UNL     1       4.399  16.124  18.328  0.00  0.00    +0.000 C 
ATOM      7  C   UNL     1       5.097  15.965  19.675  0.00  0.00    +0.000 C 
BRANCH   7   8
ATOM      8  N   UNL     1       6.098  14.890  19.626  0.00  0.00    +0.000 N 
ATOM      9  H   UNL     1       5.662  14.058  20.049  0.00  0.00    +0.000 HD
BRANCH   8  10
ATOM     10  C   UNL     1       7.437  14.941  20.279  0.00  0.00    +0.000 A 
ATOM     11  C   UNL     1       8.156  15.921  19.618  0.00  0.00    +0.000 A 
ATOM     12  C   UNL     1       8.625  15.523  18.378  0.00  0.00    +0.000 A 
ATOM     13  N   UNL     1       8.798  14.214  18.071  0.00  0.00    +0.000 NA
ATOM     14  C   UNL     1       8.827  13.393  19.133  0.00  0.00    +0.000 A 
ATOM     15  C   UNL     1       9.697  12.312  19.107  0.00  0.00    +0.000 A 
ATOM     16  C   UNL     1      10.262  11.817  20.284  0.00  0.00    +0.000 A 
ATOM     17  C   UNL     1       9.925  12.403  21.499  0.00  0.00    +0.000 A 
ATOM     18  C   UNL     1       8.911  13.373  21.538  0.00  0.00    +0.000 A 
ATOM     19  C   UNL     1       8.258  13.806  20.351  0.00  0.00    +0.000 A 
ENDBRANCH   8  10
ENDBRANCH   7   8
ENDBRANCH   5   7
ENDBRANCH   4   5
ENDBRANCH   3   4
ENDBRANCH   1   3
BRANCH   1  20
ATOM     20  C   UNL     1       0.924  11.766  19.406  0.00  0.00    +0.000 C 
BRANCH  20  21
ATOM     21  C   UNL     1       1.272  10.313  19.130  0.00  0.00    +0.000 A 
ATOM     22  C   UNL     1       1.649   9.851  17.884  0.00  0.00    +0.000 A 
ATOM     23  C   UNL     1       1.968   8.513  17.676  0.00  0.00    +0.000 A 
ATOM     24  C   UNL     1       2.119   7.578  18.725  0.00  0.00    +0.000 A 
ATOM     25  C   UNL     1       1.662   7.993  19.970  0.00  0.00    +0.000 A 
ATOM     26  C   UNL     1       1.237   9.341  20.160  0.00  0.00    +0.000 A 
BRANCH  24  27
ATOM     27  C   UNL     1       2.834   6.319  18.372  0.00  0.00    +0.000 A 
ATOM     28  C   UNL     1       4.209   6.377  18.604  0.00  0.00    +0.000 A 
ATOM     29  S   UNL     1       5.030   5.347  17.541  0.00  0.00    +0.000 S 
ATOM     30  C   UNL     1       3.734   4.241  17.718  0.00  0.00    +0.000 A 
ATOM     31  C   UNL     1       3.854   2.857  17.508  0.00  0.00    +0.000 A 
ATOM     32  C   UNL     1       2.793   2.055  17.884  0.00  0.00    +0.000 A 
ATOM     33  C   UNL     1       1.609   2.645  18.297  0.00  0.00    +0.000 A 
ATOM     34  F   UNL     1       0.610   1.841  18.686  0.00  0.00    +0.000 F 
ATOM     35  C   UNL     1       1.441   4.043  18.379  0.00  0.00    +0.000 A 
ATOM     36  C   UNL     1       2.563   4.892  18.177  0.00  0.00    +0.000 A 
ENDBRANCH  24  27
ENDBRANCH  20  21
ENDBRANCH   1  20
TORSDOF 9
ENDMDL
