MODEL 1
REMARK VINA RESULT:      -8.0      0.000      0.000
REMARK  Name = 
REMARK  4 active torsions:
REMARK  status: ('A' for Active; 'I' for Inactive)
REMARK    1  A    between atoms: C_2  and  C_17
REMARK    2  A    between atoms: N_3  and  C_4
REMARK    3  A    between atoms: C_8  and  C_9
REMARK    4  A    between atoms: C_12  and  O_13
REMARK                            x       y       z     vdW  Elec       q    Type
REMARK                         _______ _______ _______ _____ _____    ______ ____
ROOT
ATOM      1  C   UNL     1       6.492   6.610  16.848  0.00  0.00    +0.000 A 
ATOM      2  C   UNL     1       6.909   5.827  15.775  0.00  0.00    +0.000 A 
ATOM      3  C   UNL     1       6.252   4.639  15.477  0.00  0.00    +0.000 A 
ATOM      4  C   UNL     1       5.161   4.233  16.244  0.00  0.00    +0.000 A 
ATOM      5  C   UNL     1       4.716   4.984  17.348  0.00  0.00    +0.000 A 
ATOM      6  C   UNL     1       5.430   6.164  17.651  0.00  0.00    +0.000 A 
ENDROOT
BRANCH   5   7
ATOM      7  C   UNL     1       3.513   4.571  18.113  0.00  0.00    +0.000 A 
ATOM      8  C   UNL     1       3.308   4.988  19.445  0.00  0.00    +0.000 A 
ATOM      9  C   UNL     1       2.218   4.538  20.200  0.00  0.00    +0.000 A 
ATOM     10  C   UNL     1       1.298   3.677  19.620  0.00  0.00    +0.000 A 
ATOM     11  C   UNL     1       1.451   3.263  18.306  0.00  0.00    +0.000 A 
ATOM     12  C   UNL     1       2.552   3.702  17.563  0.00  0.00    +0.000 A 
BRANCH  10  13
ATOM     13  O   UNL     1       0.225   3.208  20.316  0.00  0.00    +0.000 OA
ATOM     14  H   UNL     1       0.331   3.453  21.250  0.00  0.00    +0.000 HD
ENDBRANCH  10  13
ENDBRANCH   5   7
BRANCH   1  17
ATOM     15  O   UNL     1       8.548   7.204  18.874  0.00  0.00    +0.000 OA
ATOM     16  C   UNL     1       8.031   8.056  18.164  0.00  0.00    +0.000 C 
ATOM     17  N   UNL     1       7.089   7.851  17.167  0.00  0.00    +0.000 N 
ATOM     18  H   UNL     1       6.931   8.607  16.516  0.00  0.00    +0.000 HD
BRANCH  16  19
ATOM     19  C   UNL     1       8.492   9.461  18.317  0.00  0.00    +0.000 A 
ATOM     20  C   UNL     1       9.367   9.761  19.370  0.00  0.00    +0.000 A 
ATOM     21  C   UNL     1       9.801  11.071  19.565  0.00  0.00    +0.000 A 
ATOM     22  C   UNL     1       9.357  12.084  18.714  0.00  0.00    +0.000 A 
ATOM     23  C   UNL     1       8.474  11.790  17.674  0.00  0.00    +0.000 A 
ATOM     24  C   UNL     1       8.038  10.481  17.472  0.00  0.00    +0.000 A 
ENDBRANCH  16  19
ENDBRANCH   1  17
TORSDOF 4
ENDMDL
MODEL 2
REMARK VINA RESULT:      -8.0      4.489      6.118
REMARK  Name = 
REMARK  4 active torsions:
REMARK  status: ('A' for Active; 'I' for Inactive)
REMARK    1  A    between atoms: C_2  and  C_17
REMARK    2  A    between atoms: N_3  and  C_4
REMARK    3  A    between atoms: C_8  and  C_9
REMARK    4  A    between atoms: C_12  and  O_13
REMARK                            x       y       z     vdW  Elec       q    Type
REMARK                         _______ _______ _______ _____ _____    ______ ____
ROOT
ATOM      1  C   UNL     1       4.117   4.655  17.497  0.00  0.00    +0.000 A 
ATOM      2  C   UNL     1       4.031   3.656  18.464  0.00  0.00    +0.000 A 
ATOM      3  C   UNL     1       3.394   3.904  19.673  0.00  0.00    +0.000 A 
ATOM      4  C   UNL     1       2.823   5.152  19.919  0.00  0.00    +0.000 A 
ATOM      5  C   UNL     1       2.901   6.196  18.978  0.00  0.00    +0.000 A 
ATOM      6  C   UNL     1       3.592   5.927  17.777  0.00  0.00    +0.000 A 
ENDROOT
BRANCH   5   7
ATOM      7  C   UNL     1       2.231   7.497  19.229  0.00  0.00    +0.000 A 
ATOM      8  C   UNL     1       1.680   7.812  20.488  0.00  0.00    +0.000 A 
ATOM      9  C   UNL     1       0.976   9.001  20.709  0.00  0.00    +0.000 A 
ATOM     10  C   UNL     1       0.833   9.911  19.672  0.00  0.00    +0.000 A 
ATOM     11  C   UNL     1       1.381   9.649  18.425  0.00  0.00    +0.000 A 
ATOM     12  C   UNL     1       2.068   8.450  18.206  0.00  0.00    +0.000 A 
BRANCH  10  13
ATOM     13  O   UNL     1       0.152  11.079  19.837  0.00  0.00    +0.000 OA
ATOM     14  H   UNL     1      -0.764  10.947  19.543  0.00  0.00    +0.000 HD
ENDBRANCH  10  13
ENDBRANCH   5   7
BRANCH   1  17
ATOM     15  O   UNL     1       6.783   5.478  16.545  0.00  0.00    +0.000 OA
ATOM     16  C   UNL     1       5.964   4.896  15.846  0.00  0.00    +0.000 C 
ATOM     17  N   UNL     1       4.710   4.446  16.231  0.00  0.00    +0.000 N 
ATOM     18  H   UNL     1       4.247   3.786  15.622  0.00  0.00    +0.000 HD
BRANCH  16  19
ATOM     19  C   UNL     1       6.353   4.564  14.451  0.00  0.00    +0.000 A 
ATOM     20  C   UNL     1       7.427   5.259  13.878  0.00  0.00    +0.000 A 
ATOM     21  C   UNL     1       7.806   4.997  12.562  0.00  0.00    +0.000 A 
ATOM     22  C   UNL     1       7.109   4.047  11.815  0.00  0.00    +0.000 A 
ATOM     23  C   UNL     1       6.029   3.364  12.378  0.00  0.00    +0.000 A 
ATOM     24  C   UNL     1       5.647   3.620  13.695  0.00  0.00    +0.000 A 
ENDBRANCH  16  19
ENDBRANCH   1  17
TORSDOF 4
ENDMDL
MODEL 3
REMARK VINA RESULT:      -8.0      4.498      6.139
REMARK  Name = 
REMARK  4 active torsions:
REMARK  status: ('A' for Active; 'I' for Inactive)
REMARK    1  A    between atoms: C_2  and  C_17
REMARK    2  A    between atoms: N_3  and  C_4
REMARK    3  A    between atoms: C_8  and  C_9
REMARK    4  A    between atoms: C_12  and  O_13
REMARK                            x       y       z     vdW  Elec       q    Type
REMARK                         _______ _______ _______ _____ _____    ______ ____
ROOT
ATOM      1  C   UNL     1       4.096   4.673  17.475  0.00  0.00    +0.000 A 
ATOM      2  C   UNL     1       4.019   3.644  18.410  0.00  0.00    +0.000 A 
ATOM      3  C   UNL     1       3.388   3.852  19.630  0.00  0.00    +0.000 A 
ATOM      4  C   UNL     1       2.814   5.089  19.919  0.00  0.00    +0.000 A 
ATOM      5  C   UNL     1       2.883   6.162  19.010  0.00  0.00    +0.000 A 
ATOM      6  C   UNL     1       3.567   5.933  17.797  0.00  0.00    +0.000 A 
ENDROOT
BRANCH   5   7
ATOM      7  C   UNL     1       2.210   7.452  19.305  0.00  0.00    +0.000 A 
ATOM      8  C   UNL     1       1.685   7.735  20.583  0.00  0.00    +0.000 A 
ATOM      9  C   UNL     1       0.978   8.914  20.847  0.00  0.00    +0.000 A 
ATOM     10  C   UNL     1       0.805   9.845  19.834  0.00  0.00    +0.000 A 
ATOM     11  C   UNL     1       1.326   9.616  18.570  0.00  0.00    +0.000 A 
ATOM     12  C   UNL     1       2.016   8.427  18.308  0.00  0.00    +0.000 A 
BRANCH  10  13
ATOM     13  O   UNL     1       0.120  11.004  20.040  0.00  0.00    +0.000 OA
ATOM     14  H   UNL     1      -0.830  10.820  19.957  0.00  0.00    +0.000 HD
ENDBRANCH  10  13
ENDBRANCH   5   7
BRANCH   1  17
ATOM     15  O   UNL     1       6.850   5.271  16.613  0.00  0.00    +0.000 OA
ATOM     16  C   UNL     1       5.983   4.844  15.862  0.00  0.00    +0.000 C 
ATOM     17  N   UNL     1       4.681   4.505  16.200  0.00  0.00    +0.000 N 
ATOM     18  H   UNL     1       4.159   3.954  15.534  0.00  0.00    +0.000 HD
BRANCH  16  19
ATOM     19  C   UNL     1       6.355   4.589  14.446  0.00  0.00    +0.000 A 
ATOM     20  C   UNL     1       5.623   3.632  13.729  0.00  0.00    +0.000 A 
ATOM     21  C   UNL     1       5.958   3.343  12.408  0.00  0.00    +0.000 A 
ATOM     22  C   UNL     1       7.028   4.003  11.802  0.00  0.00    +0.000 A 
ATOM     23  C   UNL     1       7.768   4.945  12.518  0.00  0.00    +0.000 A 
ATOM     24  C   UNL     1       7.437   5.241  13.840  0.00  0.00    +0.000 A 
ENDBRANCH  16  19
ENDBRANCH   1  17
TORSDOF 4
ENDMDL
MODEL 4
REMARK VINA RESULT:      -8.0      4.466      6.133
REMARK  Name = 
REMARK  4 active torsions:
REMARK  status: ('A' for Active; 'I' for Inactive)
REMARK    1  A    between atoms: C_2  and  C_17
REMARK    2  A    between atoms: N_3  and  C_4
REMARK    3  A    between atoms: C_8  and  C_9
REMARK    4  A    between atoms: C_12  and  O_13
REMARK                            x       y       z     vdW  Elec       q    Type
REMARK                         _______ _______ _______ _____ _____    ______ ____
ROOT
ATOM      1  C   UNL     1       4.270   4.751  17.526  0.00  0.00    +0.000 A 
ATOM      2  C   UNL     1       4.294   3.798  18.541  0.00  0.00    +0.000 A 
ATOM      3  C   UNL     1       3.674   4.054  19.758  0.00  0.00    +0.000 A 
ATOM      4  C   UNL     1       3.011   5.264  19.963  0.00  0.00    +0.000 A 
ATOM      5  C   UNL     1       2.976   6.262  18.972  0.00  0.00    +0.000 A 
ATOM      6  C   UNL     1       3.650   5.989  17.762  0.00  0.00    +0.000 A 
ENDROOT
BRANCH   5   7
ATOM      7  C   UNL     1       2.210   7.516  19.182  0.00  0.00    +0.000 A 
ATOM      8  C   UNL     1       2.049   8.463  18.151  0.00  0.00    +0.000 A 
ATOM      9  C   UNL     1       1.398   9.685  18.364  0.00  0.00    +0.000 A 
ATOM     10  C   UNL     1       0.874   9.966  19.617  0.00  0.00    +0.000 A 
ATOM     11  C   UNL     1       0.990   9.051  20.651  0.00  0.00    +0.000 A 
ATOM     12  C   UNL     1       1.658   7.840  20.436  0.00  0.00    +0.000 A 
BRANCH  10  13
ATOM     13  O   UNL     1       0.237  11.143  19.874  0.00  0.00    +0.000 OA
ATOM     14  H   UNL     1      -0.718  11.008  19.761  0.00  0.00    +0.000 HD
ENDBRANCH  10  13
ENDBRANCH   5   7
BRANCH   1  17
ATOM     15  O   UNL     1       6.888   5.626  16.492  0.00  0.00    +0.000 OA
ATOM     16  C   UNL     1       6.071   5.003  15.827  0.00  0.00    +0.000 C 
ATOM     17  N   UNL     1       4.840   4.527  16.252  0.00  0.00    +0.000 N 
ATOM     18  H   UNL     1       4.383   3.838  15.670  0.00  0.00    +0.000 HD
BRANCH  16  19
ATOM     19  C   UNL     1       6.438   4.647  14.432  0.00  0.00    +0.000 A 
ATOM     20  C   UNL     1       7.495   5.340  13.826  0.00  0.00    +0.000 A 
ATOM     21  C   UNL     1       7.853   5.056  12.510  0.00  0.00    +0.000 A 
ATOM     22  C   UNL     1       7.153   4.084  11.794  0.00  0.00    +0.000 A 
ATOM     23  C   UNL     1       6.090   3.402  12.390  0.00  0.00    +0.000 A 
ATOM     24  C   UNL     1       5.729   3.681  13.708  0.00  0.00    +0.000 A 
ENDBRANCH  16  19
ENDBRANCH   1  17
TORSDOF 4
ENDMDL
MODEL 5
REMARK VINA RESULT:      -8.0      4.469      6.161
REMARK  Name = 
REMARK  4 active torsions:
REMARK  status: ('A' for Active; 'I' for Inactive)
REMARK    1  A    between atoms: C_2  and  C_17
REMARK    2  A    between atoms: N_3  and  C_4
REMARK    3  A    between atoms: C_8  and  C_9
REMARK    4  A    between atoms: C_12  and  O_13
REMARK                            x       y       z     vdW  Elec       q    Type
REMARK                         _______ _______ _______ _____ _____    ______ ____
ROOT
ATOM      1  C   UNL     1       4.219   4.853  17.477  0.00  0.00    +0.000 A 
ATOM      2  C   UNL     1       4.227   3.863  18.457  0.00  0.00    +0.000 A 
ATOM      3  C   UNL     1       3.602   4.080  19.678  0.00  0.00    +0.000 A 
ATOM      4  C   UNL     1       2.949   5.287  19.925  0.00  0.00    +0.000 A 
ATOM      5  C   UNL     1       2.931   6.322  18.971  0.00  0.00    +0.000 A 
ATOM      6  C   UNL     1       3.610   6.087  17.756  0.00  0.00    +0.000 A 
ENDROOT
BRANCH   5   7
ATOM      7  C   UNL     1       2.176   7.575  19.224  0.00  0.00    +0.000 A 
ATOM      8  C   UNL     1       2.025   8.558  18.225  0.00  0.00    +0.000 A 
ATOM      9  C   UNL     1       1.385   9.777  18.479  0.00  0.00    +0.000 A 
ATOM     10  C   UNL     1       0.862  10.021  19.741  0.00  0.00    +0.000 A 
ATOM     11  C   UNL     1       0.969   9.070  20.743  0.00  0.00    +0.000 A 
ATOM     12  C   UNL     1       1.626   7.861  20.488  0.00  0.00    +0.000 A 
BRANCH  10  13
ATOM     13  O   UNL     1       0.236  11.194  20.038  0.00  0.00    +0.000 OA
ATOM     14  H   UNL     1      -0.663  10.994  20.347  0.00  0.00    +0.000 HD
ENDBRANCH  10  13
ENDBRANCH   5   7
BRANCH   1  17
ATOM     15  O   UNL     1       7.017   5.244  16.639  0.00  0.00    +0.000 OA
ATOM     16  C   UNL     1       6.122   4.909  15.875  0.00  0.00    +0.000 C 
ATOM     17  N   UNL     1       4.795   4.671  16.200  0.00  0.00    +0.000 N 
ATOM     18  H   UNL     1       4.231   4.182  15.518  0.00  0.00    +0.000 HD
BRANCH  16  19
ATOM     19  C   UNL     1       6.478   4.661  14.454  0.00  0.00    +0.000 A 
ATOM     20  C   UNL     1       5.751   3.693  13.746  0.00  0.00    +0.000 A 
ATOM     21  C   UNL     1       6.073   3.410  12.420  0.00  0.00    +0.000 A 
ATOM     22  C   UNL     1       7.123   4.088  11.800  0.00  0.00    +0.000 A 
ATOM     23  C   UNL     1       7.859   5.041  12.506  0.00  0.00    +0.000 A 
ATOM     24  C   UNL     1       7.541   5.330  13.834  0.00  0.00    +0.000 A 
ENDBRANCH  16  19
ENDBRANCH   1  17
TORSDOF 4
ENDMDL
MODEL 6
REMARK VINA RESULT:      -7.9      0.154      1.033
REMARK  Name = 
REMARK  4 active torsions:
REMARK  status: ('A' for Active; 'I' for Inactive)
REMARK    1  A    between atoms: C_2  and  C_17
REMARK    2  A    between atoms: N_3  and  C_4
REMARK    3  A    between atoms: C_8  and  C_9
REMARK    4  A    between atoms: C_12  and  O_13
REMARK                            x       y       z     vdW  Elec       q    Type
REMARK                         _______ _______ _______ _____ _____    ______ ____
ROOT
ATOM      1  C   UNL     1       6.485   6.507  16.759  0.00  0.00    +0.000 A 
ATOM      2  C   UNL     1       6.868   5.760  15.648  0.00  0.00    +0.000 A 
ATOM      3  C   UNL     1       6.221   4.568  15.348  0.00  0.00    +0.000 A 
ATOM      4  C   UNL     1       5.174   4.119  16.151  0.00  0.00    +0.000 A 
ATOM      5  C   UNL     1       4.766   4.832  17.294  0.00  0.00    +0.000 A 
ATOM      6  C   UNL     1       5.469   6.018  17.596  0.00  0.00    +0.000 A 
ENDROOT
BRANCH   5   7
ATOM      7  C   UNL     1       3.606   4.376  18.101  0.00  0.00    +0.000 A 
ATOM      8  C   UNL     1       2.547   3.648  17.522  0.00  0.00    +0.000 A 
ATOM      9  C   UNL     1       1.412   3.284  18.258  0.00  0.00    +0.000 A 
ATOM     10  C   UNL     1       1.333   3.625  19.600  0.00  0.00    +0.000 A 
ATOM     11  C   UNL     1       2.364   4.320  20.212  0.00  0.00    +0.000 A 
ATOM     12  C   UNL     1       3.487   4.696  19.467  0.00  0.00    +0.000 A 
BRANCH  10  13
ATOM     13  O   UNL     1       0.247   3.299  20.355  0.00  0.00    +0.000 OA
ATOM     14  H   UNL     1       0.557   2.909  21.189  0.00  0.00    +0.000 HD
ENDBRANCH  10  13
ENDBRANCH   5   7
BRANCH   1  17
ATOM     15  O   UNL     1       8.471   7.121  18.849  0.00  0.00    +0.000 OA
ATOM     16  C   UNL     1       7.981   7.966  18.112  0.00  0.00    +0.000 C 
ATOM     17  N   UNL     1       7.073   7.750  17.085  0.00  0.00    +0.000 N 
ATOM     18  H   UNL     1       6.939   8.499  16.420  0.00  0.00    +0.000 HD
BRANCH  16  19
ATOM     19  C   UNL     1       8.438   9.371  18.265  0.00  0.00    +0.000 A 
ATOM     20  C   UNL     1       9.329   9.670  19.305  0.00  0.00    +0.000 A 
ATOM     21  C   UNL     1       9.760  10.981  19.501  0.00  0.00    +0.000 A 
ATOM     22  C   UNL     1       9.298  11.996  18.662  0.00  0.00    +0.000 A 
ATOM     23  C   UNL     1       8.399  11.704  17.635  0.00  0.00    +0.000 A 
ATOM     24  C   UNL     1       7.965  10.394  17.433  0.00  0.00    +0.000 A 
ENDBRANCH  16  19
ENDBRANCH   1  17
TORSDOF 4
ENDMDL
MODEL 7
REMARK VINA RESULT:      -7.9      0.073      1.035
REMARK  Name = 
REMARK  4 active torsions:
REMARK  status: ('A' for Active; 'I' for Inactive)
REMARK    1  A    between atoms: C_2  and  C_17
REMARK    2  A    between atoms: N_3  and  C_4
REMARK    3  A    between atoms: C_8  and  C_9
REMARK    4  A    between atoms: C_12  and  O_13
REMARK                            x       y       z     vdW  Elec       q    Type
REMARK                         _______ _______ _______ _____ _____    ______ ____
ROOT
ATOM      1  C   UNL     1       6.483   6.615  16.849  0.00  0.00    +0.000 A 
ATOM      2  C   UNL     1       6.899   5.854  15.759  0.00  0.00    +0.000 A 
ATOM      3  C   UNL     1       6.239   4.675  15.435  0.00  0.00    +0.000 A 
ATOM      4  C   UNL     1       5.146   4.255  16.192  0.00  0.00    +0.000 A 
ATOM      5  C   UNL     1       4.704   4.983  17.312  0.00  0.00    +0.000 A 
ATOM      6  C   UNL     1       5.420   6.154  17.641  0.00  0.00    +0.000 A 
ENDROOT
BRANCH   5   7
ATOM      7  C   UNL     1       3.499   4.556  18.068  0.00  0.00    +0.000 A 
ATOM      8  C   UNL     1       3.236   5.036  19.367  0.00  0.00    +0.000 A 
ATOM      9  C   UNL     1       2.146   4.577  20.118  0.00  0.00    +0.000 A 
ATOM     10  C   UNL     1       1.284   3.642  19.564  0.00  0.00    +0.000 A 
ATOM     11  C   UNL     1       1.495   3.163  18.280  0.00  0.00    +0.000 A 
ATOM     12  C   UNL     1       2.596   3.612  17.543  0.00  0.00    +0.000 A 
BRANCH  10  13
ATOM     13  O   UNL     1       0.214   3.162  20.256  0.00  0.00    +0.000 OA
ATOM     14  H   UNL     1       0.108   3.689  21.065  0.00  0.00    +0.000 HD
ENDBRANCH  10  13
ENDBRANCH   5   7
BRANCH   1  17
ATOM     15  O   UNL     1       8.526   7.161  18.903  0.00  0.00    +0.000 OA
ATOM     16  C   UNL     1       8.019   8.028  18.204  0.00  0.00    +0.000 C 
ATOM     17  N   UNL     1       7.084   7.846  17.196  0.00  0.00    +0.000 N 
ATOM     18  H   UNL     1       6.935   8.615  16.558  0.00  0.00    +0.000 HD
BRANCH  16  19
ATOM     19  C   UNL     1       8.485   9.428  18.387  0.00  0.00    +0.000 A 
ATOM     20  C   UNL     1       8.049  10.398  17.475  0.00  0.00    +0.000 A 
ATOM     21  C   UNL     1       8.485  11.716  17.595  0.00  0.00    +0.000 A 
ATOM     22  C   UNL     1       9.363  12.066  18.622  0.00  0.00    +0.000 A 
ATOM     23  C   UNL     1       9.811  11.099  19.523  0.00  0.00    +0.000 A 
ATOM     24  C   UNL     1       9.376   9.778  19.409  0.00  0.00    +0.000 A 
ENDBRANCH  16  19
ENDBRANCH   1  17
TORSDOF 4
ENDMDL
MODEL 8
REMARK VINA RESULT:      -7.9      0.216      1.460
REMARK  Name = 
REMARK  4 active torsions:
REMARK  status: ('A' for Active; 'I' for Inactive)
REMARK    1  A    between atoms: C_2  and  C_17
REMARK    2  A    between atoms: N_3  and  C_4
REMARK    3  A    between atoms: C_8  and  C_9
REMARK    4  A    between atoms: C_12  and  O_13
REMARK                            x       y       z     vdW  Elec       q    Type
REMARK                         _______ _______ _______ _____ _____    ______ ____
ROOT
ATOM      1  C   UNL     1       6.569   6.491  16.847  0.00  0.00    +0.000 A 
ATOM      2  C   UNL     1       6.997   5.724  15.766  0.00  0.00    +0.000 A 
ATOM      3  C   UNL     1       6.376   4.516  15.474  0.00  0.00    +0.000 A 
ATOM      4  C   UNL     1       5.310   4.071  16.255  0.00  0.00    +0.000 A 
ATOM      5  C   UNL     1       4.857   4.804  17.368  0.00  0.00    +0.000 A 
ATOM      6  C   UNL     1       5.535   6.007  17.664  0.00  0.00    +0.000 A 
ENDROOT
BRANCH   5   7
ATOM      7  C   UNL     1       3.679   4.349  18.149  0.00  0.00    +0.000 A 
ATOM      8  C   UNL     1       2.575   3.733  17.525  0.00  0.00    +0.000 A 
ATOM      9  C   UNL     1       1.427   3.376  18.242  0.00  0.00    +0.000 A 
ATOM     10  C   UNL     1       1.378   3.608  19.609  0.00  0.00    +0.000 A 
ATOM     11  C   UNL     1       2.452   4.190  20.263  0.00  0.00    +0.000 A 
ATOM     12  C   UNL     1       3.589   4.562  19.537  0.00  0.00    +0.000 A 
BRANCH  10  13
ATOM     13  O   UNL     1       0.281   3.283  20.348  0.00  0.00    +0.000 OA
ATOM     14  H   UNL     1       0.363   2.357  20.631  0.00  0.00    +0.000 HD
ENDBRANCH  10  13
ENDBRANCH   5   7
BRANCH   1  17
ATOM     15  O   UNL     1       8.543   7.167  18.930  0.00  0.00    +0.000 OA
ATOM     16  C   UNL     1       8.033   7.994  18.186  0.00  0.00    +0.000 C 
ATOM     17  N   UNL     1       7.129   7.749  17.162  0.00  0.00    +0.000 N 
ATOM     18  H   UNL     1       6.977   8.489  16.492  0.00  0.00    +0.000 HD
BRANCH  16  19
ATOM     19  C   UNL     1       8.459   9.410  18.327  0.00  0.00    +0.000 A 
ATOM     20  C   UNL     1       7.900  10.361  17.462  0.00  0.00    +0.000 A 
ATOM     21  C   UNL     1       8.294  11.696  17.544  0.00  0.00    +0.000 A 
ATOM     22  C   UNL     1       9.250  12.082  18.484  0.00  0.00    +0.000 A 
ATOM     23  C   UNL     1       9.819  11.135  19.336  0.00  0.00    +0.000 A 
ATOM     24  C   UNL     1       9.428   9.798  19.261  0.00  0.00    +0.000 A 
ENDBRANCH  16  19
ENDBRANCH   1  17
TORSDOF 4
ENDMDL
MODEL 9
REMARK VINA RESULT:      -7.8      3.964      6.839
REMARK  Name = 
REMARK  4 active torsions:
REMARK  status: ('A' for Active; 'I' for Inactive)
REMARK    1  A    between atoms: C_2  and  C_17
REMARK    2  A    between atoms: N_3  and  C_4
REMARK    3  A    between atoms: C_8  and  C_9
REMARK    4  A    between atoms: C_12  and  O_13
REMARK                            x       y       z     vdW  Elec       q    Type
REMARK                         _______ _______ _______ _____ _____    ______ ____
ROOT
ATOM      1  C   UNL     1       2.366   5.576  20.405  0.00  0.00    +0.000 A 
ATOM      2  C   UNL     1       2.185   4.320  20.980  0.00  0.00    +0.000 A 
ATOM      3  C   UNL     1       2.890   3.223  20.503  0.00  0.00    +0.000 A 
ATOM      4  C   UNL     1       3.796   3.376  19.454  0.00  0.00    +0.000 A 
ATOM      5  C   UNL     1       3.997   4.622  18.831  0.00  0.00    +0.000 A 
ATOM      6  C   UNL     1       3.235   5.709  19.310  0.00  0.00    +0.000 A 
ENDROOT
BRANCH   5   7
ATOM      7  C   UNL     1       5.012   4.781  17.759  0.00  0.00    +0.000 A 
ATOM      8  C   UNL     1       6.064   5.712  17.874  0.00  0.00    +0.000 A 
ATOM      9  C   UNL     1       6.977   5.927  16.834  0.00  0.00    +0.000 A 
ATOM     10  C   UNL     1       6.864   5.188  15.666  0.00  0.00    +0.000 A 
ATOM     11  C   UNL     1       5.857   4.246  15.523  0.00  0.00    +0.000 A 
ATOM     12  C   UNL     1       4.937   4.050  16.559  0.00  0.00    +0.000 A 
BRANCH  10  13
ATOM     13  O   UNL     1       7.724   5.364  14.625  0.00  0.00    +0.000 OA
ATOM     14  H   UNL     1       8.596   5.601  14.982  0.00  0.00    +0.000 HD
ENDBRANCH  10  13
ENDBRANCH   5   7
BRANCH   1  17
ATOM     15  O   UNL     1       2.033   8.185  19.074  0.00  0.00    +0.000 OA
ATOM     16  C   UNL     1       1.628   7.944  20.203  0.00  0.00    +0.000 C 
ATOM     17  N   UNL     1       1.713   6.736  20.880  0.00  0.00    +0.000 N 
ATOM     18  H   UNL     1       1.135   6.623  21.701  0.00  0.00    +0.000 HD
BRANCH  16  19
ATOM     19  C   UNL     1       0.904   9.022  20.926  0.00  0.00    +0.000 A 
ATOM     20  C   UNL     1       0.592   8.823  22.278  0.00  0.00    +0.000 A 
ATOM     21  C   UNL     1      -0.110   9.797  22.984  0.00  0.00    +0.000 A 
ATOM     22  C   UNL     1      -0.507  10.970  22.340  0.00  0.00    +0.000 A 
ATOM     23  C   UNL     1      -0.211  11.165  20.990  0.00  0.00    +0.000 A 
ATOM     24  C   UNL     1       0.493  10.194  20.278  0.00  0.00    +0.000 A 
ENDBRANCH  16  19
ENDBRANCH   1  17
TORSDOF 4
ENDMDL
