MODEL 1
REMARK VINA RESULT:      -7.8      0.000      0.000
REMARK  Name = 
REMARK  14 active torsions:
REMARK  status: ('A' for Active; 'I' for Inactive)
REMARK    1  A    between atoms: C_1  and  C_2
REMARK    2  A    between atoms: C_2  and  C_3
REMARK    3  A    between atoms: C_3  and  C_4
REMARK    4  A    between atoms: C_4  and  N_5
REMARK    5  A    between atoms: C_4  and  C_16
REMARK    6  A    between atoms: C_6  and  O_8
REMARK    7  A    between atoms: O_8  and  C_9
REMARK    8  A    between atoms: C_9  and  C_10
REMARK    9  A    between atoms: N_18  and  CA_19
REMARK   10  A    between atoms: CA_19  and  CB_20
REMARK   11  A    between atoms: CA_19  and  C_28
REMARK   12  A    between atoms: CB_20  and  CG_21
REMARK   13  A    between atoms: CZ_24  and  OH_25
REMARK   14  A    between atoms: C_28  and  OXT_30
REMARK                            x       y       z     vdW  Elec       q    Type
REMARK                         _______ _______ _______ _____ _____    ______ ____
ROOT
ATOM      1  C   UNK A   1       4.572   4.078  19.225  0.00  0.00    +0.000 C 
ATOM      2  O   UNK A   1       5.233   3.076  19.493  0.00  0.00    +0.000 OA
ATOM      3  N   TYR A   2       5.138   5.173  18.620  0.00  0.00    +0.000 N 
ATOM      4  H   TYR A   2       4.568   5.994  18.441  0.00  0.00    +0.000 HD
ENDROOT
BRANCH   1   5
ATOM      5  C   UNK A   1       3.117   4.279  19.716  0.00  0.00    +0.000 C 
BRANCH   5   6
ATOM      6  N   UNK A   1       2.938   5.654  20.184  0.00  0.00    +0.000 N 
ATOM      7  C   UNK A   0       2.443   6.635  19.382  0.00  0.00    +0.000 C 
ATOM      8  O   UNK A   0       2.115   6.483  18.216  0.00  0.00    +0.000 OA
ATOM      9  H   UNK A   1       3.187   5.929  21.125  0.00  0.00    +0.000 HD
BRANCH   7  10
ATOM     10  O   UNK A   0       2.386   7.791  20.078  0.00  0.00    +0.000 OA
BRANCH  10  11
ATOM     11  C   UNK A   0       1.506   8.794  19.561  0.00  0.00    +0.000 C 
BRANCH  11  12
ATOM     12  C   UNK A   0       0.758   9.400  20.718  0.00  0.00    +0.000 A 
ATOM     13  C   UNK A   0       0.900   8.881  22.012  0.00  0.00    +0.000 A 
ATOM     14  C   UNK A   0       0.191   9.443  23.075  0.00  0.00    +0.000 A 
ATOM     15  C   UNK A   0      -0.669  10.517  22.849  0.00  0.00    +0.000 A 
ATOM     16  C   UNK A   0      -0.824  11.029  21.562  0.00  0.00    +0.000 A 
ATOM     17  C   UNK A   0      -0.117  10.471  20.498  0.00  0.00    +0.000 A 
ENDBRANCH  11  12
ENDBRANCH  10  11
ENDBRANCH   7  10
ENDBRANCH   5   6
BRANCH   5  18
ATOM     18  C   UNK A   1       2.773   3.311  20.857  0.00  0.00    +0.000 C 
BRANCH  18  20
ATOM     19  C   UNK A   1       0.732   2.859  19.452  0.00  0.00    +0.000 C 
ATOM     20  C   UNK A   1       1.309   2.864  20.861  0.00  0.00    +0.000 C 
ENDBRANCH  18  20
ENDBRANCH   5  18
ENDBRANCH   1   5
BRANCH   3  21
ATOM     21  CA  TYR A   2       6.520   5.201  18.139  0.00  0.00    +0.000 C 
BRANCH  21  22
ATOM     22  C   TYR A   2       7.400   5.765  19.266  0.00  0.00    +0.000 C 
ATOM     23  O   TYR A   2       7.446   5.298  20.397  0.00  0.00    +0.000 OA
BRANCH  22  24
ATOM     24  OXT TYR A   2       8.152   6.833  18.908  0.00  0.00    +0.000 OA
ATOM     25  HXT TYR A   2       7.758   7.702  19.108  0.00  0.00    +0.000 HD
ENDBRANCH  22  24
ENDBRANCH  21  22
BRANCH  21  26
ATOM     26  CB  TYR A   2       6.672   5.990  16.822  0.00  0.00    +0.000 C 
BRANCH  26  27
ATOM     27  CG  TYR A   2       6.542   5.119  15.594  0.00  0.00    +0.000 A 
ATOM     28  CD1 TYR A   2       7.461   5.222  14.537  0.00  0.00    +0.000 A 
ATOM     29  CE1 TYR A   2       7.231   4.561  13.329  0.00  0.00    +0.000 A 
ATOM     30  CZ  TYR A   2       6.096   3.778  13.188  0.00  0.00    +0.000 A 
ATOM     31  CE2 TYR A   2       5.225   3.597  14.253  0.00  0.00    +0.000 A 
ATOM     32  CD2 TYR A   2       5.440   4.269  15.455  0.00  0.00    +0.000 A 
BRANCH  30  33
ATOM     33  OH  TYR A   2       5.785   3.177  12.006  0.00  0.00    +0.000 OA
ATOM     34  HH  TYR A   2       5.845   2.216  12.131  0.00  0.00    +0.000 HD
ENDBRANCH  30  33
ENDBRANCH  26  27
ENDBRANCH  21  26
ENDBRANCH   3  21
TORSDOF 13
ENDMDL
MODEL 2
REMARK VINA RESULT:      -7.6      3.411      7.258
REMARK  Name = 
REMARK  14 active torsions:
REMARK  status: ('A' for Active; 'I' for Inactive)
REMARK    1  A    between atoms: C_1  and  C_2
REMARK    2  A    between atoms: C_2  and  C_3
REMARK    3  A    between atoms: C_3  and  C_4
REMARK    4  A    between atoms: C_4  and  N_5
REMARK    5  A    between atoms: C_4  and  C_16
REMARK    6  A    between atoms: C_6  and  O_8
REMARK    7  A    between atoms: O_8  and  C_9
REMARK    8  A    between atoms: C_9  and  C_10
REMARK    9  A    between atoms: N_18  and  CA_19
REMARK   10  A    between atoms: CA_19  and  CB_20
REMARK   11  A    between atoms: CA_19  and  C_28
REMARK   12  A    between atoms: CB_20  and  CG_21
REMARK   13  A    between atoms: CZ_24  and  OH_25
REMARK   14  A    between atoms: C_28  and  OXT_30
REMARK                            x       y       z     vdW  Elec       q    Type
REMARK                         _______ _______ _______ _____ _____    ______ ____
ROOT
ATOM      1  C   UNK A   1       4.436   6.550  17.586  0.00  0.00    +0.000 C 
ATOM      2  O   UNK A   1       3.975   7.345  16.769  0.00  0.00    +0.000 OA
ATOM      3  N   TYR A   2       3.677   6.057  18.619  0.00  0.00    +0.000 N 
ATOM      4  H   TYR A   2       4.101   5.425  19.291  0.00  0.00    +0.000 HD
ENDROOT
BRANCH   1   5
ATOM      5  C   UNK A   1       5.941   6.189  17.648  0.00  0.00    +0.000 C 
BRANCH   5   6
ATOM      6  N   UNK A   1       6.745   7.358  17.285  0.00  0.00    +0.000 N 
ATOM      7  C   UNK A   0       7.890   7.683  17.944  0.00  0.00    +0.000 C 
ATOM      8  O   UNK A   0       8.353   7.062  18.886  0.00  0.00    +0.000 OA
ATOM      9  H   UNK A   1       6.470   7.976  16.533  0.00  0.00    +0.000 HD
BRANCH   7  10
ATOM     10  O   UNK A   0       8.416   8.798  17.393  0.00  0.00    +0.000 OA
BRANCH  10  11
ATOM     11  C   UNK A   0       8.015  10.040  17.982  0.00  0.00    +0.000 C 
BRANCH  11  12
ATOM     12  C   UNK A   0       9.240  10.704  18.552  0.00  0.00    +0.000 A 
ATOM     13  C   UNK A   0      10.251  11.186  17.709  0.00  0.00    +0.000 A 
ATOM     14  C   UNK A   0      11.388  11.787  18.249  0.00  0.00    +0.000 A 
ATOM     15  C   UNK A   0      11.527  11.900  19.632  0.00  0.00    +0.000 A 
ATOM     16  C   UNK A   0      10.531  11.409  20.476  0.00  0.00    +0.000 A 
ATOM     17  C   UNK A   0       9.393  10.809  19.939  0.00  0.00    +0.000 A 
ENDBRANCH  11  12
ENDBRANCH  10  11
ENDBRANCH   7  10
ENDBRANCH   5   6
BRANCH   5  18
ATOM     18  C   UNK A   1       6.278   5.034  16.695  0.00  0.00    +0.000 C 
BRANCH  18  20
ATOM     19  C   UNK A   1       6.390   4.184  14.327  0.00  0.00    +0.000 C 
ATOM     20  C   UNK A   1       6.007   5.354  15.223  0.00  0.00    +0.000 C 
ENDBRANCH  18  20
ENDBRANCH   5  18
ENDBRANCH   1   5
BRANCH   3  21
ATOM     21  CA  TYR A   2       2.248   6.335  18.769  0.00  0.00    +0.000 C 
BRANCH  21  22
ATOM     22  C   TYR A   2       2.102   7.676  19.506  0.00  0.00    +0.000 C 
ATOM     23  O   TYR A   2       1.914   8.748  18.945  0.00  0.00    +0.000 OA
BRANCH  22  24
ATOM     24  OXT TYR A   2       2.183   7.585  20.855  0.00  0.00    +0.000 OA
ATOM     25  HXT TYR A   2       3.088   7.506  21.211  0.00  0.00    +0.000 HD
ENDBRANCH  22  24
ENDBRANCH  21  22
BRANCH  21  26
ATOM     26  CB  TYR A   2       1.495   5.189  19.476  0.00  0.00    +0.000 C 
BRANCH  26  27
ATOM     27  CG  TYR A   2       2.152   3.842  19.281  0.00  0.00    +0.000 A 
ATOM     28  CD1 TYR A   2       3.015   3.314  20.255  0.00  0.00    +0.000 A 
ATOM     29  CE1 TYR A   2       3.769   2.169  19.991  0.00  0.00    +0.000 A 
ATOM     30  CZ  TYR A   2       3.639   1.539  18.763  0.00  0.00    +0.000 A 
ATOM     31  CE2 TYR A   2       2.727   1.999  17.825  0.00  0.00    +0.000 A 
ATOM     32  CD2 TYR A   2       1.985   3.152  18.076  0.00  0.00    +0.000 A 
BRANCH  30  33
ATOM     33  OH  TYR A   2       4.409   0.466  18.426  0.00  0.00    +0.000 OA
ATOM     34  HH  TYR A   2       3.966  -0.336  18.749  0.00  0.00    +0.000 HD
ENDBRANCH  30  33
ENDBRANCH  26  27
ENDBRANCH  21  26
ENDBRANCH   3  21
TORSDOF 13
ENDMDL
MODEL 3
REMARK VINA RESULT:      -7.6      3.597      7.255
REMARK  Name = 
REMARK  14 active torsions:
REMARK  status: ('A' for Active; 'I' for Inactive)
REMARK    1  A    between atoms: C_1  and  C_2
REMARK    2  A    between atoms: C_2  and  C_3
REMARK    3  A    between atoms: C_3  and  C_4
REMARK    4  A    between atoms: C_4  and  N_5
REMARK    5  A    between atoms: C_4  and  C_16
REMARK    6  A    between atoms: C_6  and  O_8
REMARK    7  A    between atoms: O_8  and  C_9
REMARK    8  A    between atoms: C_9  and  C_10
REMARK    9  A    between atoms: N_18  and  CA_19
REMARK   10  A    between atoms: CA_19  and  CB_20
REMARK   11  A    between atoms: CA_19  and  C_28
REMARK   12  A    between atoms: CB_20  and  CG_21
REMARK   13  A    between atoms: CZ_24  and  OH_25
REMARK   14  A    between atoms: C_28  and  OXT_30
REMARK                            x       y       z     vdW  Elec       q    Type
REMARK                         _______ _______ _______ _____ _____    ______ ____
ROOT
ATOM      1  C   UNK A   1       4.792   6.578  17.178  0.00  0.00    +0.000 C 
ATOM      2  O   UNK A   1       4.420   7.033  16.098  0.00  0.00    +0.000 OA
ATOM      3  N   TYR A   2       3.926   6.429  18.233  0.00  0.00    +0.000 N 
ATOM      4  H   TYR A   2       4.275   6.078  19.119  0.00  0.00    +0.000 HD
ENDROOT
BRANCH   1   5
ATOM      5  C   UNK A   1       6.283   6.323  17.512  0.00  0.00    +0.000 C 
BRANCH   5   6
ATOM      6  N   UNK A   1       7.071   7.515  17.196  0.00  0.00    +0.000 N 
ATOM      7  C   UNK A   0       8.123   7.913  17.961  0.00  0.00    +0.000 C 
ATOM      8  O   UNK A   0       8.506   7.344  18.970  0.00  0.00    +0.000 OA
ATOM      9  H   UNK A   1       6.854   8.095  16.397  0.00  0.00    +0.000 HD
BRANCH   7  10
ATOM     10  O   UNK A   0       8.659   9.033  17.430  0.00  0.00    +0.000 OA
BRANCH  10  11
ATOM     11  C   UNK A   0       8.272  10.268  18.043  0.00  0.00    +0.000 C 
BRANCH  11  12
ATOM     12  C   UNK A   0       9.506  10.909  18.619  0.00  0.00    +0.000 A 
ATOM     13  C   UNK A   0       9.641  11.083  20.004  0.00  0.00    +0.000 A 
ATOM     14  C   UNK A   0      10.783  11.691  20.525  0.00  0.00    +0.000 A 
ATOM     15  C   UNK A   0      11.789  12.137  19.669  0.00  0.00    +0.000 A 
ATOM     16  C   UNK A   0      11.654  11.979  18.290  0.00  0.00    +0.000 A 
ATOM     17  C   UNK A   0      10.514  11.371  17.766  0.00  0.00    +0.000 A 
ENDBRANCH  11  12
ENDBRANCH  10  11
ENDBRANCH   7  10
ENDBRANCH   5   6
BRANCH   5  18
ATOM     18  C   UNK A   1       6.837   5.130  16.721  0.00  0.00    +0.000 C 
BRANCH  18  20
ATOM     19  C   UNK A   1       6.007   4.137  14.560  0.00  0.00    +0.000 C 
ATOM     20  C   UNK A   1       6.742   5.305  15.203  0.00  0.00    +0.000 C 
ENDBRANCH  18  20
ENDBRANCH   5  18
ENDBRANCH   1   5
BRANCH   3  21
ATOM     21  CA  TYR A   2       2.487   6.679  18.133  0.00  0.00    +0.000 C 
BRANCH  21  22
ATOM     22  C   TYR A   2       2.094   7.632  19.274  0.00  0.00    +0.000 C 
ATOM     23  O   TYR A   2       1.612   8.744  19.101  0.00  0.00    +0.000 OA
BRANCH  22  24
ATOM     24  OXT TYR A   2       2.308   7.136  20.516  0.00  0.00    +0.000 OA
ATOM     25  HXT TYR A   2       1.561   6.640  20.898  0.00  0.00    +0.000 HD
ENDBRANCH  22  24
ENDBRANCH  21  22
BRANCH  21  26
ATOM     26  CB  TYR A   2       1.659   5.378  18.141  0.00  0.00    +0.000 C 
BRANCH  26  27
ATOM     27  CG  TYR A   2       2.509   4.138  18.302  0.00  0.00    +0.000 A 
ATOM     28  CD1 TYR A   2       2.965   3.428  17.180  0.00  0.00    +0.000 A 
ATOM     29  CE1 TYR A   2       3.581   2.185  17.329  0.00  0.00    +0.000 A 
ATOM     30  CZ  TYR A   2       3.764   1.665  18.601  0.00  0.00    +0.000 A 
ATOM     31  CE2 TYR A   2       3.397   2.395  19.722  0.00  0.00    +0.000 A 
ATOM     32  CD2 TYR A   2       2.765   3.629  19.578  0.00  0.00    +0.000 A 
BRANCH  30  33
ATOM     33  OH  TYR A   2       4.288   0.423  18.797  0.00  0.00    +0.000 OA
ATOM     34  HH  TYR A   2       3.553  -0.205  18.886  0.00  0.00    +0.000 HD
ENDBRANCH  30  33
ENDBRANCH  26  27
ENDBRANCH  21  26
ENDBRANCH   3  21
TORSDOF 13
ENDMDL
MODEL 4
REMARK VINA RESULT:      -7.5      2.869      7.706
REMARK  Name = 
REMARK  14 active torsions:
REMARK  status: ('A' for Active; 'I' for Inactive)
REMARK    1  A    between atoms: C_1  and  C_2
REMARK    2  A    between atoms: C_2  and  C_3
REMARK    3  A    between atoms: C_3  and  C_4
REMARK    4  A    between atoms: C_4  and  N_5
REMARK    5  A    between atoms: C_4  and  C_16
REMARK    6  A    between atoms: C_6  and  O_8
REMARK    7  A    between atoms: O_8  and  C_9
REMARK    8  A    between atoms: C_9  and  C_10
REMARK    9  A    between atoms: N_18  and  CA_19
REMARK   10  A    between atoms: CA_19  and  CB_20
REMARK   11  A    between atoms: CA_19  and  C_28
REMARK   12  A    between atoms: CB_20  and  CG_21
REMARK   13  A    between atoms: CZ_24  and  OH_25
REMARK   14  A    between atoms: C_28  and  OXT_30
REMARK                            x       y       z     vdW  Elec       q    Type
REMARK                         _______ _______ _______ _____ _____    ______ ____
ROOT
ATOM      1  C   UNK A   1       5.038   4.793  18.630  0.00  0.00    +0.000 C 
ATOM      2  O   UNK A   1       4.836   4.357  19.761  0.00  0.00    +0.000 OA
ATOM      3  N   TYR A   2       4.051   5.422  17.913  0.00  0.00    +0.000 N 
ATOM      4  H   TYR A   2       4.246   5.742  16.969  0.00  0.00    +0.000 HD
ENDROOT
BRANCH   1   5
ATOM      5  C   UNK A   1       6.339   4.504  17.840  0.00  0.00    +0.000 C 
BRANCH   5   6
ATOM      6  N   UNK A   1       7.197   5.691  17.848  0.00  0.00    +0.000 N 
ATOM      7  C   UNK A   0       7.811   6.133  18.978  0.00  0.00    +0.000 C 
ATOM      8  O   UNK A   0       7.710   5.612  20.077  0.00  0.00    +0.000 OA
ATOM      9  H   UNK A   1       7.356   6.234  17.010  0.00  0.00    +0.000 HD
BRANCH   7  10
ATOM     10  O   UNK A   0       8.535   7.236  18.686  0.00  0.00    +0.000 OA
BRANCH  10  11
ATOM     11  C   UNK A   0       7.857   8.254  17.941  0.00  0.00    +0.000 C 
BRANCH  11  12
ATOM     12  C   UNK A   0       8.454   9.583  18.319  0.00  0.00    +0.000 A 
ATOM     13  C   UNK A   0       8.257  10.711  17.511  0.00  0.00    +0.000 A 
ATOM     14  C   UNK A   0       8.826  11.935  17.864  0.00  0.00    +0.000 A 
ATOM     15  C   UNK A   0       9.602  12.036  19.018  0.00  0.00    +0.000 A 
ATOM     16  C   UNK A   0       9.812  10.915  19.819  0.00  0.00    +0.000 A 
ATOM     17  C   UNK A   0       9.244   9.691  19.470  0.00  0.00    +0.000 A 
ENDBRANCH  11  12
ENDBRANCH  10  11
ENDBRANCH   7  10
ENDBRANCH   5   6
BRANCH   5  18
ATOM     18  C   UNK A   1       6.036   4.115  16.387  0.00  0.00    +0.000 C 
BRANCH  18  20
ATOM     19  C   UNK A   1       6.511   4.473  13.939  0.00  0.00    +0.000 C 
ATOM     20  C   UNK A   1       6.899   4.854  15.361  0.00  0.00    +0.000 C 
ENDBRANCH  18  20
ENDBRANCH   5  18
ENDBRANCH   1   5
BRANCH   3  21
ATOM     21  CA  TYR A   2       2.730   5.730  18.464  0.00  0.00    +0.000 C 
BRANCH  21  22
ATOM     22  C   TYR A   2       1.814   4.525  18.198  0.00  0.00    +0.000 C 
ATOM     23  O   TYR A   2       1.064   4.435  17.234  0.00  0.00    +0.000 OA
BRANCH  22  24
ATOM     24  OXT TYR A   2       1.908   3.537  19.119  0.00  0.00    +0.000 OA
ATOM     25  HXT TYR A   2       2.491   2.795  18.872  0.00  0.00    +0.000 HD
ENDBRANCH  22  24
ENDBRANCH  21  22
BRANCH  21  26
ATOM     26  CB  TYR A   2       2.150   7.046  17.906  0.00  0.00    +0.000 C 
BRANCH  26  27
ATOM     27  CG  TYR A   2       1.832   8.056  18.986  0.00  0.00    +0.000 A 
ATOM     28  CD1 TYR A   2       1.841   7.686  20.341  0.00  0.00    +0.000 A 
ATOM     29  CE1 TYR A   2       1.363   8.560  21.318  0.00  0.00    +0.000 A 
ATOM     30  CZ  TYR A   2       0.900   9.812  20.942  0.00  0.00    +0.000 A 
ATOM     31  CE2 TYR A   2       0.966  10.223  19.618  0.00  0.00    +0.000 A 
ATOM     32  CD2 TYR A   2       1.427   9.347  18.636  0.00  0.00    +0.000 A 
BRANCH  30  33
ATOM     33  OH  TYR A   2       0.350  10.672  21.845  0.00  0.00    +0.000 OA
ATOM     34  HH  TYR A   2       1.069  11.058  22.371  0.00  0.00    +0.000 HD
ENDBRANCH  30  33
ENDBRANCH  26  27
ENDBRANCH  21  26
ENDBRANCH   3  21
TORSDOF 13
ENDMDL
MODEL 5
REMARK VINA RESULT:      -7.5      3.359      7.433
REMARK  Name = 
REMARK  14 active torsions:
REMARK  status: ('A' for Active; 'I' for Inactive)
REMARK    1  A    between atoms: C_1  and  C_2
REMARK    2  A    between atoms: C_2  and  C_3
REMARK    3  A    between atoms: C_3  and  C_4
REMARK    4  A    between atoms: C_4  and  N_5
REMARK    5  A    between atoms: C_4  and  C_16
REMARK    6  A    between atoms: C_6  and  O_8
REMARK    7  A    between atoms: O_8  and  C_9
REMARK    8  A    between atoms: C_9  and  C_10
REMARK    9  A    between atoms: N_18  and  CA_19
REMARK   10  A    between atoms: CA_19  and  CB_20
REMARK   11  A    between atoms: CA_19  and  C_28
REMARK   12  A    between atoms: CB_20  and  CG_21
REMARK   13  A    between atoms: CZ_24  and  OH_25
REMARK   14  A    between atoms: C_28  and  OXT_30
REMARK                            x       y       z     vdW  Elec       q    Type
REMARK                         _______ _______ _______ _____ _____    ______ ____
ROOT
ATOM      1  C   UNK A   1       5.987   4.834  18.768  0.00  0.00    +0.000 C 
ATOM      2  O   UNK A   1       5.633   5.574  19.684  0.00  0.00    +0.000 OA
ATOM      3  N   TYR A   2       5.236   3.752  18.383  0.00  0.00    +0.000 N 
ATOM      4  H   TYR A   2       5.575   3.147  17.643  0.00  0.00    +0.000 HD
ENDROOT
BRANCH   1   5
ATOM      5  C   UNK A   1       7.384   4.931  18.105  0.00  0.00    +0.000 C 
BRANCH   5   6
ATOM      6  N   UNK A   1       8.041   6.173  18.516  0.00  0.00    +0.000 N 
ATOM      7  C   UNK A   0       7.761   7.369  17.933  0.00  0.00    +0.000 C 
ATOM      8  O   UNK A   0       6.964   7.532  17.024  0.00  0.00    +0.000 OA
ATOM      9  H   UNK A   1       8.740   6.185  19.248  0.00  0.00    +0.000 HD
BRANCH   7  10
ATOM     10  O   UNK A   0       8.509   8.332  18.514  0.00  0.00    +0.000 OA
BRANCH  10  11
ATOM     11  C   UNK A   0       8.331   9.659  18.007  0.00  0.00    +0.000 C 
BRANCH  11  12
ATOM     12  C   UNK A   0       9.363  10.547  18.650  0.00  0.00    +0.000 A 
ATOM     13  C   UNK A   0      10.371  11.146  17.881  0.00  0.00    +0.000 A 
ATOM     14  C   UNK A   0      11.330  11.956  18.490  0.00  0.00    +0.000 A 
ATOM     15  C   UNK A   0      11.294  12.163  19.869  0.00  0.00    +0.000 A 
ATOM     16  C   UNK A   0      10.303  11.558  20.640  0.00  0.00    +0.000 A 
ATOM     17  C   UNK A   0       9.342  10.749  20.035  0.00  0.00    +0.000 A 
ENDBRANCH  11  12
ENDBRANCH  10  11
ENDBRANCH   7  10
ENDBRANCH   5   6
BRANCH   5  18
ATOM     18  C   UNK A   1       7.280   4.902  16.574  0.00  0.00    +0.000 C 
BRANCH  18  20
ATOM     19  C   UNK A   1       5.464   4.903  14.828  0.00  0.00    +0.000 C 
ATOM     20  C   UNK A   1       6.021   4.200  16.059  0.00  0.00    +0.000 C 
ENDBRANCH  18  20
ENDBRANCH   5  18
ENDBRANCH   1   5
BRANCH   3  21
ATOM     21  CA  TYR A   2       3.913   3.455  18.937  0.00  0.00    +0.000 C 
BRANCH  21  22
ATOM     22  C   TYR A   2       3.703   1.934  18.867  0.00  0.00    +0.000 C 
ATOM     23  O   TYR A   2       4.452   1.115  19.384  0.00  0.00    +0.000 OA
BRANCH  22  24
ATOM     24  OXT TYR A   2       2.595   1.553  18.188  0.00  0.00    +0.000 OA
ATOM     25  HXT TYR A   2       2.419   2.052  17.369  0.00  0.00    +0.000 HD
ENDBRANCH  22  24
ENDBRANCH  21  22
BRANCH  21  26
ATOM     26  CB  TYR A   2       2.787   4.238  18.231  0.00  0.00    +0.000 C 
BRANCH  26  27
ATOM     27  CG  TYR A   2       2.533   5.593  18.852  0.00  0.00    +0.000 A 
ATOM     28  CD1 TYR A   2       2.054   5.703  20.167  0.00  0.00    +0.000 A 
ATOM     29  CE1 TYR A   2       1.637   6.936  20.670  0.00  0.00    +0.000 A 
ATOM     30  CZ  TYR A   2       1.724   8.063  19.866  0.00  0.00    +0.000 A 
ATOM     31  CE2 TYR A   2       2.276   7.983  18.596  0.00  0.00    +0.000 A 
ATOM     32  CD2 TYR A   2       2.677   6.751  18.082  0.00  0.00    +0.000 A 
BRANCH  30  33
ATOM     33  OH  TYR A   2       1.258   9.274  20.280  0.00  0.00    +0.000 OA
ATOM     34  HH  TYR A   2       1.978   9.731  20.745  0.00  0.00    +0.000 HD
ENDBRANCH  30  33
ENDBRANCH  26  27
ENDBRANCH  21  26
ENDBRANCH   3  21
TORSDOF 13
ENDMDL
MODEL 6
REMARK VINA RESULT:      -7.5      3.277      7.457
REMARK  Name = 
REMARK  14 active torsions:
REMARK  status: ('A' for Active; 'I' for Inactive)
REMARK    1  A    between atoms: C_1  and  C_2
REMARK    2  A    between atoms: C_2  and  C_3
REMARK    3  A    between atoms: C_3  and  C_4
REMARK    4  A    between atoms: C_4  and  N_5
REMARK    5  A    between atoms: C_4  and  C_16
REMARK    6  A    between atoms: C_6  and  O_8
REMARK    7  A    between atoms: O_8  and  C_9
REMARK    8  A    between atoms: C_9  and  C_10
REMARK    9  A    between atoms: N_18  and  CA_19
REMARK   10  A    between atoms: CA_19  and  CB_20
REMARK   11  A    between atoms: CA_19  and  C_28
REMARK   12  A    between atoms: CB_20  and  CG_21
REMARK   13  A    between atoms: CZ_24  and  OH_25
REMARK   14  A    between atoms: C_28  and  OXT_30
REMARK                            x       y       z     vdW  Elec       q    Type
REMARK                         _______ _______ _______ _____ _____    ______ ____
ROOT
ATOM      1  C   UNK A   1       5.757   4.793  17.980  0.00  0.00    +0.000 C 
ATOM      2  O   UNK A   1       5.541   5.467  18.985  0.00  0.00    +0.000 OA
ATOM      3  N   TYR A   2       4.929   3.761  17.613  0.00  0.00    +0.000 N 
ATOM      4  H   TYR A   2       5.155   3.208  16.792  0.00  0.00    +0.000 HD
ENDROOT
BRANCH   1   5
ATOM      5  C   UNK A   1       7.064   4.909  17.157  0.00  0.00    +0.000 C 
BRANCH   5   6
ATOM      6  N   UNK A   1       7.332   6.315  16.851  0.00  0.00    +0.000 N 
ATOM      7  C   UNK A   0       7.954   7.144  17.732  0.00  0.00    +0.000 C 
ATOM      8  O   UNK A   0       8.335   6.819  18.845  0.00  0.00    +0.000 OA
ATOM      9  H   UNK A   1       7.053   6.727  15.970  0.00  0.00    +0.000 HD
BRANCH   7  10
ATOM     10  O   UNK A   0       8.068   8.372  17.180  0.00  0.00    +0.000 OA
BRANCH  10  11
ATOM     11  C   UNK A   0       7.487   9.451  17.921  0.00  0.00    +0.000 C 
BRANCH  11  12
ATOM     12  C   UNK A   0       8.585  10.417  18.278  0.00  0.00    +0.000 A 
ATOM     13  C   UNK A   0       9.472  10.135  19.326  0.00  0.00    +0.000 A 
ATOM     14  C   UNK A   0      10.477  11.044  19.657  0.00  0.00    +0.000 A 
ATOM     15  C   UNK A   0      10.595  12.241  18.952  0.00  0.00    +0.000 A 
ATOM     16  C   UNK A   0       9.706  12.533  17.918  0.00  0.00    +0.000 A 
ATOM     17  C   UNK A   0       8.702  11.626  17.584  0.00  0.00    +0.000 A 
ENDBRANCH  11  12
ENDBRANCH  10  11
ENDBRANCH   7  10
ENDBRANCH   5   6
BRANCH   5  18
ATOM     18  C   UNK A   1       6.971   4.119  15.845  0.00  0.00    +0.000 C 
BRANCH  18  20
ATOM     19  C   UNK A   1       7.312   4.853  13.460  0.00  0.00    +0.000 C 
ATOM     20  C   UNK A   1       6.403   4.931  14.679  0.00  0.00    +0.000 C 
ENDBRANCH  18  20
ENDBRANCH   5  18
ENDBRANCH   1   5
BRANCH   3  21
ATOM     21  CA  TYR A   2       3.676   3.452  18.303  0.00  0.00    +0.000 C 
BRANCH  21  22
ATOM     22  C   TYR A   2       3.428   1.940  18.177  0.00  0.00    +0.000 C 
ATOM     23  O   TYR A   2       4.163   1.084  18.652  0.00  0.00    +0.000 OA
BRANCH  22  24
ATOM     24  OXT TYR A   2       2.302   1.613  17.499  0.00  0.00    +0.000 OA
ATOM     25  HXT TYR A   2       1.887   0.772  17.768  0.00  0.00    +0.000 HD
ENDBRANCH  22  24
ENDBRANCH  21  22
BRANCH  21  26
ATOM     26  CB  TYR A   2       2.490   4.289  17.779  0.00  0.00    +0.000 C 
BRANCH  26  27
ATOM     27  CG  TYR A   2       2.117   5.425  18.703  0.00  0.00    +0.000 A 
ATOM     28  CD1 TYR A   2       2.338   6.761  18.328  0.00  0.00    +0.000 A 
ATOM     29  CE1 TYR A   2       2.175   7.794  19.252  0.00  0.00    +0.000 A 
ATOM     30  CZ  TYR A   2       1.766   7.494  20.542  0.00  0.00    +0.000 A 
ATOM     31  CE2 TYR A   2       1.460   6.189  20.901  0.00  0.00    +0.000 A 
ATOM     32  CD2 TYR A   2       1.639   5.152  19.988  0.00  0.00    +0.000 A 
BRANCH  30  33
ATOM     33  OH  TYR A   2       1.668   8.456  21.502  0.00  0.00    +0.000 OA
ATOM     34  HH  TYR A   2       1.854   9.315  21.089  0.00  0.00    +0.000 HD
ENDBRANCH  30  33
ENDBRANCH  26  27
ENDBRANCH  21  26
ENDBRANCH   3  21
TORSDOF 13
ENDMDL
MODEL 7
REMARK VINA RESULT:      -7.5      3.252      7.174
REMARK  Name = 
REMARK  14 active torsions:
REMARK  status: ('A' for Active; 'I' for Inactive)
REMARK    1  A    between atoms: C_1  and  C_2
REMARK    2  A    between atoms: C_2  and  C_3
REMARK    3  A    between atoms: C_3  and  C_4
REMARK    4  A    between atoms: C_4  and  N_5
REMARK    5  A    between atoms: C_4  and  C_16
REMARK    6  A    between atoms: C_6  and  O_8
REMARK    7  A    between atoms: O_8  and  C_9
REMARK    8  A    between atoms: C_9  and  C_10
REMARK    9  A    between atoms: N_18  and  CA_19
REMARK   10  A    between atoms: CA_19  and  CB_20
REMARK   11  A    between atoms: CA_19  and  C_28
REMARK   12  A    between atoms: CB_20  and  CG_21
REMARK   13  A    between atoms: CZ_24  and  OH_25
REMARK   14  A    between atoms: C_28  and  OXT_30
REMARK                            x       y       z     vdW  Elec       q    Type
REMARK                         _______ _______ _______ _____ _____    ______ ____
ROOT
ATOM      1  C   UNK A   1       6.272   4.869  18.702  0.00  0.00    +0.000 C 
ATOM      2  O   UNK A   1       6.564   4.846  19.896  0.00  0.00    +0.000 OA
ATOM      3  N   TYR A   2       5.073   4.381  18.244  0.00  0.00    +0.000 N 
ATOM      4  H   TYR A   2       4.880   4.390  17.248  0.00  0.00    +0.000 HD
ENDROOT
BRANCH   1   5
ATOM      5  C   UNK A   1       7.287   5.257  17.598  0.00  0.00    +0.000 C 
BRANCH   5   6
ATOM      6  N   UNK A   1       7.242   6.702  17.371  0.00  0.00    +0.000 N 
ATOM      7  C   UNK A   0       7.933   7.580  18.146  0.00  0.00    +0.000 C 
ATOM      8  O   UNK A   0       8.637   7.270  19.093  0.00  0.00    +0.000 OA
ATOM      9  H   UNK A   1       6.683   7.103  16.630  0.00  0.00    +0.000 HD
BRANCH   7  10
ATOM     10  O   UNK A   0       7.706   8.836  17.703  0.00  0.00    +0.000 OA
BRANCH  10  11
ATOM     11  C   UNK A   0       8.867   9.600  17.356  0.00  0.00    +0.000 C 
BRANCH  11  12
ATOM     12  C   UNK A   0       8.986  10.738  18.334  0.00  0.00    +0.000 A 
ATOM     13  C   UNK A   0       8.749  12.059  17.927  0.00  0.00    +0.000 A 
ATOM     14  C   UNK A   0       8.875  13.107  18.839  0.00  0.00    +0.000 A 
ATOM     15  C   UNK A   0       9.248  12.843  20.157  0.00  0.00    +0.000 A 
ATOM     16  C   UNK A   0       9.498  11.533  20.564  0.00  0.00    +0.000 A 
ATOM     17  C   UNK A   0       9.371  10.484  19.655  0.00  0.00    +0.000 A 
ENDBRANCH  11  12
ENDBRANCH  10  11
ENDBRANCH   7  10
ENDBRANCH   5   6
BRANCH   5  18
ATOM     18  C   UNK A   1       6.984   4.532  16.280  0.00  0.00    +0.000 C 
BRANCH  18  20
ATOM     19  C   UNK A   1       5.513   4.455  14.237  0.00  0.00    +0.000 C 
ATOM     20  C   UNK A   1       6.106   5.342  15.323  0.00  0.00    +0.000 C 
ENDBRANCH  18  20
ENDBRANCH   5  18
ENDBRANCH   1   5
BRANCH   3  21
ATOM     21  CA  TYR A   2       4.007   3.910  19.129  0.00  0.00    +0.000 C 
BRANCH  21  22
ATOM     22  C   TYR A   2       4.082   2.375  19.182  0.00  0.00    +0.000 C 
ATOM     23  O   TYR A   2       3.339   1.632  18.553  0.00  0.00    +0.000 OA
BRANCH  22  24
ATOM     24  OXT TYR A   2       5.062   1.890  19.981  0.00  0.00    +0.000 OA
ATOM     25  HXT TYR A   2       4.787   1.175  20.585  0.00  0.00    +0.000 HD
ENDBRANCH  22  24
ENDBRANCH  21  22
BRANCH  21  26
ATOM     26  CB  TYR A   2       2.615   4.417  18.699  0.00  0.00    +0.000 C 
BRANCH  26  27
ATOM     27  CG  TYR A   2       2.402   5.883  19.002  0.00  0.00    +0.000 A 
ATOM     28  CD1 TYR A   2       1.993   6.302  20.278  0.00  0.00    +0.000 A 
ATOM     29  CE1 TYR A   2       1.611   7.626  20.503  0.00  0.00    +0.000 A 
ATOM     30  CZ  TYR A   2       1.664   8.534  19.457  0.00  0.00    +0.000 A 
ATOM     31  CE2 TYR A   2       2.150   8.155  18.214  0.00  0.00    +0.000 A 
ATOM     32  CD2 TYR A   2       2.515   6.830  17.980  0.00  0.00    +0.000 A 
BRANCH  30  33
ATOM     33  OH  TYR A   2       1.229   9.817  19.603  0.00  0.00    +0.000 OA
ATOM     34  HH  TYR A   2       1.735  10.379  18.993  0.00  0.00    +0.000 HD
ENDBRANCH  30  33
ENDBRANCH  26  27
ENDBRANCH  21  26
ENDBRANCH   3  21
TORSDOF 13
ENDMDL
MODEL 8
REMARK VINA RESULT:      -7.5      3.296      7.923
REMARK  Name = 
REMARK  14 active torsions:
REMARK  status: ('A' for Active; 'I' for Inactive)
REMARK    1  A    between atoms: C_1  and  C_2
REMARK    2  A    between atoms: C_2  and  C_3
REMARK    3  A    between atoms: C_3  and  C_4
REMARK    4  A    between atoms: C_4  and  N_5
REMARK    5  A    between atoms: C_4  and  C_16
REMARK    6  A    between atoms: C_6  and  O_8
REMARK    7  A    between atoms: O_8  and  C_9
REMARK    8  A    between atoms: C_9  and  C_10
REMARK    9  A    between atoms: N_18  and  CA_19
REMARK   10  A    between atoms: CA_19  and  CB_20
REMARK   11  A    between atoms: CA_19  and  C_28
REMARK   12  A    between atoms: CB_20  and  CG_21
REMARK   13  A    between atoms: CZ_24  and  OH_25
REMARK   14  A    between atoms: C_28  and  OXT_30
REMARK                            x       y       z     vdW  Elec       q    Type
REMARK                         _______ _______ _______ _____ _____    ______ ____
ROOT
ATOM      1  C   UNK A   1       5.884   5.268  18.531  0.00  0.00    +0.000 C 
ATOM      2  O   UNK A   1       5.712   4.558  19.520  0.00  0.00    +0.000 OA
ATOM      3  N   TYR A   2       4.859   5.996  17.980  0.00  0.00    +0.000 N 
ATOM      4  H   TYR A   2       5.031   6.548  17.146  0.00  0.00    +0.000 HD
ENDROOT
BRANCH   1   5
ATOM      5  C   UNK A   1       7.196   5.256  17.708  0.00  0.00    +0.000 C 
BRANCH   5   6
ATOM      6  N   UNK A   1       7.498   6.610  17.239  0.00  0.00    +0.000 N 
ATOM      7  C   UNK A   0       8.136   7.523  18.019  0.00  0.00    +0.000 C 
ATOM      8  O   UNK A   0       8.507   7.324  19.165  0.00  0.00    +0.000 OA
ATOM      9  H   UNK A   1       7.231   6.920  16.314  0.00  0.00    +0.000 HD
BRANCH   7  10
ATOM     10  O   UNK A   0       8.281   8.674  17.327  0.00  0.00    +0.000 OA
BRANCH  10  11
ATOM     11  C   UNK A   0       7.887   9.871  18.007  0.00  0.00    +0.000 C 
BRANCH  11  12
ATOM     12  C   UNK A   0       9.132  10.551  18.512  0.00  0.00    +0.000 A 
ATOM     13  C   UNK A   0      10.095  11.037  17.617  0.00  0.00    +0.000 A 
ATOM     14  C   UNK A   0      11.250  11.654  18.096  0.00  0.00    +0.000 A 
ATOM     15  C   UNK A   0      11.455  11.779  19.470  0.00  0.00    +0.000 A 
ATOM     16  C   UNK A   0      10.507  11.285  20.365  0.00  0.00    +0.000 A 
ATOM     17  C   UNK A   0       9.351  10.669  19.889  0.00  0.00    +0.000 A 
ENDBRANCH  11  12
ENDBRANCH  10  11
ENDBRANCH   7  10
ENDBRANCH   5   6
BRANCH   5  18
ATOM     18  C   UNK A   1       7.089   4.318  16.498  0.00  0.00    +0.000 C 
BRANCH  18  20
ATOM     19  C   UNK A   1       5.506   4.740  14.586  0.00  0.00    +0.000 C 
ATOM     20  C   UNK A   1       6.876   5.051  15.171  0.00  0.00    +0.000 C 
ENDBRANCH  18  20
ENDBRANCH   5  18
ENDBRANCH   1   5
BRANCH   3  21
ATOM     21  CA  TYR A   2       3.525   6.084  18.577  0.00  0.00    +0.000 C 
BRANCH  21  22
ATOM     22  C   TYR A   2       2.859   4.705  18.449  0.00  0.00    +0.000 C 
ATOM     23  O   TYR A   2       2.522   4.203  17.384  0.00  0.00    +0.000 OA
BRANCH  22  24
ATOM     24  OXT TYR A   2       2.680   4.059  19.626  0.00  0.00    +0.000 OA
ATOM     25  HXT TYR A   2       2.175   3.226  19.568  0.00  0.00    +0.000 HD
ENDBRANCH  22  24
ENDBRANCH  21  22
BRANCH  21  26
ATOM     26  CB  TYR A   2       2.673   7.210  17.955  0.00  0.00    +0.000 C 
BRANCH  26  27
ATOM     27  CG  TYR A   2       1.945   8.038  18.989  0.00  0.00    +0.000 A 
ATOM     28  CD1 TYR A   2       1.423   9.300  18.662  0.00  0.00    +0.000 A 
ATOM     29  CE1 TYR A   2       0.925  10.142  19.658  0.00  0.00    +0.000 A 
ATOM     30  CZ  TYR A   2       0.926   9.710  20.976  0.00  0.00    +0.000 A 
ATOM     31  CE2 TYR A   2       1.358   8.432  21.301  0.00  0.00    +0.000 A 
ATOM     32  CD2 TYR A   2       1.872   7.595  20.313  0.00  0.00    +0.000 A 
BRANCH  30  33
ATOM     33  OH  TYR A   2       0.525  10.522  21.994  0.00  0.00    +0.000 OA
ATOM     34  HH  TYR A   2       0.488   9.992  22.806  0.00  0.00    +0.000 HD
ENDBRANCH  30  33
ENDBRANCH  26  27
ENDBRANCH  21  26
ENDBRANCH   3  21
TORSDOF 13
ENDMDL
MODEL 9
REMARK VINA RESULT:      -7.4      1.552      2.017
REMARK  Name = 
REMARK  14 active torsions:
REMARK  status: ('A' for Active; 'I' for Inactive)
REMARK    1  A    between atoms: C_1  and  C_2
REMARK    2  A    between atoms: C_2  and  C_3
REMARK    3  A    between atoms: C_3  and  C_4
REMARK    4  A    between atoms: C_4  and  N_5
REMARK    5  A    between atoms: C_4  and  C_16
REMARK    6  A    between atoms: C_6  and  O_8
REMARK    7  A    between atoms: O_8  and  C_9
REMARK    8  A    between atoms: C_9  and  C_10
REMARK    9  A    between atoms: N_18  and  CA_19
REMARK   10  A    between atoms: CA_19  and  CB_20
REMARK   11  A    between atoms: CA_19  and  C_28
REMARK   12  A    between atoms: CB_20  and  CG_21
REMARK   13  A    between atoms: CZ_24  and  OH_25
REMARK   14  A    between atoms: C_28  and  OXT_30
REMARK                            x       y       z     vdW  Elec       q    Type
REMARK                         _______ _______ _______ _____ _____    ______ ____
ROOT
ATOM      1  C   UNK A   1       4.482   5.791  18.688  0.00  0.00    +0.000 C 
ATOM      2  O   UNK A   1       4.660   5.405  19.842  0.00  0.00    +0.000 OA
ATOM      3  N   TYR A   2       5.533   6.086  17.856  0.00  0.00    +0.000 N 
ATOM      4  H   TYR A   2       5.347   6.430  16.920  0.00  0.00    +0.000 HD
ENDROOT
BRANCH   1   5
ATOM      5  C   UNK A   1       3.084   6.166  18.137  0.00  0.00    +0.000 C 
BRANCH   5   6
ATOM      6  N   UNK A   1       2.388   7.024  19.097  0.00  0.00    +0.000 N 
ATOM      7  C   UNK A   0       1.970   8.279  18.779  0.00  0.00    +0.000 C 
ATOM      8  O   UNK A   0       2.135   8.815  17.695  0.00  0.00    +0.000 OA
ATOM      9  H   UNK A   1       2.199   6.716  20.042  0.00  0.00    +0.000 HD
BRANCH   7  10
ATOM     10  O   UNK A   0       1.360   8.829  19.851  0.00  0.00    +0.000 OA
BRANCH  10  11
ATOM     11  C   UNK A   0       1.005  10.211  19.733  0.00  0.00    +0.000 C 
BRANCH  11  12
ATOM     12  C   UNK A   0       0.137  10.571  20.909  0.00  0.00    +0.000 A 
ATOM     13  C   UNK A   0       0.134   9.780  22.066  0.00  0.00    +0.000 A 
ATOM     14  C   UNK A   0      -0.685  10.116  23.144  0.00  0.00    +0.000 A 
ATOM     15  C   UNK A   0      -1.511  11.237  23.069  0.00  0.00    +0.000 A 
ATOM     16  C   UNK A   0      -1.523  12.020  21.916  0.00  0.00    +0.000 A 
ATOM     17  C   UNK A   0      -0.705  11.687  20.837  0.00  0.00    +0.000 A 
ENDBRANCH  11  12
ENDBRANCH  10  11
ENDBRANCH   7  10
ENDBRANCH   5   6
BRANCH   5  18
ATOM     18  C   UNK A   1       2.233   4.916  17.872  0.00  0.00    +0.000 C 
BRANCH  18  20
ATOM     19  C   UNK A   1       2.108   2.402  17.939  0.00  0.00    +0.000 C 
ATOM     20  C   UNK A   1       3.032   3.612  17.912  0.00  0.00    +0.000 C 
ENDBRANCH  18  20
ENDBRANCH   5  18
ENDBRANCH   1   5
BRANCH   3  21
ATOM     21  CA  TYR A   2       6.933   5.859  18.220  0.00  0.00    +0.000 C 
BRANCH  21  22
ATOM     22  C   TYR A   2       7.696   7.176  18.004  0.00  0.00    +0.000 C 
ATOM     23  O   TYR A   2       7.525   7.917  17.044  0.00  0.00    +0.000 OA
BRANCH  22  24
ATOM     24  OXT TYR A   2       8.583   7.476  18.984  0.00  0.00    +0.000 OA
ATOM     25  HXT TYR A   2       8.727   6.770  19.641  0.00  0.00    +0.000 HD
ENDBRANCH  22  24
ENDBRANCH  21  22
BRANCH  21  26
ATOM     26  CB  TYR A   2       7.561   4.681  17.446  0.00  0.00    +0.000 C 
BRANCH  26  27
ATOM     27  CG  TYR A   2       6.978   4.508  16.062  0.00  0.00    +0.000 A 
ATOM     28  CD1 TYR A   2       5.893   3.645  15.841  0.00  0.00    +0.000 A 
ATOM     29  CE1 TYR A   2       5.483   3.338  14.542  0.00  0.00    +0.000 A 
ATOM     30  CZ  TYR A   2       6.142   3.915  13.467  0.00  0.00    +0.000 A 
ATOM     31  CE2 TYR A   2       7.158   4.836  13.673  0.00  0.00    +0.000 A 
ATOM     32  CD2 TYR A   2       7.583   5.133  14.967  0.00  0.00    +0.000 A 
BRANCH  30  33
ATOM     33  OH  TYR A   2       5.832   3.588  12.181  0.00  0.00    +0.000 OA
ATOM     34  HH  TYR A   2       6.461   4.041  11.595  0.00  0.00    +0.000 HD
ENDBRANCH  30  33
ENDBRANCH  26  27
ENDBRANCH  21  26
ENDBRANCH   3  21
TORSDOF 13
ENDMDL
