MODEL 1
REMARK VINA RESULT:      -6.8      0.000      0.000
REMARK  Name = 
REMARK  21 active torsions:
REMARK  status: ('A' for Active; 'I' for Inactive)
REMARK    1  A    between atoms: C_1  and  C_2
REMARK    2  A    between atoms: C_2  and  C_3
REMARK    3  A    between atoms: C_3  and  C_4
REMARK    4  A    between atoms: C_4  and  C_5
REMARK    5  A    between atoms: C_5  and  C_6
REMARK    6  A    between atoms: C_6  and  C_7
REMARK    7  A    between atoms: C_7  and  C_8
REMARK    8  A    between atoms: C_7  and  C_9
REMARK    9  A    between atoms: C_7  and  C_10
REMARK   10  A    between atoms: C_12  and  O_13
REMARK   11  A    between atoms: C_15  and  O_16
REMARK   12  A    between atoms: O_16  and  C_17
REMARK   13  A    between atoms: C_17  and  C_18
REMARK   14  A    between atoms: C_18  and  C_19
REMARK   15  A    between atoms: C_19  and  C_20
REMARK   16  A    between atoms: C_20  and  C_21
REMARK   17  A    between atoms: C_21  and  C_22
REMARK   18  A    between atoms: C_22  and  C_23
REMARK   19  A    between atoms: C_23  and  C_24
REMARK   20  A    between atoms: N_26  and  C_27
REMARK   21  A    between atoms: C_27  and  C_28
REMARK                            x       y       z     vdW  Elec       q    Type
REMARK                         _______ _______ _______ _____ _____    ______ ____
ROOT
ATOM      1  C   UNL     1      -0.340  11.033  20.640  0.00  0.00    +0.000 A 
ATOM      2  C   UNL     1      -0.516  10.779  22.009  0.00  0.00    +0.000 A 
ATOM      3  C   UNL     1       0.082   9.681  22.601  0.00  0.00    +0.000 A 
ATOM      4  C   UNL     1       0.875   8.803  21.856  0.00  0.00    +0.000 A 
ATOM      5  C   UNL     1       1.093   9.046  20.500  0.00  0.00    +0.000 A 
ATOM      6  C   UNL     1       0.486  10.169  19.915  0.00  0.00    +0.000 A 
ENDROOT
BRANCH   1   7
ATOM      7  C   UNL     1      -0.980  12.252  19.958  0.00  0.00    +0.000 C 
ATOM      8  C   UNL     1      -0.059  13.482  20.115  0.00  0.00    +0.000 C 
ATOM      9  C   UNL     1      -2.344  12.599  20.606  0.00  0.00    +0.000 C 
BRANCH   7  10
ATOM     10  C   UNL     1      -1.217  11.935  18.453  0.00  0.00    +0.000 C 
BRANCH  10  11
ATOM     11  C   UNL     1      -2.631  11.431  18.178  0.00  0.00    +0.000 C 
BRANCH  11  12
ATOM     12  C   UNL     1      -2.652   9.944  17.896  0.00  0.00    +0.000 C 
BRANCH  12  13
ATOM     13  C   UNL     1      -2.221   9.724  16.453  0.00  0.00    +0.000 C 
BRANCH  13  15
ATOM     14  C   UNL     1      -3.140  10.108  14.172  0.00  0.00    +0.000 C 
ATOM     15  C   UNL     1      -2.916  10.717  15.540  0.00  0.00    +0.000 C 
ENDBRANCH  13  15
ENDBRANCH  12  13
ENDBRANCH  11  12
ENDBRANCH  10  11
ENDBRANCH   7  10
ENDBRANCH   1   7
BRANCH   3  16
ATOM     16  O   UNL     1      -0.109   9.431  23.928  0.00  0.00    +0.000 OA
ATOM     17  H   UNL     1      -1.064   9.297  24.061  0.00  0.00    +0.000 HD
ENDBRANCH   3  16
BRANCH   5  18
ATOM     18  O   UNL     1       1.881   8.166  19.815  0.00  0.00    +0.000 OA
BRANCH  18  19
ATOM     19  C   UNL     1       1.644   8.092  18.401  0.00  0.00    +0.000 C 
BRANCH  19  20
ATOM     20  C   UNL     1       2.945   8.296  17.642  0.00  0.00    +0.000 C 
BRANCH  20  21
ATOM     21  C   UNL     1       3.928   7.160  17.920  0.00  0.00    +0.000 C 
BRANCH  21  22
ATOM     22  C   UNL     1       4.759   6.850  16.683  0.00  0.00    +0.000 C 
BRANCH  22  23
ATOM     23  C   UNL     1       4.686   5.367  16.323  0.00  0.00    +0.000 C 
BRANCH  23  24
ATOM     24  C   UNL     1       3.984   4.594  17.431  0.00  0.00    +0.000 C 
BRANCH  24  25
ATOM     25  C   UNL     1       3.528   3.211  16.976  0.00  0.00    +0.000 C 
BRANCH  25  26
ATOM     26  C   UNL     1       3.044   2.402  18.160  0.00  0.00    +0.000 C 
ATOM     27  O   UNL     1       3.500   1.297  18.464  0.00  0.00    +0.000 OA
ATOM     28  N   UNL     1       2.038   2.993  18.882  0.00  0.00    +0.000 N 
ATOM     29  H   UNL     1       1.655   3.884  18.587  0.00  0.00    +0.000 HD
BRANCH  28  30
ATOM     30  C   UNL     1       1.464   2.311  20.045  0.00  0.00    +0.000 C 
BRANCH  30  31
ATOM     31  C   UNL     1       1.927   2.810  21.422  0.00  0.00    +0.000 C 
ATOM     32  F   UNL     1       2.020   4.158  21.488  0.00  0.00    +0.000 F 
ATOM     33  F   UNL     1       1.092   2.401  22.400  0.00  0.00    +0.000 F 
ATOM     34  F   UNL     1       3.160   2.322  21.714  0.00  0.00    +0.000 F 
ENDBRANCH  30  31
ENDBRANCH  28  30
ENDBRANCH  25  26
ENDBRANCH  24  25
ENDBRANCH  23  24
ENDBRANCH  22  23
ENDBRANCH  21  22
ENDBRANCH  20  21
ENDBRANCH  19  20
ENDBRANCH  18  19
ENDBRANCH   5  18
TORSDOF 18
ENDMDL
MODEL 2
REMARK VINA RESULT:      -6.8      3.938      9.264
REMARK  Name = 
REMARK  21 active torsions:
REMARK  status: ('A' for Active; 'I' for Inactive)
REMARK    1  A    between atoms: C_1  and  C_2
REMARK    2  A    between atoms: C_2  and  C_3
REMARK    3  A    between atoms: C_3  and  C_4
REMARK    4  A    between atoms: C_4  and  C_5
REMARK    5  A    between atoms: C_5  and  C_6
REMARK    6  A    between atoms: C_6  and  C_7
REMARK    7  A    between atoms: C_7  and  C_8
REMARK    8  A    between atoms: C_7  and  C_9
REMARK    9  A    between atoms: C_7  and  C_10
REMARK   10  A    between atoms: C_12  and  O_13
REMARK   11  A    between atoms: C_15  and  O_16
REMARK   12  A    between atoms: O_16  and  C_17
REMARK   13  A    between atoms: C_17  and  C_18
REMARK   14  A    between atoms: C_18  and  C_19
REMARK   15  A    between atoms: C_19  and  C_20
REMARK   16  A    between atoms: C_20  and  C_21
REMARK   17  A    between atoms: C_21  and  C_22
REMARK   18  A    between atoms: C_22  and  C_23
REMARK   19  A    between atoms: C_23  and  C_24
REMARK   20  A    between atoms: N_26  and  C_27
REMARK   21  A    between atoms: C_27  and  C_28
REMARK                            x       y       z     vdW  Elec       q    Type
REMARK                         _______ _______ _______ _____ _____    ______ ____
ROOT
ATOM      1  C   UNL     1       5.020   5.221  17.568  0.00  0.00    +0.000 A 
ATOM      2  C   UNL     1       4.713   3.992  18.170  0.00  0.00    +0.000 A 
ATOM      3  C   UNL     1       3.567   3.851  18.931  0.00  0.00    +0.000 A 
ATOM      4  C   UNL     1       2.688   4.923  19.117  0.00  0.00    +0.000 A 
ATOM      5  C   UNL     1       2.952   6.149  18.506  0.00  0.00    +0.000 A 
ATOM      6  C   UNL     1       4.115   6.274  17.729  0.00  0.00    +0.000 A 
ENDROOT
BRANCH   1   7
ATOM      7  C   UNL     1       6.279   5.403  16.706  0.00  0.00    +0.000 C 
ATOM      8  C   UNL     1       7.411   4.493  17.235  0.00  0.00    +0.000 C 
ATOM      9  C   UNL     1       6.786   6.865  16.762  0.00  0.00    +0.000 C 
BRANCH   7  10
ATOM     10  C   UNL     1       5.945   5.054  15.226  0.00  0.00    +0.000 C 
BRANCH  10  11
ATOM     11  C   UNL     1       7.132   5.276  14.292  0.00  0.00    +0.000 C 
BRANCH  11  12
ATOM     12  C   UNL     1       7.048   4.399  13.061  0.00  0.00    +0.000 C 
BRANCH  12  13
ATOM     13  C   UNL     1       5.790   3.549  13.163  0.00  0.00    +0.000 C 
BRANCH  13  15
ATOM     14  C   UNL     1       4.169   3.271  11.294  0.00  0.00    +0.000 C 
ATOM     15  C   UNL     1       5.517   2.854  11.842  0.00  0.00    +0.000 C 
ENDBRANCH  13  15
ENDBRANCH  12  13
ENDBRANCH  11  12
ENDBRANCH  10  11
ENDBRANCH   7  10
ENDBRANCH   1   7
BRANCH   3  16
ATOM     16  O   UNL     1       3.284   2.658  19.528  0.00  0.00    +0.000 OA
ATOM     17  H   UNL     1       2.928   2.856  20.413  0.00  0.00    +0.000 HD
ENDBRANCH   3  16
BRANCH   5  18
ATOM     18  O   UNL     1       2.061   7.165  18.708  0.00  0.00    +0.000 OA
BRANCH  18  19
ATOM     19  C   UNL     1       2.139   8.252  17.774  0.00  0.00    +0.000 C 
BRANCH  19  20
ATOM     20  C   UNL     1       1.686   9.543  18.436  0.00  0.00    +0.000 C 
BRANCH  20  21
ATOM     21  C   UNL     1       1.197   9.288  19.861  0.00  0.00    +0.000 C 
BRANCH  21  22
ATOM     22  C   UNL     1      -0.119  10.008  20.117  0.00  0.00    +0.000 C 
BRANCH  22  23
ATOM     23  C   UNL     1       0.115  11.391  20.724  0.00  0.00    +0.000 C 
BRANCH  23  24
ATOM     24  C   UNL     1       0.380  12.407  19.622  0.00  0.00    +0.000 C 
BRANCH  24  25
ATOM     25  C   UNL     1      -0.829  13.298  19.350  0.00  0.00    +0.000 C 
BRANCH  25  26
ATOM     26  C   UNL     1      -1.955  12.486  18.746  0.00  0.00    +0.000 C 
ATOM     27  O   UNL     1      -2.969  12.159  19.367  0.00  0.00    +0.000 OA
ATOM     28  N   UNL     1      -1.761  12.128  17.436  0.00  0.00    +0.000 N 
ATOM     29  H   UNL     1      -0.900  12.377  16.962  0.00  0.00    +0.000 HD
BRANCH  28  30
ATOM     30  C   UNL     1      -2.766  11.327  16.732  0.00  0.00    +0.000 C 
BRANCH  30  31
ATOM     31  C   UNL     1      -2.518   9.812  16.690  0.00  0.00    +0.000 C 
ATOM     32  F   UNL     1      -2.719   9.280  15.462  0.00  0.00    +0.000 F 
ATOM     33  F   UNL     1      -1.261   9.507  17.076  0.00  0.00    +0.000 F 
ATOM     34  F   UNL     1      -3.365   9.169  17.534  0.00  0.00    +0.000 F 
ENDBRANCH  30  31
ENDBRANCH  28  30
ENDBRANCH  25  26
ENDBRANCH  24  25
ENDBRANCH  23  24
ENDBRANCH  22  23
ENDBRANCH  21  22
ENDBRANCH  20  21
ENDBRANCH  19  20
ENDBRANCH  18  19
ENDBRANCH   5  18
TORSDOF 18
ENDMDL
MODEL 3
REMARK VINA RESULT:      -6.8      4.436      9.132
REMARK  Name = 
REMARK  21 active torsions:
REMARK  status: ('A' for Active; 'I' for Inactive)
REMARK    1  A    between atoms: C_1  and  C_2
REMARK    2  A    between atoms: C_2  and  C_3
REMARK    3  A    between atoms: C_3  and  C_4
REMARK    4  A    between atoms: C_4  and  C_5
REMARK    5  A    between atoms: C_5  and  C_6
REMARK    6  A    between atoms: C_6  and  C_7
REMARK    7  A    between atoms: C_7  and  C_8
REMARK    8  A    between atoms: C_7  and  C_9
REMARK    9  A    between atoms: C_7  and  C_10
REMARK   10  A    between atoms: C_12  and  O_13
REMARK   11  A    between atoms: C_15  and  O_16
REMARK   12  A    between atoms: O_16  and  C_17
REMARK   13  A    between atoms: C_17  and  C_18
REMARK   14  A    between atoms: C_18  and  C_19
REMARK   15  A    between atoms: C_19  and  C_20
REMARK   16  A    between atoms: C_20  and  C_21
REMARK   17  A    between atoms: C_21  and  C_22
REMARK   18  A    between atoms: C_22  and  C_23
REMARK   19  A    between atoms: C_23  and  C_24
REMARK   20  A    between atoms: N_26  and  C_27
REMARK   21  A    between atoms: C_27  and  C_28
REMARK                            x       y       z     vdW  Elec       q    Type
REMARK                         _______ _______ _______ _____ _____    ______ ____
ROOT
ATOM      1  C   UNL     1       2.769   6.906  18.591  0.00  0.00    +0.000 A 
ATOM      2  C   UNL     1       2.528   8.004  17.751  0.00  0.00    +0.000 A 
ATOM      3  C   UNL     1       1.819   9.098  18.214  0.00  0.00    +0.000 A 
ATOM      4  C   UNL     1       1.331   9.139  19.524  0.00  0.00    +0.000 A 
ATOM      5  C   UNL     1       1.581   8.075  20.390  0.00  0.00    +0.000 A 
ATOM      6  C   UNL     1       2.309   6.975  19.908  0.00  0.00    +0.000 A 
ENDROOT
BRANCH   1   7
ATOM      7  C   UNL     1       3.564   5.683  18.108  0.00  0.00    +0.000 C 
ATOM      8  C   UNL     1       4.582   6.114  17.028  0.00  0.00    +0.000 C 
ATOM      9  C   UNL     1       2.627   4.624  17.475  0.00  0.00    +0.000 C 
BRANCH   7  10
ATOM     10  C   UNL     1       4.295   5.033  19.318  0.00  0.00    +0.000 C 
BRANCH  10  11
ATOM     11  C   UNL     1       4.726   3.596  19.037  0.00  0.00    +0.000 C 
BRANCH  11  12
ATOM     12  C   UNL     1       4.335   2.663  20.162  0.00  0.00    +0.000 C 
BRANCH  12  13
ATOM     13  C   UNL     1       2.891   2.233  19.948  0.00  0.00    +0.000 C 
BRANCH  13  15
ATOM     14  C   UNL     1       0.983   3.686  20.614  0.00  0.00    +0.000 C 
ATOM     15  C   UNL     1       2.026   2.703  21.103  0.00  0.00    +0.000 C 
ENDBRANCH  13  15
ENDBRANCH  12  13
ENDBRANCH  11  12
ENDBRANCH  10  11
ENDBRANCH   7  10
ENDBRANCH   1   7
BRANCH   3  16
ATOM     16  O   UNL     1       1.573  10.154  17.387  0.00  0.00    +0.000 OA
ATOM     17  H   UNL     1       2.389  10.684  17.347  0.00  0.00    +0.000 HD
ENDBRANCH   3  16
BRANCH   5  18
ATOM     18  O   UNL     1       1.092   8.164  21.663  0.00  0.00    +0.000 OA
BRANCH  18  19
ATOM     19  C   UNL     1      -0.171   8.833  21.795  0.00  0.00    +0.000 C 
BRANCH  19  20
ATOM     20  C   UNL     1      -0.213   9.618  23.096  0.00  0.00    +0.000 C 
BRANCH  20  21
ATOM     21  C   UNL     1      -1.084  10.866  22.958  0.00  0.00    +0.000 C 
BRANCH  21  22
ATOM     22  C   UNL     1      -0.614  11.725  21.793  0.00  0.00    +0.000 C 
BRANCH  22  23
ATOM     23  C   UNL     1      -1.574  12.886  21.538  0.00  0.00    +0.000 C 
BRANCH  23  24
ATOM     24  C   UNL     1      -2.069  12.848  20.098  0.00  0.00    +0.000 C 
BRANCH  24  25
ATOM     25  C   UNL     1      -1.063  12.195  19.156  0.00  0.00    +0.000 C 
BRANCH  25  26
ATOM     26  C   UNL     1      -0.043  13.212  18.689  0.00  0.00    +0.000 C 
ATOM     27  O   UNL     1      -0.306  14.402  18.498  0.00  0.00    +0.000 OA
ATOM     28  N   UNL     1       1.215  12.706  18.484  0.00  0.00    +0.000 N 
ATOM     29  H   UNL     1       1.393  11.716  18.611  0.00  0.00    +0.000 HD
BRANCH  28  30
ATOM     30  C   UNL     1       2.295  13.578  18.016  0.00  0.00    +0.000 C 
BRANCH  30  31
ATOM     31  C   UNL     1       3.130  14.270  19.103  0.00  0.00    +0.000 C 
ATOM     32  F   UNL     1       2.707  15.527  19.370  0.00  0.00    +0.000 F 
ATOM     33  F   UNL     1       3.112  13.570  20.258  0.00  0.00    +0.000 F 
ATOM     34  F   UNL     1       4.426  14.372  18.714  0.00  0.00    +0.000 F 
ENDBRANCH  30  31
ENDBRANCH  28  30
ENDBRANCH  25  26
ENDBRANCH  24  25
ENDBRANCH  23  24
ENDBRANCH  22  23
ENDBRANCH  21  22
ENDBRANCH  20  21
ENDBRANCH  19  20
ENDBRANCH  18  19
ENDBRANCH   5  18
TORSDOF 18
ENDMDL
MODEL 4
REMARK VINA RESULT:      -6.6      2.969      4.104
REMARK  Name = 
REMARK  21 active torsions:
REMARK  status: ('A' for Active; 'I' for Inactive)
REMARK    1  A    between atoms: C_1  and  C_2
REMARK    2  A    between atoms: C_2  and  C_3
REMARK    3  A    between atoms: C_3  and  C_4
REMARK    4  A    between atoms: C_4  and  C_5
REMARK    5  A    between atoms: C_5  and  C_6
REMARK    6  A    between atoms: C_6  and  C_7
REMARK    7  A    between atoms: C_7  and  C_8
REMARK    8  A    between atoms: C_7  and  C_9
REMARK    9  A    between atoms: C_7  and  C_10
REMARK   10  A    between atoms: C_12  and  O_13
REMARK   11  A    between atoms: C_15  and  O_16
REMARK   12  A    between atoms: O_16  and  C_17
REMARK   13  A    between atoms: C_17  and  C_18
REMARK   14  A    between atoms: C_18  and  C_19
REMARK   15  A    between atoms: C_19  and  C_20
REMARK   16  A    between atoms: C_20  and  C_21
REMARK   17  A    between atoms: C_21  and  C_22
REMARK   18  A    between atoms: C_22  and  C_23
REMARK   19  A    between atoms: C_23  and  C_24
REMARK   20  A    between atoms: N_26  and  C_27
REMARK   21  A    between atoms: C_27  and  C_28
REMARK                            x       y       z     vdW  Elec       q    Type
REMARK                         _______ _______ _______ _____ _____    ______ ____
ROOT
ATOM      1  C   UNL     1      -0.210  10.361  20.161  0.00  0.00    +0.000 A 
ATOM      2  C   UNL     1      -0.304  10.448  21.558  0.00  0.00    +0.000 A 
ATOM      3  C   UNL     1       0.451   9.615  22.365  0.00  0.00    +0.000 A 
ATOM      4  C   UNL     1       1.325   8.674  21.812  0.00  0.00    +0.000 A 
ATOM      5  C   UNL     1       1.462   8.585  20.427  0.00  0.00    +0.000 A 
ATOM      6  C   UNL     1       0.695   9.443  19.621  0.00  0.00    +0.000 A 
ENDROOT
BRANCH   1   7
ATOM      7  C   UNL     1      -1.026  11.282  19.241  0.00  0.00    +0.000 C 
ATOM      8  C   UNL     1      -0.098  12.342  18.605  0.00  0.00    +0.000 C 
ATOM      9  C   UNL     1      -2.123  12.033  20.035  0.00  0.00    +0.000 C 
BRANCH   7  10
ATOM     10  C   UNL     1      -1.715  10.427  18.137  0.00  0.00    +0.000 C 
BRANCH  10  11
ATOM     11  C   UNL     1      -2.319  11.284  17.028  0.00  0.00    +0.000 C 
BRANCH  11  12
ATOM     12  C   UNL     1      -3.608  10.692  16.500  0.00  0.00    +0.000 C 
BRANCH  12  13
ATOM     13  C   UNL     1      -4.660  10.779  17.596  0.00  0.00    +0.000 C 
BRANCH  13  15
ATOM     14  C   UNL     1      -6.586  12.313  17.227  0.00  0.00    +0.000 C 
ATOM     15  C   UNL     1      -5.162  12.204  17.731  0.00  0.00    +0.000 C 
ENDBRANCH  13  15
ENDBRANCH  12  13
ENDBRANCH  11  12
ENDBRANCH  10  11
ENDBRANCH   7  10
ENDBRANCH   1   7
BRANCH   3  16
ATOM     16  O   UNL     1       0.340   9.693  23.722  0.00  0.00    +0.000 OA
ATOM     17  H   UNL     1      -0.428   9.153  23.979  0.00  0.00    +0.000 HD
ENDBRANCH   3  16
BRANCH   5  18
ATOM     18  O   UNL     1       2.334   7.657  19.933  0.00  0.00    +0.000 OA
BRANCH  18  19
ATOM     19  C   UNL     1       1.745   6.419  19.507  0.00  0.00    +0.000 C 
BRANCH  19  20
ATOM     20  C   UNL     1       2.127   5.302  20.463  0.00  0.00    +0.000 C 
BRANCH  20  21
ATOM     21  C   UNL     1       1.005   4.271  20.581  0.00  0.00    +0.000 C 
BRANCH  21  22
ATOM     22  C   UNL     1       0.947   3.392  19.339  0.00  0.00    +0.000 C 
BRANCH  22  23
ATOM     23  C   UNL     1       1.821   2.149  19.499  0.00  0.00    +0.000 C 
BRANCH  23  24
ATOM     24  C   UNL     1       2.740   1.998  18.295  0.00  0.00    +0.000 C 
BRANCH  24  25
ATOM     25  C   UNL     1       2.654   3.188  17.345  0.00  0.00    +0.000 C 
BRANCH  25  26
ATOM     26  C   UNL     1       3.939   3.986  17.384  0.00  0.00    +0.000 C 
ATOM     27  O   UNL     1       4.555   4.236  18.424  0.00  0.00    +0.000 OA
ATOM     28  N   UNL     1       4.377   4.425  16.160  0.00  0.00    +0.000 N 
ATOM     29  H   UNL     1       3.830   4.238  15.327  0.00  0.00    +0.000 HD
BRANCH  28  30
ATOM     30  C   UNL     1       5.601   5.223  16.055  0.00  0.00    +0.000 C 
BRANCH  30  31
ATOM     31  C   UNL     1       6.821   4.518  15.444  0.00  0.00    +0.000 C 
ATOM     32  F   UNL     1       7.761   4.203  16.364  0.00  0.00    +0.000 F 
ATOM     33  F   UNL     1       6.466   3.383  14.805  0.00  0.00    +0.000 F 
ATOM     34  F   UNL     1       7.426   5.321  14.532  0.00  0.00    +0.000 F 
ENDBRANCH  30  31
ENDBRANCH  28  30
ENDBRANCH  25  26
ENDBRANCH  24  25
ENDBRANCH  23  24
ENDBRANCH  22  23
ENDBRANCH  21  22
ENDBRANCH  20  21
ENDBRANCH  19  20
ENDBRANCH  18  19
ENDBRANCH   5  18
TORSDOF 18
ENDMDL
MODEL 5
REMARK VINA RESULT:      -6.5      7.613     11.137
REMARK  Name = 
REMARK  21 active torsions:
REMARK  status: ('A' for Active; 'I' for Inactive)
REMARK    1  A    between atoms: C_1  and  C_2
REMARK    2  A    between atoms: C_2  and  C_3
REMARK    3  A    between atoms: C_3  and  C_4
REMARK    4  A    between atoms: C_4  and  C_5
REMARK    5  A    between atoms: C_5  and  C_6
REMARK    6  A    between atoms: C_6  and  C_7
REMARK    7  A    between atoms: C_7  and  C_8
REMARK    8  A    between atoms: C_7  and  C_9
REMARK    9  A    between atoms: C_7  and  C_10
REMARK   10  A    between atoms: C_12  and  O_13
REMARK   11  A    between atoms: C_15  and  O_16
REMARK   12  A    between atoms: O_16  and  C_17
REMARK   13  A    between atoms: C_17  and  C_18
REMARK   14  A    between atoms: C_18  and  C_19
REMARK   15  A    between atoms: C_19  and  C_20
REMARK   16  A    between atoms: C_20  and  C_21
REMARK   17  A    between atoms: C_21  and  C_22
REMARK   18  A    between atoms: C_22  and  C_23
REMARK   19  A    between atoms: C_23  and  C_24
REMARK   20  A    between atoms: N_26  and  C_27
REMARK   21  A    between atoms: C_27  and  C_28
REMARK                            x       y       z     vdW  Elec       q    Type
REMARK                         _______ _______ _______ _____ _____    ______ ____
ROOT
ATOM      1  C   UNL     1       4.487   5.601  17.366  0.00  0.00    +0.000 A 
ATOM      2  C   UNL     1       4.605   4.488  16.520  0.00  0.00    +0.000 A 
ATOM      3  C   UNL     1       5.796   4.227  15.866  0.00  0.00    +0.000 A 
ATOM      4  C   UNL     1       6.907   5.059  16.034  0.00  0.00    +0.000 A 
ATOM      5  C   UNL     1       6.829   6.156  16.892  0.00  0.00    +0.000 A 
ATOM      6  C   UNL     1       5.616   6.403  17.555  0.00  0.00    +0.000 A 
ENDROOT
BRANCH   1   7
ATOM      7  C   UNL     1       3.181   5.908  18.115  0.00  0.00    +0.000 C 
ATOM      8  C   UNL     1       2.802   7.393  17.918  0.00  0.00    +0.000 C 
ATOM      9  C   UNL     1       3.340   5.660  19.636  0.00  0.00    +0.000 C 
BRANCH   7  10
ATOM     10  C   UNL     1       2.051   4.981  17.581  0.00  0.00    +0.000 C 
BRANCH  10  11
ATOM     11  C   UNL     1       1.667   3.893  18.580  0.00  0.00    +0.000 C 
BRANCH  11  12
ATOM     12  C   UNL     1       2.035   2.514  18.078  0.00  0.00    +0.000 C 
BRANCH  12  13
ATOM     13  C   UNL     1       2.192   1.592  19.279  0.00  0.00    +0.000 C 
BRANCH  13  15
ATOM     14  C   UNL     1       4.331   2.171  20.415  0.00  0.00    +0.000 C 
ATOM     15  C   UNL     1       2.826   2.341  20.436  0.00  0.00    +0.000 C 
ENDBRANCH  13  15
ENDBRANCH  12  13
ENDBRANCH  11  12
ENDBRANCH  10  11
ENDBRANCH   7  10
ENDBRANCH   1   7
BRANCH   3  16
ATOM     16  O   UNL     1       5.897   3.153  15.032  0.00  0.00    +0.000 OA
ATOM     17  H   UNL     1       5.007   2.765  14.953  0.00  0.00    +0.000 HD
ENDBRANCH   3  16
BRANCH   5  18
ATOM     18  O   UNL     1       7.943   6.935  17.030  0.00  0.00    +0.000 OA
BRANCH  18  19
ATOM     19  C   UNL     1       7.985   7.750  18.211  0.00  0.00    +0.000 C 
BRANCH  19  20
ATOM     20  C   UNL     1       8.171   9.210  17.832  0.00  0.00    +0.000 C 
BRANCH  20  21
ATOM     21  C   UNL     1       9.158   9.901  18.772  0.00  0.00    +0.000 C 
BRANCH  21  22
ATOM     22  C   UNL     1       9.267  11.383  18.446  0.00  0.00    +0.000 C 
BRANCH  22  23
ATOM     23  C   UNL     1      10.716  11.862  18.518  0.00  0.00    +0.000 C 
BRANCH  23  24
ATOM     24  C   UNL     1      11.183  11.898  19.966  0.00  0.00    +0.000 C 
BRANCH  24  25
ATOM     25  C   UNL     1      10.421  12.927  20.797  0.00  0.00    +0.000 C 
BRANCH  25  26
ATOM     26  C   UNL     1      10.276  14.221  20.026  0.00  0.00    +0.000 C 
ATOM     27  O   UNL     1       9.188  14.729  19.744  0.00  0.00    +0.000 OA
ATOM     28  N   UNL     1      11.463  14.798  19.650  0.00  0.00    +0.000 N 
ATOM     29  H   UNL     1      12.342  14.338  19.861  0.00  0.00    +0.000 HD
BRANCH  28  30
ATOM     30  C   UNL     1      11.468  16.047  18.884  0.00  0.00    +0.000 C 
BRANCH  30  31
ATOM     31  C   UNL     1      11.204  15.920  17.377  0.00  0.00    +0.000 C 
ATOM     32  F   UNL     1      10.813  14.676  17.015  0.00  0.00    +0.000 F 
ATOM     33  F   UNL     1      10.258  16.791  16.966  0.00  0.00    +0.000 F 
ATOM     34  F   UNL     1      12.333  16.190  16.672  0.00  0.00    +0.000 F 
ENDBRANCH  30  31
ENDBRANCH  28  30
ENDBRANCH  25  26
ENDBRANCH  24  25
ENDBRANCH  23  24
ENDBRANCH  22  23
ENDBRANCH  21  22
ENDBRANCH  20  21
ENDBRANCH  19  20
ENDBRANCH  18  19
ENDBRANCH   5  18
TORSDOF 18
ENDMDL
MODEL 6
REMARK VINA RESULT:      -6.5      5.198      9.355
REMARK  Name = 
REMARK  21 active torsions:
REMARK  status: ('A' for Active; 'I' for Inactive)
REMARK    1  A    between atoms: C_1  and  C_2
REMARK    2  A    between atoms: C_2  and  C_3
REMARK    3  A    between atoms: C_3  and  C_4
REMARK    4  A    between atoms: C_4  and  C_5
REMARK    5  A    between atoms: C_5  and  C_6
REMARK    6  A    between atoms: C_6  and  C_7
REMARK    7  A    between atoms: C_7  and  C_8
REMARK    8  A    between atoms: C_7  and  C_9
REMARK    9  A    between atoms: C_7  and  C_10
REMARK   10  A    between atoms: C_12  and  O_13
REMARK   11  A    between atoms: C_15  and  O_16
REMARK   12  A    between atoms: O_16  and  C_17
REMARK   13  A    between atoms: C_17  and  C_18
REMARK   14  A    between atoms: C_18  and  C_19
REMARK   15  A    between atoms: C_19  and  C_20
REMARK   16  A    between atoms: C_20  and  C_21
REMARK   17  A    between atoms: C_21  and  C_22
REMARK   18  A    between atoms: C_22  and  C_23
REMARK   19  A    between atoms: C_23  and  C_24
REMARK   20  A    between atoms: N_26  and  C_27
REMARK   21  A    between atoms: C_27  and  C_28
REMARK                            x       y       z     vdW  Elec       q    Type
REMARK                         _______ _______ _______ _____ _____    ______ ____
ROOT
ATOM      1  C   UNL     1       2.968   6.862  18.583  0.00  0.00    +0.000 A 
ATOM      2  C   UNL     1       2.769   7.966  17.740  0.00  0.00    +0.000 A 
ATOM      3  C   UNL     1       1.978   9.025  18.148  0.00  0.00    +0.000 A 
ATOM      4  C   UNL     1       1.362   9.025  19.402  0.00  0.00    +0.000 A 
ATOM      5  C   UNL     1       1.565   7.954  20.273  0.00  0.00    +0.000 A 
ATOM      6  C   UNL     1       2.378   6.890  19.849  0.00  0.00    +0.000 A 
ENDROOT
BRANCH   1   7
ATOM      7  C   UNL     1       3.852   5.677  18.162  0.00  0.00    +0.000 C 
ATOM      8  C   UNL     1       4.982   6.173  17.232  0.00  0.00    +0.000 C 
ATOM      9  C   UNL     1       3.032   4.619  17.384  0.00  0.00    +0.000 C 
BRANCH   7  10
ATOM     10  C   UNL     1       4.447   5.003  19.432  0.00  0.00    +0.000 C 
BRANCH  10  11
ATOM     11  C   UNL     1       4.127   3.513  19.506  0.00  0.00    +0.000 C 
BRANCH  11  12
ATOM     12  C   UNL     1       3.486   3.141  20.826  0.00  0.00    +0.000 C 
BRANCH  12  13
ATOM     13  C   UNL     1       1.980   3.314  20.693  0.00  0.00    +0.000 C 
BRANCH  13  15
ATOM     14  C   UNL     1       0.526   2.660  18.780  0.00  0.00    +0.000 C 
ATOM     15  C   UNL     1       1.384   2.152  19.921  0.00  0.00    +0.000 C 
ENDBRANCH  13  15
ENDBRANCH  12  13
ENDBRANCH  11  12
ENDBRANCH  10  11
ENDBRANCH   7  10
ENDBRANCH   1   7
BRANCH   3  16
ATOM     16  O   UNL     1       1.776  10.087  17.316  0.00  0.00    +0.000 OA
ATOM     17  H   UNL     1       1.692  10.879  17.876  0.00  0.00    +0.000 HD
ENDBRANCH   3  16
BRANCH   5  18
ATOM     18  O   UNL     1       0.950   8.001  21.492  0.00  0.00    +0.000 OA
BRANCH  18  19
ATOM     19  C   UNL     1       1.076   9.242  22.202  0.00  0.00    +0.000 C 
BRANCH  19  20
ATOM     20  C   UNL     1      -0.193   9.527  22.987  0.00  0.00    +0.000 C 
BRANCH  20  21
ATOM     21  C   UNL     1      -0.683  10.954  22.743  0.00  0.00    +0.000 C 
BRANCH  21  22
ATOM     22  C   UNL     1      -1.056  11.154  21.281  0.00  0.00    +0.000 C 
BRANCH  22  23
ATOM     23  C   UNL     1      -0.317  12.348  20.678  0.00  0.00    +0.000 C 
BRANCH  23  24
ATOM     24  C   UNL     1      -0.358  12.275  19.158  0.00  0.00    +0.000 C 
BRANCH  24  25
ATOM     25  C   UNL     1       0.132  13.562  18.502  0.00  0.00    +0.000 C 
BRANCH  25  26
ATOM     26  C   UNL     1       1.645  13.593  18.471  0.00  0.00    +0.000 C 
ATOM     27  O   UNL     1       2.337  12.671  18.030  0.00  0.00    +0.000 OA
ATOM     28  N   UNL     1       2.204  14.737  18.981  0.00  0.00    +0.000 N 
ATOM     29  H   UNL     1       1.612  15.462  19.372  0.00  0.00    +0.000 HD
BRANCH  28  30
ATOM     30  C   UNL     1       3.660  14.892  19.026  0.00  0.00    +0.000 C 
BRANCH  30  31
ATOM     31  C   UNL     1       4.302  15.629  17.841  0.00  0.00    +0.000 C 
ATOM     32  F   UNL     1       4.691  16.887  18.153  0.00  0.00    +0.000 F 
ATOM     33  F   UNL     1       5.379  14.964  17.373  0.00  0.00    +0.000 F 
ATOM     34  F   UNL     1       3.419  15.740  16.816  0.00  0.00    +0.000 F 
ENDBRANCH  30  31
ENDBRANCH  28  30
ENDBRANCH  25  26
ENDBRANCH  24  25
ENDBRANCH  23  24
ENDBRANCH  22  23
ENDBRANCH  21  22
ENDBRANCH  20  21
ENDBRANCH  19  20
ENDBRANCH  18  19
ENDBRANCH   5  18
TORSDOF 18
ENDMDL
MODEL 7
REMARK VINA RESULT:      -6.5      7.624     11.200
REMARK  Name = 
REMARK  21 active torsions:
REMARK  status: ('A' for Active; 'I' for Inactive)
REMARK    1  A    between atoms: C_1  and  C_2
REMARK    2  A    between atoms: C_2  and  C_3
REMARK    3  A    between atoms: C_3  and  C_4
REMARK    4  A    between atoms: C_4  and  C_5
REMARK    5  A    between atoms: C_5  and  C_6
REMARK    6  A    between atoms: C_6  and  C_7
REMARK    7  A    between atoms: C_7  and  C_8
REMARK    8  A    between atoms: C_7  and  C_9
REMARK    9  A    between atoms: C_7  and  C_10
REMARK   10  A    between atoms: C_12  and  O_13
REMARK   11  A    between atoms: C_15  and  O_16
REMARK   12  A    between atoms: O_16  and  C_17
REMARK   13  A    between atoms: C_17  and  C_18
REMARK   14  A    between atoms: C_18  and  C_19
REMARK   15  A    between atoms: C_19  and  C_20
REMARK   16  A    between atoms: C_20  and  C_21
REMARK   17  A    between atoms: C_21  and  C_22
REMARK   18  A    between atoms: C_22  and  C_23
REMARK   19  A    between atoms: C_23  and  C_24
REMARK   20  A    between atoms: N_26  and  C_27
REMARK   21  A    between atoms: C_27  and  C_28
REMARK                            x       y       z     vdW  Elec       q    Type
REMARK                         _______ _______ _______ _____ _____    ______ ____
ROOT
ATOM      1  C   UNL     1       6.134   5.764  17.575  0.00  0.00    +0.000 A 
ATOM      2  C   UNL     1       6.822   5.126  18.618  0.00  0.00    +0.000 A 
ATOM      3  C   UNL     1       7.880   5.756  19.248  0.00  0.00    +0.000 A 
ATOM      4  C   UNL     1       8.287   7.038  18.866  0.00  0.00    +0.000 A 
ATOM      5  C   UNL     1       7.604   7.709  17.852  0.00  0.00    +0.000 A 
ATOM      6  C   UNL     1       6.526   7.060  17.227  0.00  0.00    +0.000 A 
ENDROOT
BRANCH   1   7
ATOM      7  C   UNL     1       4.946   5.094  16.866  0.00  0.00    +0.000 C 
ATOM      8  C   UNL     1       3.623   5.729  17.350  0.00  0.00    +0.000 C 
ATOM      9  C   UNL     1       4.887   3.580  17.188  0.00  0.00    +0.000 C 
BRANCH   7  10
ATOM     10  C   UNL     1       5.102   5.264  15.327  0.00  0.00    +0.000 C 
BRANCH  10  11
ATOM     11  C   UNL     1       5.857   4.103  14.686  0.00  0.00    +0.000 C 
BRANCH  11  12
ATOM     12  C   UNL     1       6.964   4.588  13.774  0.00  0.00    +0.000 C 
BRANCH  12  13
ATOM     13  C   UNL     1       6.718   4.027  12.381  0.00  0.00    +0.000 C 
BRANCH  13  15
ATOM     14  C   UNL     1       4.500   3.471  11.395  0.00  0.00    +0.000 C 
ATOM     15  C   UNL     1       5.551   3.057  12.404  0.00  0.00    +0.000 C 
ENDBRANCH  13  15
ENDBRANCH  12  13
ENDBRANCH  11  12
ENDBRANCH  10  11
ENDBRANCH   7  10
ENDBRANCH   1   7
BRANCH   3  16
ATOM     16  O   UNL     1       8.555   5.122  20.250  0.00  0.00    +0.000 OA
ATOM     17  H   UNL     1       7.926   4.991  20.982  0.00  0.00    +0.000 HD
ENDBRANCH   3  16
BRANCH   5  18
ATOM     18  O   UNL     1       8.032   8.962  17.518  0.00  0.00    +0.000 OA
BRANCH  18  19
ATOM     19  C   UNL     1       8.998   9.543  18.407  0.00  0.00    +0.000 C 
BRANCH  19  20
ATOM     20  C   UNL     1       8.668  11.006  18.653  0.00  0.00    +0.000 C 
BRANCH  20  21
ATOM     21  C   UNL     1       9.540  11.919  17.791  0.00  0.00    +0.000 C 
BRANCH  21  22
ATOM     22  C   UNL     1      10.901  12.132  18.437  0.00  0.00    +0.000 C 
BRANCH  22  23
ATOM     23  C   UNL     1      11.913  12.679  17.431  0.00  0.00    +0.000 C 
BRANCH  23  24
ATOM     24  C   UNL     1      11.384  13.962  16.803  0.00  0.00    +0.000 C 
BRANCH  24  25
ATOM     25  C   UNL     1      11.668  15.190  17.662  0.00  0.00    +0.000 C 
BRANCH  25  26
ATOM     26  C   UNL     1      10.373  15.789  18.167  0.00  0.00    +0.000 C 
ATOM     27  O   UNL     1      10.308  16.567  19.122  0.00  0.00    +0.000 OA
ATOM     28  N   UNL     1       9.255  15.396  17.476  0.00  0.00    +0.000 N 
ATOM     29  H   UNL     1       9.333  14.725  16.720  0.00  0.00    +0.000 HD
BRANCH  28  30
ATOM     30  C   UNL     1       7.932  15.889  17.869  0.00  0.00    +0.000 C 
BRANCH  30  31
ATOM     31  C   UNL     1       7.272  15.185  19.064  0.00  0.00    +0.000 C 
ATOM     32  F   UNL     1       6.085  14.618  18.750  0.00  0.00    +0.000 F 
ATOM     33  F   UNL     1       8.072  14.224  19.572  0.00  0.00    +0.000 F 
ATOM     34  F   UNL     1       7.025  16.073  20.061  0.00  0.00    +0.000 F 
ENDBRANCH  30  31
ENDBRANCH  28  30
ENDBRANCH  25  26
ENDBRANCH  24  25
ENDBRANCH  23  24
ENDBRANCH  22  23
ENDBRANCH  21  22
ENDBRANCH  20  21
ENDBRANCH  19  20
ENDBRANCH  18  19
ENDBRANCH   5  18
TORSDOF 18
ENDMDL
MODEL 8
REMARK VINA RESULT:      -6.5      3.347      4.984
REMARK  Name = 
REMARK  21 active torsions:
REMARK  status: ('A' for Active; 'I' for Inactive)
REMARK    1  A    between atoms: C_1  and  C_2
REMARK    2  A    between atoms: C_2  and  C_3
REMARK    3  A    between atoms: C_3  and  C_4
REMARK    4  A    between atoms: C_4  and  C_5
REMARK    5  A    between atoms: C_5  and  C_6
REMARK    6  A    between atoms: C_6  and  C_7
REMARK    7  A    between atoms: C_7  and  C_8
REMARK    8  A    between atoms: C_7  and  C_9
REMARK    9  A    between atoms: C_7  and  C_10
REMARK   10  A    between atoms: C_12  and  O_13
REMARK   11  A    between atoms: C_15  and  O_16
REMARK   12  A    between atoms: O_16  and  C_17
REMARK   13  A    between atoms: C_17  and  C_18
REMARK   14  A    between atoms: C_18  and  C_19
REMARK   15  A    between atoms: C_19  and  C_20
REMARK   16  A    between atoms: C_20  and  C_21
REMARK   17  A    between atoms: C_21  and  C_22
REMARK   18  A    between atoms: C_22  and  C_23
REMARK   19  A    between atoms: C_23  and  C_24
REMARK   20  A    between atoms: N_26  and  C_27
REMARK   21  A    between atoms: C_27  and  C_28
REMARK                            x       y       z     vdW  Elec       q    Type
REMARK                         _______ _______ _______ _____ _____    ______ ____
ROOT
ATOM      1  C   UNL     1       0.339  10.524  20.306  0.00  0.00    +0.000 A 
ATOM      2  C   UNL     1       0.853  10.748  19.020  0.00  0.00    +0.000 A 
ATOM      3  C   UNL     1       1.592   9.769  18.381  0.00  0.00    +0.000 A 
ATOM      4  C   UNL     1       1.842   8.538  18.995  0.00  0.00    +0.000 A 
ATOM      5  C   UNL     1       1.319   8.276  20.261  0.00  0.00    +0.000 A 
ATOM      6  C   UNL     1       0.564   9.277  20.894  0.00  0.00    +0.000 A 
ENDROOT
BRANCH   1   7
ATOM      7  C   UNL     1      -0.497  11.588  21.035  0.00  0.00    +0.000 C 
ATOM      8  C   UNL     1      -0.598  11.235  22.536  0.00  0.00    +0.000 C 
ATOM      9  C   UNL     1      -1.937  11.650  20.468  0.00  0.00    +0.000 C 
BRANCH   7  10
ATOM     10  C   UNL     1       0.168  12.983  20.846  0.00  0.00    +0.000 C 
BRANCH  10  11
ATOM     11  C   UNL     1      -0.723  13.953  20.074  0.00  0.00    +0.000 C 
BRANCH  11  12
ATOM     12  C   UNL     1       0.059  14.721  19.030  0.00  0.00    +0.000 C 
BRANCH  12  13
ATOM     13  C   UNL     1      -0.131  16.209  19.289  0.00  0.00    +0.000 C 
BRANCH  13  15
ATOM     14  C   UNL     1       1.058  18.366  18.920  0.00  0.00    +0.000 C 
ATOM     15  C   UNL     1       0.704  17.022  18.317  0.00  0.00    +0.000 C 
ENDBRANCH  13  15
ENDBRANCH  12  13
ENDBRANCH  11  12
ENDBRANCH  10  11
ENDBRANCH   7  10
ENDBRANCH   1   7
BRANCH   3  16
ATOM     16  O   UNL     1       2.104  10.000  17.138  0.00  0.00    +0.000 OA
ATOM     17  H   UNL     1       2.202  10.964  17.042  0.00  0.00    +0.000 HD
ENDBRANCH   3  16
BRANCH   5  18
ATOM     18  O   UNL     1       1.582   7.056  20.818  0.00  0.00    +0.000 OA
BRANCH  18  19
ATOM     19  C   UNL     1       2.268   6.123  19.969  0.00  0.00    +0.000 C 
BRANCH  19  20
ATOM     20  C   UNL     1       2.433   4.792  20.682  0.00  0.00    +0.000 C 
BRANCH  20  21
ATOM     21  C   UNL     1       1.111   4.025  20.728  0.00  0.00    +0.000 C 
BRANCH  21  22
ATOM     22  C   UNL     1       0.831   3.353  19.391  0.00  0.00    +0.000 C 
BRANCH  22  23
ATOM     23  C   UNL     1       1.830   2.231  19.115  0.00  0.00    +0.000 C 
BRANCH  23  24
ATOM     24  C   UNL     1       2.436   2.399  17.728  0.00  0.00    +0.000 C 
BRANCH  24  25
ATOM     25  C   UNL     1       3.961   2.362  17.752  0.00  0.00    +0.000 C 
BRANCH  25  26
ATOM     26  C   UNL     1       4.518   3.763  17.888  0.00  0.00    +0.000 C 
ATOM     27  O   UNL     1       4.108   4.727  17.237  0.00  0.00    +0.000 OA
ATOM     28  N   UNL     1       5.535   3.886  18.801  0.00  0.00    +0.000 N 
ATOM     29  H   UNL     1       5.879   3.070  19.294  0.00  0.00    +0.000 HD
BRANCH  28  30
ATOM     30  C   UNL     1       6.177   5.185  19.021  0.00  0.00    +0.000 C 
BRANCH  30  31
ATOM     31  C   UNL     1       7.440   5.467  18.194  0.00  0.00    +0.000 C 
ATOM     32  F   UNL     1       7.163   5.945  16.959  0.00  0.00    +0.000 F 
ATOM     33  F   UNL     1       8.246   6.354  18.814  0.00  0.00    +0.000 F 
ATOM     34  F   UNL     1       8.155   4.327  18.016  0.00  0.00    +0.000 F 
ENDBRANCH  30  31
ENDBRANCH  28  30
ENDBRANCH  25  26
ENDBRANCH  24  25
ENDBRANCH  23  24
ENDBRANCH  22  23
ENDBRANCH  21  22
ENDBRANCH  20  21
ENDBRANCH  19  20
ENDBRANCH  18  19
ENDBRANCH   5  18
TORSDOF 18
ENDMDL
MODEL 9
REMARK VINA RESULT:      -6.5      3.873      8.922
REMARK  Name = 
REMARK  21 active torsions:
REMARK  status: ('A' for Active; 'I' for Inactive)
REMARK    1  A    between atoms: C_1  and  C_2
REMARK    2  A    between atoms: C_2  and  C_3
REMARK    3  A    between atoms: C_3  and  C_4
REMARK    4  A    between atoms: C_4  and  C_5
REMARK    5  A    between atoms: C_5  and  C_6
REMARK    6  A    between atoms: C_6  and  C_7
REMARK    7  A    between atoms: C_7  and  C_8
REMARK    8  A    between atoms: C_7  and  C_9
REMARK    9  A    between atoms: C_7  and  C_10
REMARK   10  A    between atoms: C_12  and  O_13
REMARK   11  A    between atoms: C_15  and  O_16
REMARK   12  A    between atoms: O_16  and  C_17
REMARK   13  A    between atoms: C_17  and  C_18
REMARK   14  A    between atoms: C_18  and  C_19
REMARK   15  A    between atoms: C_19  and  C_20
REMARK   16  A    between atoms: C_20  and  C_21
REMARK   17  A    between atoms: C_21  and  C_22
REMARK   18  A    between atoms: C_22  and  C_23
REMARK   19  A    between atoms: C_23  and  C_24
REMARK   20  A    between atoms: N_26  and  C_27
REMARK   21  A    between atoms: C_27  and  C_28
REMARK                            x       y       z     vdW  Elec       q    Type
REMARK                         _______ _______ _______ _____ _____    ______ ____
ROOT
ATOM      1  C   UNL     1       4.754   4.163  17.365  0.00  0.00    +0.000 A 
ATOM      2  C   UNL     1       5.391   3.496  18.422  0.00  0.00    +0.000 A 
ATOM      3  C   UNL     1       4.686   2.610  19.218  0.00  0.00    +0.000 A 
ATOM      4  C   UNL     1       3.331   2.356  18.989  0.00  0.00    +0.000 A 
ATOM      5  C   UNL     1       2.678   2.982  17.927  0.00  0.00    +0.000 A 
ATOM      6  C   UNL     1       3.408   3.873  17.123  0.00  0.00    +0.000 A 
ENDROOT
BRANCH   1   7
ATOM      7  C   UNL     1       5.514   5.143  16.457  0.00  0.00    +0.000 C 
ATOM      8  C   UNL     1       7.022   5.104  16.793  0.00  0.00    +0.000 C 
ATOM      9  C   UNL     1       5.021   6.596  16.669  0.00  0.00    +0.000 C 
BRANCH   7  10
ATOM     10  C   UNL     1       5.276   4.754  14.968  0.00  0.00    +0.000 C 
BRANCH  10  11
ATOM     11  C   UNL     1       6.318   3.766  14.450  0.00  0.00    +0.000 C 
BRANCH  11  12
ATOM     12  C   UNL     1       6.377   3.755  12.938  0.00  0.00    +0.000 C 
BRANCH  12  13
ATOM     13  C   UNL     1       4.953   3.818  12.403  0.00  0.00    +0.000 C 
BRANCH  13  15
ATOM     14  C   UNL     1       5.886   1.741  11.395  0.00  0.00    +0.000 C 
ATOM     15  C   UNL     1       4.723   2.711  11.390  0.00  0.00    +0.000 C 
ENDBRANCH  13  15
ENDBRANCH  12  13
ENDBRANCH  11  12
ENDBRANCH  10  11
ENDBRANCH   7  10
ENDBRANCH   1   7
BRANCH   3  16
ATOM     16  O   UNL     1       5.308   1.978  20.254  0.00  0.00    +0.000 OA
ATOM     17  H   UNL     1       5.330   2.603  21.001  0.00  0.00    +0.000 HD
ENDBRANCH   3  16
BRANCH   5  18
ATOM     18  O   UNL     1       1.356   2.697  17.736  0.00  0.00    +0.000 OA
BRANCH  18  19
ATOM     19  C   UNL     1       0.454   3.271  18.694  0.00  0.00    +0.000 C 
BRANCH  19  20
ATOM     20  C   UNL     1       1.117   3.339  20.060  0.00  0.00    +0.000 C 
BRANCH  20  21
ATOM     21  C   UNL     1       1.015   4.745  20.651  0.00  0.00    +0.000 C 
BRANCH  21  22
ATOM     22  C   UNL     1       2.124   5.639  20.114  0.00  0.00    +0.000 C 
BRANCH  22  23
ATOM     23  C   UNL     1       1.556   6.913  19.492  0.00  0.00    +0.000 C 
BRANCH  23  24
ATOM     24  C   UNL     1       2.670   7.711  18.826  0.00  0.00    +0.000 C 
BRANCH  24  25
ATOM     25  C   UNL     1       2.144   8.656  17.751  0.00  0.00    +0.000 C 
BRANCH  25  26
ATOM     26  C   UNL     1       1.094   9.580  18.330  0.00  0.00    +0.000 C 
ATOM     27  O   UNL     1       1.254  10.228  19.368  0.00  0.00    +0.000 OA
ATOM     28  N   UNL     1      -0.071   9.642  17.609  0.00  0.00    +0.000 N 
ATOM     29  H   UNL     1      -0.190   9.068  16.782  0.00  0.00    +0.000 HD
BRANCH  28  30
ATOM     30  C   UNL     1      -1.179  10.486  18.066  0.00  0.00    +0.000 C 
BRANCH  30  31
ATOM     31  C   UNL     1      -2.512  10.317  17.323  0.00  0.00    +0.000 C 
ATOM     32  F   UNL     1      -3.312  11.404  17.425  0.00  0.00    +0.000 F 
ATOM     33  F   UNL     1      -2.317  10.064  16.012  0.00  0.00    +0.000 F 
ATOM     34  F   UNL     1      -3.212   9.273  17.836  0.00  0.00    +0.000 F 
ENDBRANCH  30  31
ENDBRANCH  28  30
ENDBRANCH  25  26
ENDBRANCH  24  25
ENDBRANCH  23  24
ENDBRANCH  22  23
ENDBRANCH  21  22
ENDBRANCH  20  21
ENDBRANCH  19  20
ENDBRANCH  18  19
ENDBRANCH   5  18
TORSDOF 18
ENDMDL
