MODEL 1
REMARK VINA RESULT:      -7.9      0.000      0.000
REMARK  Name = 
REMARK  6 active torsions:
REMARK  status: ('A' for Active; 'I' for Inactive)
REMARK    1  A    between atoms: C_1  and  O_2
REMARK    2  A    between atoms: O_2  and  C_3
REMARK    3  A    between atoms: C_6  and  C_7
REMARK    4  A    between atoms: C_8  and  C_9
REMARK    5  A    between atoms: C_9  and  N_10
REMARK    6  A    between atoms: N_16  and  C_17
REMARK                            x       y       z     vdW  Elec       q    Type
REMARK                         _______ _______ _______ _____ _____    ______ ____
ROOT
ATOM      1  C   UNL     1       7.123   7.264  17.703  0.00  0.00    +0.000 C 
ENDROOT
BRANCH   1   2
ATOM      2  N   UNL     1       7.373   5.875  18.069  0.00  0.00    +0.000 NA
ATOM      3  C   UNL     1       7.318   4.944  16.939  0.00  0.00    +0.000 C 
ATOM      4  C   UNL     1       5.981   4.216  16.981  0.00  0.00    +0.000 C 
ATOM      5  C   UNL     1       5.367   4.533  18.339  0.00  0.00    +0.000 C 
ATOM      6  C   UNL     1       6.417   5.374  19.068  0.00  0.00    +0.000 C 
ATOM      7  C   UNL     1       3.988   5.165  18.232  0.00  0.00    +0.000 C 
ATOM      8  N   UNL     1       3.313   4.618  19.371  0.00  0.00    +0.000 N 
ATOM      9  C   UNL     1       1.889   4.774  19.567  0.00  0.00    +0.000 C 
ATOM     10  C   UNL     1       3.959   3.470  19.780  0.00  0.00    +0.000 C 
ATOM     11  O   UNL     1       3.546   2.657  20.589  0.00  0.00    +0.000 OA
ATOM     12  O   UNL     1       5.129   3.326  19.085  0.00  0.00    +0.000 OA
ENDBRANCH   1   2
BRANCH   1  14
ATOM     13  C   UNL     1       8.218   9.508  17.995  0.00  0.00    +0.000 C 
ATOM     14  C   UNL     1       8.267   8.167  18.065  0.00  0.00    +0.000 C 
BRANCH  13  18
ATOM     15  C   UNL     1      10.938  12.335  19.707  0.00  0.00    +0.000 A 
ATOM     16  C   UNL     1      10.918  12.123  18.328  0.00  0.00    +0.000 A 
ATOM     17  C   UNL     1      10.059  11.170  17.764  0.00  0.00    +0.000 A 
ATOM     18  C   UNL     1       9.233  10.394  18.581  0.00  0.00    +0.000 A 
ATOM     19  C   UNL     1       9.290  10.591  19.969  0.00  0.00    +0.000 A 
ATOM     20  C   UNL     1      10.139  11.545  20.529  0.00  0.00    +0.000 A 
BRANCH  15  22
ATOM     21  C   UNL     1      11.735  14.539  19.413  0.00  0.00    +0.000 C 
ATOM     22  O   UNL     1      11.781  13.319  20.150  0.00  0.00    +0.000 OA
ENDBRANCH  15  22
ENDBRANCH  13  18
ENDBRANCH   1  14
TORSDOF 4
ENDMDL
MODEL 2
REMARK VINA RESULT:      -7.8      1.703      2.070
REMARK  Name = 
REMARK  6 active torsions:
REMARK  status: ('A' for Active; 'I' for Inactive)
REMARK    1  A    between atoms: C_1  and  O_2
REMARK    2  A    between atoms: O_2  and  C_3
REMARK    3  A    between atoms: C_6  and  C_7
REMARK    4  A    between atoms: C_8  and  C_9
REMARK    5  A    between atoms: C_9  and  N_10
REMARK    6  A    between atoms: N_16  and  C_17
REMARK                            x       y       z     vdW  Elec       q    Type
REMARK                         _______ _______ _______ _____ _____    ______ ____
ROOT
ATOM      1  C   UNL     1       7.457   6.540  17.299  0.00  0.00    +0.000 C 
ENDROOT
BRANCH   1   2
ATOM      2  N   UNL     1       6.249   6.278  16.525  0.00  0.00    +0.000 NA
ATOM      3  C   UNL     1       5.140   7.184  16.833  0.00  0.00    +0.000 C 
ATOM      4  C   UNL     1       4.153   6.448  17.728  0.00  0.00    +0.000 C 
ATOM      5  C   UNL     1       4.567   4.982  17.702  0.00  0.00    +0.000 C 
ATOM      6  C   UNL     1       5.739   4.913  16.720  0.00  0.00    +0.000 C 
ATOM      7  C   UNL     1       4.845   4.420  19.087  0.00  0.00    +0.000 C 
ATOM      8  N   UNL     1       4.379   3.071  18.969  0.00  0.00    +0.000 N 
ATOM      9  C   UNL     1       4.246   2.202  20.116  0.00  0.00    +0.000 C 
ATOM     10  C   UNL     1       3.497   2.981  17.911  0.00  0.00    +0.000 C 
ATOM     11  O   UNL     1       2.774   2.035  17.651  0.00  0.00    +0.000 OA
ATOM     12  O   UNL     1       3.493   4.158  17.212  0.00  0.00    +0.000 OA
ENDBRANCH   1   2
BRANCH   1  14
ATOM     13  C   UNL     1       8.403   8.516  18.533  0.00  0.00    +0.000 C 
ATOM     14  C   UNL     1       7.697   8.008  17.507  0.00  0.00    +0.000 C 
BRANCH  13  18
ATOM     15  C   UNL     1       9.427  12.654  18.926  0.00  0.00    +0.000 A 
ATOM     16  C   UNL     1       8.735  12.204  17.801  0.00  0.00    +0.000 A 
ATOM     17  C   UNL     1       8.431  10.844  17.645  0.00  0.00    +0.000 A 
ATOM     18  C   UNL     1       8.850   9.915  18.602  0.00  0.00    +0.000 A 
ATOM     19  C   UNL     1       9.578  10.376  19.709  0.00  0.00    +0.000 A 
ATOM     20  C   UNL     1       9.872  11.729  19.867  0.00  0.00    +0.000 A 
BRANCH  15  22
ATOM     21  C   UNL     1      10.237  14.595  17.852  0.00  0.00    +0.000 C 
ATOM     22  O   UNL     1       9.634  14.005  19.001  0.00  0.00    +0.000 OA
ENDBRANCH  15  22
ENDBRANCH  13  18
ENDBRANCH   1  14
TORSDOF 4
ENDMDL
MODEL 3
REMARK VINA RESULT:      -7.6      1.683      2.231
REMARK  Name = 
REMARK  6 active torsions:
REMARK  status: ('A' for Active; 'I' for Inactive)
REMARK    1  A    between atoms: C_1  and  O_2
REMARK    2  A    between atoms: O_2  and  C_3
REMARK    3  A    between atoms: C_6  and  C_7
REMARK    4  A    between atoms: C_8  and  C_9
REMARK    5  A    between atoms: C_9  and  N_10
REMARK    6  A    between atoms: N_16  and  C_17
REMARK                            x       y       z     vdW  Elec       q    Type
REMARK                         _______ _______ _______ _____ _____    ______ ____
ROOT
ATOM      1  C   UNL     1       7.461   6.595  17.253  0.00  0.00    +0.000 C 
ENDROOT
BRANCH   1   2
ATOM      2  N   UNL     1       6.252   6.322  16.484  0.00  0.00    +0.000 NA
ATOM      3  C   UNL     1       5.137   7.221  16.794  0.00  0.00    +0.000 C 
ATOM      4  C   UNL     1       4.159   6.481  17.695  0.00  0.00    +0.000 C 
ATOM      5  C   UNL     1       4.584   5.018  17.672  0.00  0.00    +0.000 C 
ATOM      6  C   UNL     1       5.753   4.954  16.686  0.00  0.00    +0.000 C 
ATOM      7  C   UNL     1       4.871   4.462  19.058  0.00  0.00    +0.000 C 
ATOM      8  N   UNL     1       4.415   3.110  18.946  0.00  0.00    +0.000 N 
ATOM      9  C   UNL     1       4.293   2.243  20.096  0.00  0.00    +0.000 C 
ATOM     10  C   UNL     1       3.530   3.009  17.892  0.00  0.00    +0.000 C 
ATOM     11  O   UNL     1       2.813   2.057  17.637  0.00  0.00    +0.000 OA
ATOM     12  O   UNL     1       3.515   4.184  17.189  0.00  0.00    +0.000 OA
ENDBRANCH   1   2
BRANCH   1  14
ATOM     13  C   UNL     1       8.514   8.523  18.477  0.00  0.00    +0.000 C 
ATOM     14  C   UNL     1       7.582   8.042  17.636  0.00  0.00    +0.000 C 
BRANCH  13  18
ATOM     15  C   UNL     1       9.606  12.649  18.808  0.00  0.00    +0.000 A 
ATOM     16  C   UNL     1       9.947  11.746  19.818  0.00  0.00    +0.000 A 
ATOM     17  C   UNL     1       9.558  10.402  19.736  0.00  0.00    +0.000 A 
ATOM     18  C   UNL     1       8.792   9.955  18.656  0.00  0.00    +0.000 A 
ATOM     19  C   UNL     1       8.425  10.880  17.667  0.00  0.00    +0.000 A 
ATOM     20  C   UNL     1       8.819  12.215  17.745  0.00  0.00    +0.000 A 
BRANCH  15  22
ATOM     21  C   UNL     1       9.389  14.710  19.940  0.00  0.00    +0.000 C 
ATOM     22  O   UNL     1      10.073  13.926  18.965  0.00  0.00    +0.000 OA
ENDBRANCH  15  22
ENDBRANCH  13  18
ENDBRANCH   1  14
TORSDOF 4
ENDMDL
MODEL 4
REMARK VINA RESULT:      -7.6      5.602      6.613
REMARK  Name = 
REMARK  6 active torsions:
REMARK  status: ('A' for Active; 'I' for Inactive)
REMARK    1  A    between atoms: C_1  and  O_2
REMARK    2  A    between atoms: O_2  and  C_3
REMARK    3  A    between atoms: C_6  and  C_7
REMARK    4  A    between atoms: C_8  and  C_9
REMARK    5  A    between atoms: C_9  and  N_10
REMARK    6  A    between atoms: N_16  and  C_17
REMARK                            x       y       z     vdW  Elec       q    Type
REMARK                         _______ _______ _______ _____ _____    ______ ____
ROOT
ATOM      1  C   UNL     1       4.748   6.420  16.634  0.00  0.00    +0.000 C 
ENDROOT
BRANCH   1   2
ATOM      2  N   UNL     1       5.399   5.257  17.226  0.00  0.00    +0.000 NA
ATOM      3  C   UNL     1       5.259   4.032  16.435  0.00  0.00    +0.000 C 
ATOM      4  C   UNL     1       4.186   3.164  17.080  0.00  0.00    +0.000 C 
ATOM      5  C   UNL     1       3.903   3.782  18.444  0.00  0.00    +0.000 C 
ATOM      6  C   UNL     1       4.888   4.948  18.570  0.00  0.00    +0.000 C 
ATOM      7  C   UNL     1       2.439   4.145  18.637  0.00  0.00    +0.000 C 
ATOM      8  N   UNL     1       2.239   3.875  20.029  0.00  0.00    +0.000 N 
ATOM      9  C   UNL     1       0.924   3.873  20.629  0.00  0.00    +0.000 C 
ATOM     10  C   UNL     1       3.216   3.010  20.474  0.00  0.00    +0.000 C 
ATOM     11  O   UNL     1       3.234   2.427  21.545  0.00  0.00    +0.000 OA
ATOM     12  O   UNL     1       4.158   2.834  19.496  0.00  0.00    +0.000 OA
ENDBRANCH   1   2
BRANCH   1  14
ATOM     13  C   UNL     1       2.801   7.706  17.572  0.00  0.00    +0.000 C 
ATOM     14  C   UNL     1       4.074   7.284  17.662  0.00  0.00    +0.000 C 
BRANCH  13  18
ATOM     15  C   UNL     1       0.404   9.320  20.730  0.00  0.00    +0.000 A 
ATOM     16  C   UNL     1       0.455   9.956  19.488  0.00  0.00    +0.000 A 
ATOM     17  C   UNL     1       1.269   9.457  18.462  0.00  0.00    +0.000 A 
ATOM     18  C   UNL     1       2.068   8.332  18.681  0.00  0.00    +0.000 A 
ATOM     19  C   UNL     1       2.037   7.725  19.946  0.00  0.00    +0.000 A 
ATOM     20  C   UNL     1       1.221   8.217  20.963  0.00  0.00    +0.000 A 
BRANCH  15  22
ATOM     21  C   UNL     1      -0.251   9.449  22.995  0.00  0.00    +0.000 C 
ATOM     22  O   UNL     1      -0.455   9.864  21.646  0.00  0.00    +0.000 OA
ENDBRANCH  15  22
ENDBRANCH  13  18
ENDBRANCH   1  14
TORSDOF 4
ENDMDL
MODEL 5
REMARK VINA RESULT:      -7.6      0.317      1.047
REMARK  Name = 
REMARK  6 active torsions:
REMARK  status: ('A' for Active; 'I' for Inactive)
REMARK    1  A    between atoms: C_1  and  O_2
REMARK    2  A    between atoms: O_2  and  C_3
REMARK    3  A    between atoms: C_6  and  C_7
REMARK    4  A    between atoms: C_8  and  C_9
REMARK    5  A    between atoms: C_9  and  N_10
REMARK    6  A    between atoms: N_16  and  C_17
REMARK                            x       y       z     vdW  Elec       q    Type
REMARK                         _______ _______ _______ _____ _____    ______ ____
ROOT
ATOM      1  C   UNL     1       7.115   7.192  17.539  0.00  0.00    +0.000 C 
ENDROOT
BRANCH   1   2
ATOM      2  N   UNL     1       7.391   5.844  18.021  0.00  0.00    +0.000 NA
ATOM      3  C   UNL     1       7.436   4.833  16.962  0.00  0.00    +0.000 C 
ATOM      4  C   UNL     1       6.125   4.058  16.981  0.00  0.00    +0.000 C 
ATOM      5  C   UNL     1       5.420   4.447  18.274  0.00  0.00    +0.000 C 
ATOM      6  C   UNL     1       6.395   5.379  18.999  0.00  0.00    +0.000 C 
ATOM      7  C   UNL     1       4.029   5.016  18.043  0.00  0.00    +0.000 C 
ATOM      8  N   UNL     1       3.307   4.527  19.178  0.00  0.00    +0.000 N 
ATOM      9  C   UNL     1       1.869   4.640  19.281  0.00  0.00    +0.000 C 
ATOM     10  C   UNL     1       3.966   3.437  19.708  0.00  0.00    +0.000 C 
ATOM     11  O   UNL     1       3.534   2.669  20.550  0.00  0.00    +0.000 OA
ATOM     12  O   UNL     1       5.180   3.289  19.093  0.00  0.00    +0.000 OA
ENDBRANCH   1   2
BRANCH   1  14
ATOM     13  C   UNL     1       8.100   9.499  17.715  0.00  0.00    +0.000 C 
ATOM     14  C   UNL     1       8.151   8.183  17.986  0.00  0.00    +0.000 C 
BRANCH  13  18
ATOM     15  C   UNL     1      10.891  12.221  19.482  0.00  0.00    +0.000 A 
ATOM     16  C   UNL     1      10.280  11.236  20.259  0.00  0.00    +0.000 A 
ATOM     17  C   UNL     1       9.335  10.367  19.697  0.00  0.00    +0.000 A 
ATOM     18  C   UNL     1       8.966  10.499  18.356  0.00  0.00    +0.000 A 
ATOM     19  C   UNL     1       9.560  11.518  17.596  0.00  0.00    +0.000 A 
ATOM     20  C   UNL     1      10.506  12.377  18.153  0.00  0.00    +0.000 A 
BRANCH  15  22
ATOM     21  C   UNL     1      11.610  14.395  20.062  0.00  0.00    +0.000 C 
ATOM     22  O   UNL     1      11.831  12.988  20.118  0.00  0.00    +0.000 OA
ENDBRANCH  15  22
ENDBRANCH  13  18
ENDBRANCH   1  14
TORSDOF 4
ENDMDL
MODEL 6
REMARK VINA RESULT:      -7.5      5.534      6.534
REMARK  Name = 
REMARK  6 active torsions:
REMARK  status: ('A' for Active; 'I' for Inactive)
REMARK    1  A    between atoms: C_1  and  O_2
REMARK    2  A    between atoms: O_2  and  C_3
REMARK    3  A    between atoms: C_6  and  C_7
REMARK    4  A    between atoms: C_8  and  C_9
REMARK    5  A    between atoms: C_9  and  N_10
REMARK    6  A    between atoms: N_16  and  C_17
REMARK                            x       y       z     vdW  Elec       q    Type
REMARK                         _______ _______ _______ _____ _____    ______ ____
ROOT
ATOM      1  C   UNL     1       4.859   6.426  16.609  0.00  0.00    +0.000 C 
ENDROOT
BRANCH   1   2
ATOM      2  N   UNL     1       5.493   5.248  17.188  0.00  0.00    +0.000 NA
ATOM      3  C   UNL     1       5.339   4.034  16.382  0.00  0.00    +0.000 C 
ATOM      4  C   UNL     1       4.253   3.173  17.014  0.00  0.00    +0.000 C 
ATOM      5  C   UNL     1       3.974   3.779  18.384  0.00  0.00    +0.000 C 
ATOM      6  C   UNL     1       4.974   4.929  18.526  0.00  0.00    +0.000 C 
ATOM      7  C   UNL     1       2.515   4.159  18.577  0.00  0.00    +0.000 C 
ATOM      8  N   UNL     1       2.306   3.874  19.965  0.00  0.00    +0.000 N 
ATOM      9  C   UNL     1       0.989   3.883  20.561  0.00  0.00    +0.000 C 
ATOM     10  C   UNL     1       3.271   2.991  20.403  0.00  0.00    +0.000 C 
ATOM     11  O   UNL     1       3.277   2.395  21.467  0.00  0.00    +0.000 OA
ATOM     12  O   UNL     1       4.213   2.815  19.425  0.00  0.00    +0.000 OA
ENDBRANCH   1   2
BRANCH   1  14
ATOM     13  C   UNL     1       2.899   7.782  17.410  0.00  0.00    +0.000 C 
ATOM     14  C   UNL     1       4.106   7.232  17.628  0.00  0.00    +0.000 C 
BRANCH  13  18
ATOM     15  C   UNL     1       0.711   9.627  20.594  0.00  0.00    +0.000 A 
ATOM     16  C   UNL     1       1.339   8.396  20.791  0.00  0.00    +0.000 A 
ATOM     17  C   UNL     1       2.023   7.766  19.742  0.00  0.00    +0.000 A 
ATOM     18  C   UNL     1       2.056   8.349  18.472  0.00  0.00    +0.000 A 
ATOM     19  C   UNL     1       1.389   9.568  18.278  0.00  0.00    +0.000 A 
ATOM     20  C   UNL     1       0.716  10.198  19.324  0.00  0.00    +0.000 A 
BRANCH  15  22
ATOM     21  C   UNL     1      -0.377   9.239  22.654  0.00  0.00    +0.000 C 
ATOM     22  O   UNL     1       0.110  10.175  21.695  0.00  0.00    +0.000 OA
ENDBRANCH  15  22
ENDBRANCH  13  18
ENDBRANCH   1  14
TORSDOF 4
ENDMDL
MODEL 7
REMARK VINA RESULT:      -7.5      1.759      2.160
REMARK  Name = 
REMARK  6 active torsions:
REMARK  status: ('A' for Active; 'I' for Inactive)
REMARK    1  A    between atoms: C_1  and  O_2
REMARK    2  A    between atoms: O_2  and  C_3
REMARK    3  A    between atoms: C_6  and  C_7
REMARK    4  A    between atoms: C_8  and  C_9
REMARK    5  A    between atoms: C_9  and  N_10
REMARK    6  A    between atoms: N_16  and  C_17
REMARK                            x       y       z     vdW  Elec       q    Type
REMARK                         _______ _______ _______ _____ _____    ______ ____
ROOT
ATOM      1  C   UNL     1       7.663   7.098  17.953  0.00  0.00    +0.000 C 
ENDROOT
BRANCH   1   2
ATOM      2  N   UNL     1       6.761   6.595  16.923  0.00  0.00    +0.000 NA
ATOM      3  C   UNL     1       5.517   7.359  16.800  0.00  0.00    +0.000 C 
ATOM      4  C   UNL     1       4.404   6.577  17.484  0.00  0.00    +0.000 C 
ATOM      5  C   UNL     1       4.967   5.189  17.761  0.00  0.00    +0.000 C 
ATOM      6  C   UNL     1       6.371   5.196  17.150  0.00  0.00    +0.000 C 
ATOM      7  C   UNL     1       4.901   4.806  19.231  0.00  0.00    +0.000 C 
ATOM      8  N   UNL     1       4.639   3.400  19.169  0.00  0.00    +0.000 N 
ATOM      9  C   UNL     1       4.283   2.632  20.340  0.00  0.00    +0.000 C 
ATOM     10  C   UNL     1       4.111   3.085  17.934  0.00  0.00    +0.000 C 
ATOM     11  O   UNL     1       3.600   2.025  17.614  0.00  0.00    +0.000 OA
ATOM     12  O   UNL     1       4.175   4.178  17.112  0.00  0.00    +0.000 OA
ENDBRANCH   1   2
BRANCH   1  14
ATOM     13  C   UNL     1       8.678   9.290  18.651  0.00  0.00    +0.000 C 
ATOM     14  C   UNL     1       8.015   8.543  17.750  0.00  0.00    +0.000 C 
BRANCH  13  18
ATOM     15  C   UNL     1      10.327  13.058  17.464  0.00  0.00    +0.000 A 
ATOM     16  C   UNL     1      11.159  12.043  17.940  0.00  0.00    +0.000 A 
ATOM     17  C   UNL     1      10.623  10.821  18.368  0.00  0.00    +0.000 A 
ATOM     18  C   UNL     1       9.241  10.615  18.357  0.00  0.00    +0.000 A 
ATOM     19  C   UNL     1       8.413  11.657  17.911  0.00  0.00    +0.000 A 
ATOM     20  C   UNL     1       8.948  12.869  17.477  0.00  0.00    +0.000 A 
BRANCH  15  22
ATOM     21  C   UNL     1      10.478  15.411  17.596  0.00  0.00    +0.000 C 
ATOM     22  O   UNL     1      10.956  14.193  17.029  0.00  0.00    +0.000 OA
ENDBRANCH  15  22
ENDBRANCH  13  18
ENDBRANCH   1  14
TORSDOF 4
ENDMDL
MODEL 8
REMARK VINA RESULT:      -7.4      1.576      1.893
REMARK  Name = 
REMARK  6 active torsions:
REMARK  status: ('A' for Active; 'I' for Inactive)
REMARK    1  A    between atoms: C_1  and  O_2
REMARK    2  A    between atoms: O_2  and  C_3
REMARK    3  A    between atoms: C_6  and  C_7
REMARK    4  A    between atoms: C_8  and  C_9
REMARK    5  A    between atoms: C_9  and  N_10
REMARK    6  A    between atoms: N_16  and  C_17
REMARK                            x       y       z     vdW  Elec       q    Type
REMARK                         _______ _______ _______ _____ _____    ______ ____
ROOT
ATOM      1  C   UNL     1       7.891   6.871  18.324  0.00  0.00    +0.000 C 
ENDROOT
BRANCH   1   2
ATOM      2  N   UNL     1       7.345   6.134  17.191  0.00  0.00    +0.000 NA
ATOM      3  C   UNL     1       6.338   6.877  16.429  0.00  0.00    +0.000 C 
ATOM      4  C   UNL     1       4.961   6.360  16.819  0.00  0.00    +0.000 C 
ATOM      5  C   UNL     1       5.197   5.085  17.619  0.00  0.00    +0.000 C 
ATOM      6  C   UNL     1       6.712   4.869  17.593  0.00  0.00    +0.000 C 
ATOM      7  C   UNL     1       4.571   5.131  19.004  0.00  0.00    +0.000 C 
ATOM      8  N   UNL     1       4.157   3.773  19.197  0.00  0.00    +0.000 N 
ATOM      9  C   UNL     1       3.314   3.377  20.302  0.00  0.00    +0.000 C 
ATOM     10  C   UNL     1       4.054   3.145  17.973  0.00  0.00    +0.000 C 
ATOM     11  O   UNL     1       3.547   2.058  17.758  0.00  0.00    +0.000 OA
ATOM     12  O   UNL     1       4.550   3.962  16.993  0.00  0.00    +0.000 OA
ENDBRANCH   1   2
BRANCH   1  14
ATOM     13  C   UNL     1       8.770   9.178  18.801  0.00  0.00    +0.000 C 
ATOM     14  C   UNL     1       8.073   8.331  18.023  0.00  0.00    +0.000 C 
BRANCH  13  18
ATOM     15  C   UNL     1       9.807  13.233  17.906  0.00  0.00    +0.000 A 
ATOM     16  C   UNL     1       8.568  12.721  17.518  0.00  0.00    +0.000 A 
ATOM     17  C   UNL     1       8.237  11.383  17.772  0.00  0.00    +0.000 A 
ATOM     18  C   UNL     1       9.160  10.533  18.387  0.00  0.00    +0.000 A 
ATOM     19  C   UNL     1      10.416  11.051  18.737  0.00  0.00    +0.000 A 
ATOM     20  C   UNL     1      10.741  12.384  18.493  0.00  0.00    +0.000 A 
BRANCH  15  22
ATOM     21  C   UNL     1      10.186  15.386  18.802  0.00  0.00    +0.000 C 
ATOM     22  O   UNL     1      10.012  14.563  17.650  0.00  0.00    +0.000 OA
ENDBRANCH  15  22
ENDBRANCH  13  18
ENDBRANCH   1  14
TORSDOF 4
ENDMDL
MODEL 9
REMARK VINA RESULT:      -7.3      5.710      7.013
REMARK  Name = 
REMARK  6 active torsions:
REMARK  status: ('A' for Active; 'I' for Inactive)
REMARK    1  A    between atoms: C_1  and  O_2
REMARK    2  A    between atoms: O_2  and  C_3
REMARK    3  A    between atoms: C_6  and  C_7
REMARK    4  A    between atoms: C_8  and  C_9
REMARK    5  A    between atoms: C_9  and  N_10
REMARK    6  A    between atoms: N_16  and  C_17
REMARK                            x       y       z     vdW  Elec       q    Type
REMARK                         _______ _______ _______ _____ _____    ______ ____
ROOT
ATOM      1  C   UNL     1       3.848   7.248  16.893  0.00  0.00    +0.000 C 
ENDROOT
BRANCH   1   2
ATOM      2  N   UNL     1       5.023   6.443  17.205  0.00  0.00    +0.000 NA
ATOM      3  C   UNL     1       5.416   5.526  16.132  0.00  0.00    +0.000 C 
ATOM      4  C   UNL     1       4.947   4.126  16.501  0.00  0.00    +0.000 C 
ATOM      5  C   UNL     1       4.522   4.191  17.962  0.00  0.00    +0.000 C 
ATOM      6  C   UNL     1       4.838   5.620  18.410  0.00  0.00    +0.000 C 
ATOM      7  C   UNL     1       3.084   3.745  18.181  0.00  0.00    +0.000 C 
ATOM      8  N   UNL     1       3.157   3.094  19.454  0.00  0.00    +0.000 N 
ATOM      9  C   UNL     1       2.058   2.318  19.983  0.00  0.00    +0.000 C 
ATOM     10  C   UNL     1       4.463   2.732  19.711  0.00  0.00    +0.000 C 
ATOM     11  O   UNL     1       4.848   1.998  20.605  0.00  0.00    +0.000 OA
ATOM     12  O   UNL     1       5.286   3.268  18.758  0.00  0.00    +0.000 OA
ENDBRANCH   1   2
BRANCH   1  14
ATOM     13  C   UNL     1       2.216   8.685  18.156  0.00  0.00    +0.000 C 
ATOM     14  C   UNL     1       3.100   7.673  18.124  0.00  0.00    +0.000 C 
BRANCH  13  18
ATOM     15  C   UNL     1      -0.228   9.681  21.526  0.00  0.00    +0.000 A 
ATOM     16  C   UNL     1       0.728   8.669  21.624  0.00  0.00    +0.000 A 
ATOM     17  C   UNL     1       1.504   8.309  20.514  0.00  0.00    +0.000 A 
ATOM     18  C   UNL     1       1.306   8.938  19.282  0.00  0.00    +0.000 A 
ATOM     19  C   UNL     1       0.316   9.928  19.188  0.00  0.00    +0.000 A 
ATOM     20  C   UNL     1      -0.450  10.291  20.295  0.00  0.00    +0.000 A 
BRANCH  15  22
ATOM     21  C   UNL     1      -1.068  11.375  22.942  0.00  0.00    +0.000 C 
ATOM     22  O   UNL     1      -0.899   9.984  22.680  0.00  0.00    +0.000 OA
ENDBRANCH  15  22
ENDBRANCH  13  18
ENDBRANCH   1  14
TORSDOF 4
ENDMDL
