MODEL 1
REMARK VINA RESULT:      -6.5      0.000      0.000
REMARK  Name = 
REMARK  5 active torsions:
REMARK  status: ('A' for Active; 'I' for Inactive)
REMARK    1  A    between atoms: N_1  and  C_2
REMARK    2  A    between atoms: C_2  and  C_3
REMARK    3  A    between atoms: C_3  and  N_4
REMARK    4  A    between atoms: C_5  and  C_7
REMARK    5  A    between atoms: C_10  and  C_11
REMARK                            x       y       z     vdW  Elec       q    Type
REMARK                         _______ _______ _______ _____ _____    ______ ____
ROOT
ATOM      1  C   UNL     1       4.353   5.313  17.080  0.00  0.00    +0.000 A 
ATOM      2  C   UNL     1       3.888   6.468  17.721  0.00  0.00    +0.000 A 
ATOM      3  C   UNL     1       3.031   6.364  18.819  0.00  0.00    +0.000 A 
ATOM      4  C   UNL     1       2.621   5.107  19.290  0.00  0.00    +0.000 A 
ATOM      5  C   UNL     1       3.078   3.953  18.630  0.00  0.00    +0.000 A 
ATOM      6  C   UNL     1       3.933   4.056  17.528  0.00  0.00    +0.000 A 
ENDROOT
BRANCH   1   8
ATOM      7  N   UNL     1       5.618   4.199  15.333  0.00  0.00    +0.000 N 
ATOM      8  C   UNL     1       5.255   5.403  15.900  0.00  0.00    +0.000 C 
ATOM      9  O   UNL     1       5.614   6.492  15.473  0.00  0.00    +0.000 OA
ATOM     10  H   UNL     1       5.061   3.372  15.518  0.00  0.00    +0.000 HD
BRANCH   7  11
ATOM     11  C   UNL     1       6.453   4.149  14.149  0.00  0.00    +0.000 C 
BRANCH  11  12
ATOM     12  C   UNL     1       5.673   3.651  12.925  0.00  0.00    +0.000 C 
BRANCH  12  13
ATOM     13  N   UNL     1       6.423   2.636  12.175  0.00  0.00    +0.000 NA
ATOM     14  H   UNL     1       5.860   2.330  11.380  0.00  0.00    +0.000 HD
ATOM     15  H   UNL     1       6.537   1.807  12.763  0.00  0.00    +0.000 HD
ENDBRANCH  12  13
ENDBRANCH  11  12
ENDBRANCH   7  11
ENDBRANCH   1   8
BRANCH   4  16
ATOM     16  C   UNL     1       1.696   4.992  20.479  0.00  0.00    +0.000 C 
ATOM     17  F   UNL     1       0.583   4.245  20.228  0.00  0.00    +0.000 F 
ATOM     18  F   UNL     1       2.297   4.413  21.555  0.00  0.00    +0.000 F 
ATOM     19  F   UNL     1       1.243   6.202  20.905  0.00  0.00    +0.000 F 
ENDBRANCH   4  16
TORSDOF 5
ENDMDL
MODEL 2
REMARK VINA RESULT:      -6.4      1.283      1.758
REMARK  Name = 
REMARK  5 active torsions:
REMARK  status: ('A' for Active; 'I' for Inactive)
REMARK    1  A    between atoms: N_1  and  C_2
REMARK    2  A    between atoms: C_2  and  C_3
REMARK    3  A    between atoms: C_3  and  N_4
REMARK    4  A    between atoms: C_5  and  C_7
REMARK    5  A    between atoms: C_10  and  C_11
REMARK                            x       y       z     vdW  Elec       q    Type
REMARK                         _______ _______ _______ _____ _____    ______ ____
ROOT
ATOM      1  C   UNL     1       4.162   4.850  17.035  0.00  0.00    +0.000 A 
ATOM      2  C   UNL     1       3.301   5.682  17.760  0.00  0.00    +0.000 A 
ATOM      3  C   UNL     1       2.307   5.128  18.570  0.00  0.00    +0.000 A 
ATOM      4  C   UNL     1       2.156   3.736  18.665  0.00  0.00    +0.000 A 
ATOM      5  C   UNL     1       3.014   2.908  17.922  0.00  0.00    +0.000 A 
ATOM      6  C   UNL     1       4.006   3.462  17.107  0.00  0.00    +0.000 A 
ENDROOT
BRANCH   1   8
ATOM      7  N   UNL     1       6.150   4.522  15.680  0.00  0.00    +0.000 N 
ATOM      8  C   UNL     1       5.218   5.421  16.155  0.00  0.00    +0.000 C 
ATOM      9  O   UNL     1       5.216   6.611  15.874  0.00  0.00    +0.000 OA
ATOM     10  H   UNL     1       5.933   3.531  15.681  0.00  0.00    +0.000 HD
BRANCH   7  11
ATOM     11  C   UNL     1       7.201   4.939  14.774  0.00  0.00    +0.000 C 
BRANCH  11  12
ATOM     12  C   UNL     1       6.890   4.545  13.323  0.00  0.00    +0.000 C 
BRANCH  12  13
ATOM     13  N   UNL     1       6.183   3.260  13.246  0.00  0.00    +0.000 NA
ATOM     14  H   UNL     1       5.494   3.218  13.998  0.00  0.00    +0.000 HD
ATOM     15  H   UNL     1       6.845   2.506  13.439  0.00  0.00    +0.000 HD
ENDBRANCH  12  13
ENDBRANCH  11  12
ENDBRANCH   7  11
ENDBRANCH   1   8
BRANCH   4  16
ATOM     16  C   UNL     1       1.083   3.135  19.544  0.00  0.00    +0.000 C 
ATOM     17  F   UNL     1       1.574   2.287  20.492  0.00  0.00    +0.000 F 
ATOM     18  F   UNL     1       0.371   4.078  20.220  0.00  0.00    +0.000 F 
ATOM     19  F   UNL     1       0.174   2.412  18.835  0.00  0.00    +0.000 F 
ENDBRANCH   4  16
TORSDOF 5
ENDMDL
MODEL 3
REMARK VINA RESULT:      -6.4      0.340      1.491
REMARK  Name = 
REMARK  5 active torsions:
REMARK  status: ('A' for Active; 'I' for Inactive)
REMARK    1  A    between atoms: N_1  and  C_2
REMARK    2  A    between atoms: C_2  and  C_3
REMARK    3  A    between atoms: C_3  and  N_4
REMARK    4  A    between atoms: C_5  and  C_7
REMARK    5  A    between atoms: C_10  and  C_11
REMARK                            x       y       z     vdW  Elec       q    Type
REMARK                         _______ _______ _______ _____ _____    ______ ____
ROOT
ATOM      1  C   UNL     1       4.266   5.173  17.121  0.00  0.00    +0.000 A 
ATOM      2  C   UNL     1       3.428   4.061  17.263  0.00  0.00    +0.000 A 
ATOM      3  C   UNL     1       2.583   3.956  18.371  0.00  0.00    +0.000 A 
ATOM      4  C   UNL     1       2.567   4.957  19.354  0.00  0.00    +0.000 A 
ATOM      5  C   UNL     1       3.423   6.062  19.213  0.00  0.00    +0.000 A 
ATOM      6  C   UNL     1       4.273   6.165  18.106  0.00  0.00    +0.000 A 
ENDROOT
BRANCH   1   8
ATOM      7  N   UNL     1       5.678   4.108  15.457  0.00  0.00    +0.000 N 
ATOM      8  C   UNL     1       5.184   5.295  15.956  0.00  0.00    +0.000 C 
ATOM      9  O   UNL     1       5.444   6.392  15.482  0.00  0.00    +0.000 OA
ATOM     10  H   UNL     1       5.201   3.239  15.672  0.00  0.00    +0.000 HD
BRANCH   7  11
ATOM     11  C   UNL     1       6.543   4.085  14.294  0.00  0.00    +0.000 C 
BRANCH  11  12
ATOM     12  C   UNL     1       5.770   3.720  13.019  0.00  0.00    +0.000 C 
BRANCH  12  13
ATOM     13  N   UNL     1       6.391   2.596  12.307  0.00  0.00    +0.000 NA
ATOM     14  H   UNL     1       7.358   2.839  12.088  0.00  0.00    +0.000 HD
ATOM     15  H   UNL     1       5.928   2.481  11.403  0.00  0.00    +0.000 HD
ENDBRANCH  12  13
ENDBRANCH  11  12
ENDBRANCH   7  11
ENDBRANCH   1   8
BRANCH   4  16
ATOM     16  C   UNL     1       1.652   4.848  20.552  0.00  0.00    +0.000 C 
ATOM     17  F   UNL     1       1.061   6.029  20.891  0.00  0.00    +0.000 F 
ATOM     18  F   UNL     1       0.633   3.966  20.353  0.00  0.00    +0.000 F 
ATOM     19  F   UNL     1       2.303   4.425  21.669  0.00  0.00    +0.000 F 
ENDBRANCH   4  16
TORSDOF 5
ENDMDL
MODEL 4
REMARK VINA RESULT:      -6.4      2.035      2.346
REMARK  Name = 
REMARK  5 active torsions:
REMARK  status: ('A' for Active; 'I' for Inactive)
REMARK    1  A    between atoms: N_1  and  C_2
REMARK    2  A    between atoms: C_2  and  C_3
REMARK    3  A    between atoms: C_3  and  N_4
REMARK    4  A    between atoms: C_5  and  C_7
REMARK    5  A    between atoms: C_10  and  C_11
REMARK                            x       y       z     vdW  Elec       q    Type
REMARK                         _______ _______ _______ _____ _____    ______ ____
ROOT
ATOM      1  C   UNL     1       4.824   4.132  18.323  0.00  0.00    +0.000 A 
ATOM      2  C   UNL     1       4.362   4.933  19.373  0.00  0.00    +0.000 A 
ATOM      3  C   UNL     1       3.124   4.670  19.963  0.00  0.00    +0.000 A 
ATOM      4  C   UNL     1       2.327   3.607  19.511  0.00  0.00    +0.000 A 
ATOM      5  C   UNL     1       2.790   2.818  18.445  0.00  0.00    +0.000 A 
ATOM      6  C   UNL     1       4.028   3.083  17.850  0.00  0.00    +0.000 A 
ENDROOT
BRANCH   1   8
ATOM      7  N   UNL     1       6.094   4.582  16.303  0.00  0.00    +0.000 N 
ATOM      8  C   UNL     1       6.134   4.404  17.671  0.00  0.00    +0.000 C 
ATOM      9  O   UNL     1       7.156   4.481  18.337  0.00  0.00    +0.000 OA
ATOM     10  H   UNL     1       5.215   4.818  15.856  0.00  0.00    +0.000 HD
BRANCH   7  11
ATOM     11  C   UNL     1       7.292   4.903  15.554  0.00  0.00    +0.000 C 
BRANCH  11  12
ATOM     12  C   UNL     1       7.042   4.868  14.039  0.00  0.00    +0.000 C 
BRANCH  12  13
ATOM     13  N   UNL     1       8.070   5.610  13.299  0.00  0.00    +0.000 NA
ATOM     14  H   UNL     1       8.679   4.943  12.823  0.00  0.00    +0.000 HD
ATOM     15  H   UNL     1       8.670   6.100  13.966  0.00  0.00    +0.000 HD
ENDBRANCH  12  13
ENDBRANCH  11  12
ENDBRANCH   7  11
ENDBRANCH   1   8
BRANCH   4  16
ATOM     16  C   UNL     1       0.989   3.319  20.151  0.00  0.00    +0.000 C 
ATOM     17  F   UNL     1       1.082   2.581  21.293  0.00  0.00    +0.000 F 
ATOM     18  F   UNL     1       0.319   4.453  20.495  0.00  0.00    +0.000 F 
ATOM     19  F   UNL     1       0.157   2.625  19.328  0.00  0.00    +0.000 F 
ENDBRANCH   4  16
TORSDOF 5
ENDMDL
MODEL 5
REMARK VINA RESULT:      -6.4      1.567      2.257
REMARK  Name = 
REMARK  5 active torsions:
REMARK  status: ('A' for Active; 'I' for Inactive)
REMARK    1  A    between atoms: N_1  and  C_2
REMARK    2  A    between atoms: C_2  and  C_3
REMARK    3  A    between atoms: C_3  and  N_4
REMARK    4  A    between atoms: C_5  and  C_7
REMARK    5  A    between atoms: C_10  and  C_11
REMARK                            x       y       z     vdW  Elec       q    Type
REMARK                         _______ _______ _______ _____ _____    ______ ____
ROOT
ATOM      1  C   UNL     1       5.491   5.043  15.560  0.00  0.00    +0.000 A 
ATOM      2  C   UNL     1       5.315   6.367  15.978  0.00  0.00    +0.000 A 
ATOM      3  C   UNL     1       4.503   6.653  17.078  0.00  0.00    +0.000 A 
ATOM      4  C   UNL     1       3.850   5.623  17.772  0.00  0.00    +0.000 A 
ATOM      5  C   UNL     1       4.018   4.298  17.335  0.00  0.00    +0.000 A 
ATOM      6  C   UNL     1       4.828   4.011  16.231  0.00  0.00    +0.000 A 
ENDROOT
BRANCH   1   8
ATOM      7  N   UNL     1       5.830   3.770  13.520  0.00  0.00    +0.000 N 
ATOM      8  C   UNL     1       6.341   4.719  14.382  0.00  0.00    +0.000 C 
ATOM      9  O   UNL     1       7.408   5.291  14.208  0.00  0.00    +0.000 OA
ATOM     10  H   UNL     1       4.837   3.566  13.534  0.00  0.00    +0.000 HD
BRANCH   7  11
ATOM     11  C   UNL     1       6.535   3.400  12.309  0.00  0.00    +0.000 C 
BRANCH  11  12
ATOM     12  C   UNL     1       5.795   2.302  11.533  0.00  0.00    +0.000 C 
BRANCH  12  13
ATOM     13  N   UNL     1       6.675   1.171  11.214  0.00  0.00    +0.000 NA
ATOM     14  H   UNL     1       6.103   0.391  10.887  0.00  0.00    +0.000 HD
ATOM     15  H   UNL     1       7.117   0.842  12.076  0.00  0.00    +0.000 HD
ENDBRANCH  12  13
ENDBRANCH  11  12
ENDBRANCH   7  11
ENDBRANCH   1   8
BRANCH   4  16
ATOM     16  C   UNL     1       2.973   5.930  18.963  0.00  0.00    +0.000 C 
ATOM     17  F   UNL     1       2.651   7.250  19.072  0.00  0.00    +0.000 F 
ATOM     18  F   UNL     1       1.788   5.260  18.927  0.00  0.00    +0.000 F 
ATOM     19  F   UNL     1       3.560   5.592  20.144  0.00  0.00    +0.000 F 
ENDBRANCH   4  16
TORSDOF 5
ENDMDL
MODEL 6
REMARK VINA RESULT:      -6.3      1.427      2.389
REMARK  Name = 
REMARK  5 active torsions:
REMARK  status: ('A' for Active; 'I' for Inactive)
REMARK    1  A    between atoms: N_1  and  C_2
REMARK    2  A    between atoms: C_2  and  C_3
REMARK    3  A    between atoms: C_3  and  N_4
REMARK    4  A    between atoms: C_5  and  C_7
REMARK    5  A    between atoms: C_10  and  C_11
REMARK                            x       y       z     vdW  Elec       q    Type
REMARK                         _______ _______ _______ _____ _____    ______ ____
ROOT
ATOM      1  C   UNL     1       5.393   5.009  15.774  0.00  0.00    +0.000 A 
ATOM      2  C   UNL     1       4.840   3.955  16.510  0.00  0.00    +0.000 A 
ATOM      3  C   UNL     1       4.024   4.220  17.612  0.00  0.00    +0.000 A 
ATOM      4  C   UNL     1       3.750   5.541  17.997  0.00  0.00    +0.000 A 
ATOM      5  C   UNL     1       4.323   6.595  17.264  0.00  0.00    +0.000 A 
ATOM      6  C   UNL     1       5.145   6.330  16.164  0.00  0.00    +0.000 A 
ENDROOT
BRANCH   1   8
ATOM      7  N   UNL     1       5.768   3.894  13.651  0.00  0.00    +0.000 N 
ATOM      8  C   UNL     1       6.278   4.747  14.607  0.00  0.00    +0.000 C 
ATOM      9  O   UNL     1       7.371   5.288  14.522  0.00  0.00    +0.000 OA
ATOM     10  H   UNL     1       4.768   3.730  13.610  0.00  0.00    +0.000 HD
BRANCH   7  11
ATOM     11  C   UNL     1       6.508   3.595  12.441  0.00  0.00    +0.000 C 
BRANCH  11  12
ATOM     12  C   UNL     1       5.893   2.414  11.676  0.00  0.00    +0.000 C 
BRANCH  12  13
ATOM     13  N   UNL     1       6.900   1.402  11.333  0.00  0.00    +0.000 NA
ATOM     14  H   UNL     1       7.812   1.855  11.263  0.00  0.00    +0.000 HD
ATOM     15  H   UNL     1       6.702   1.042  10.397  0.00  0.00    +0.000 HD
ENDBRANCH  12  13
ENDBRANCH  11  12
ENDBRANCH   7  11
ENDBRANCH   1   8
BRANCH   4  16
ATOM     16  C   UNL     1       2.864   5.831  19.187  0.00  0.00    +0.000 C 
ATOM     17  F   UNL     1       2.667   7.162  19.403  0.00  0.00    +0.000 F 
ATOM     18  F   UNL     1       1.623   5.287  19.059  0.00  0.00    +0.000 F 
ATOM     19  F   UNL     1       3.374   5.338  20.348  0.00  0.00    +0.000 F 
ENDBRANCH   4  16
TORSDOF 5
ENDMDL
MODEL 7
REMARK VINA RESULT:      -6.3      1.092      1.428
REMARK  Name = 
REMARK  5 active torsions:
REMARK  status: ('A' for Active; 'I' for Inactive)
REMARK    1  A    between atoms: N_1  and  C_2
REMARK    2  A    between atoms: C_2  and  C_3
REMARK    3  A    between atoms: C_3  and  N_4
REMARK    4  A    between atoms: C_5  and  C_7
REMARK    5  A    between atoms: C_10  and  C_11
REMARK                            x       y       z     vdW  Elec       q    Type
REMARK                         _______ _______ _______ _____ _____    ______ ____
ROOT
ATOM      1  C   UNL     1       4.792   4.405  17.510  0.00  0.00    +0.000 A 
ATOM      2  C   UNL     1       4.969   5.216  18.637  0.00  0.00    +0.000 A 
ATOM      3  C   UNL     1       3.960   5.314  19.597  0.00  0.00    +0.000 A 
ATOM      4  C   UNL     1       2.757   4.607  19.445  0.00  0.00    +0.000 A 
ATOM      5  C   UNL     1       2.579   3.808  18.302  0.00  0.00    +0.000 A 
ATOM      6  C   UNL     1       3.588   3.714  17.338  0.00  0.00    +0.000 A 
ENDROOT
BRANCH   1   8
ATOM      7  N   UNL     1       5.398   4.185  15.169  0.00  0.00    +0.000 N 
ATOM      8  C   UNL     1       5.849   4.300  16.468  0.00  0.00    +0.000 C 
ATOM      9  O   UNL     1       7.031   4.337  16.777  0.00  0.00    +0.000 OA
ATOM     10  H   UNL     1       4.451   4.470  14.943  0.00  0.00    +0.000 HD
BRANCH   7  11
ATOM     11  C   UNL     1       6.324   4.124  14.057  0.00  0.00    +0.000 C 
BRANCH  11  12
ATOM     12  C   UNL     1       5.658   3.563  12.792  0.00  0.00    +0.000 C 
BRANCH  12  13
ATOM     13  N   UNL     1       6.564   2.684  12.042  0.00  0.00    +0.000 NA
ATOM     14  H   UNL     1       7.060   2.083  12.701  0.00  0.00    +0.000 HD
ATOM     15  H   UNL     1       7.286   3.255  11.597  0.00  0.00    +0.000 HD
ENDBRANCH  12  13
ENDBRANCH  11  12
ENDBRANCH   7  11
ENDBRANCH   1   8
BRANCH   4  16
ATOM     16  C   UNL     1       1.665   4.709  20.484  0.00  0.00    +0.000 C 
ATOM     17  F   UNL     1       2.001   4.146  21.679  0.00  0.00    +0.000 F 
ATOM     18  F   UNL     1       1.326   5.998  20.763  0.00  0.00    +0.000 F 
ATOM     19  F   UNL     1       0.516   4.093  20.094  0.00  0.00    +0.000 F 
ENDBRANCH   4  16
TORSDOF 5
ENDMDL
MODEL 8
REMARK VINA RESULT:      -6.3      1.861      2.223
REMARK  Name = 
REMARK  5 active torsions:
REMARK  status: ('A' for Active; 'I' for Inactive)
REMARK    1  A    between atoms: N_1  and  C_2
REMARK    2  A    between atoms: C_2  and  C_3
REMARK    3  A    between atoms: C_3  and  N_4
REMARK    4  A    between atoms: C_5  and  C_7
REMARK    5  A    between atoms: C_10  and  C_11
REMARK                            x       y       z     vdW  Elec       q    Type
REMARK                         _______ _______ _______ _____ _____    ______ ____
ROOT
ATOM      1  C   UNL     1       4.736   4.107  18.098  0.00  0.00    +0.000 A 
ATOM      2  C   UNL     1       3.823   3.225  17.507  0.00  0.00    +0.000 A 
ATOM      3  C   UNL     1       2.609   2.945  18.138  0.00  0.00    +0.000 A 
ATOM      4  C   UNL     1       2.290   3.537  19.369  0.00  0.00    +0.000 A 
ATOM      5  C   UNL     1       3.218   4.408  19.965  0.00  0.00    +0.000 A 
ATOM      6  C   UNL     1       4.437   4.685  19.336  0.00  0.00    +0.000 A 
ENDROOT
BRANCH   1   8
ATOM      7  N   UNL     1       5.992   4.648  16.092  0.00  0.00    +0.000 N 
ATOM      8  C   UNL     1       6.041   4.406  17.449  0.00  0.00    +0.000 C 
ATOM      9  O   UNL     1       7.069   4.449  18.111  0.00  0.00    +0.000 OA
ATOM     10  H   UNL     1       5.110   4.908  15.663  0.00  0.00    +0.000 HD
BRANCH   7  11
ATOM     11  C   UNL     1       7.185   5.001  15.349  0.00  0.00    +0.000 C 
BRANCH  11  12
ATOM     12  C   UNL     1       7.042   4.677  13.855  0.00  0.00    +0.000 C 
BRANCH  12  13
ATOM     13  N   UNL     1       6.195   3.498  13.631  0.00  0.00    +0.000 NA
ATOM     14  H   UNL     1       5.791   3.557  12.696  0.00  0.00    +0.000 HD
ATOM     15  H   UNL     1       5.402   3.534  14.274  0.00  0.00    +0.000 HD
ENDBRANCH  12  13
ENDBRANCH  11  12
ENDBRANCH   7  11
ENDBRANCH   1   8
BRANCH   4  16
ATOM     16  C   UNL     1       0.976   3.238  20.052  0.00  0.00    +0.000 C 
ATOM     17  F   UNL     1       0.107   2.537  19.269  0.00  0.00    +0.000 F 
ATOM     18  F   UNL     1       1.131   2.501  21.186  0.00  0.00    +0.000 F 
ATOM     19  F   UNL     1       0.312   4.367  20.423  0.00  0.00    +0.000 F 
ENDBRANCH   4  16
TORSDOF 5
ENDMDL
MODEL 9
REMARK VINA RESULT:      -6.3      1.829      1.969
REMARK  Name = 
REMARK  5 active torsions:
REMARK  status: ('A' for Active; 'I' for Inactive)
REMARK    1  A    between atoms: N_1  and  C_2
REMARK    2  A    between atoms: C_2  and  C_3
REMARK    3  A    between atoms: C_3  and  N_4
REMARK    4  A    between atoms: C_5  and  C_7
REMARK    5  A    between atoms: C_10  and  C_11
REMARK                            x       y       z     vdW  Elec       q    Type
REMARK                         _______ _______ _______ _____ _____    ______ ____
ROOT
ATOM      1  C   UNL     1       4.764   4.151  18.158  0.00  0.00    +0.000 A 
ATOM      2  C   UNL     1       4.395   4.846  19.316  0.00  0.00    +0.000 A 
ATOM      3  C   UNL     1       3.177   4.570  19.942  0.00  0.00    +0.000 A 
ATOM      4  C   UNL     1       2.309   3.599  19.420  0.00  0.00    +0.000 A 
ATOM      5  C   UNL     1       2.679   2.916  18.248  0.00  0.00    +0.000 A 
ATOM      6  C   UNL     1       3.896   3.196  17.618  0.00  0.00    +0.000 A 
ENDROOT
BRANCH   1   8
ATOM      7  N   UNL     1       5.947   4.795  16.138  0.00  0.00    +0.000 N 
ATOM      8  C   UNL     1       6.050   4.442  17.468  0.00  0.00    +0.000 C 
ATOM      9  O   UNL     1       7.109   4.383  18.076  0.00  0.00    +0.000 OA
ATOM     10  H   UNL     1       5.059   5.128  15.778  0.00  0.00    +0.000 HD
BRANCH   7  11
ATOM     11  C   UNL     1       7.119   5.151  15.364  0.00  0.00    +0.000 C 
BRANCH  11  12
ATOM     12  C   UNL     1       6.981   4.725  13.895  0.00  0.00    +0.000 C 
BRANCH  12  13
ATOM     13  N   UNL     1       6.262   3.452  13.761  0.00  0.00    +0.000 NA
ATOM     14  H   UNL     1       5.513   3.568  13.079  0.00  0.00    +0.000 HD
ATOM     15  H   UNL     1       5.795   3.241  14.646  0.00  0.00    +0.000 HD
ENDBRANCH  12  13
ENDBRANCH  11  12
ENDBRANCH   7  11
ENDBRANCH   1   8
BRANCH   4  16
ATOM     16  C   UNL     1       0.993   3.295  20.098  0.00  0.00    +0.000 C 
ATOM     17  F   UNL     1       0.146   2.555  19.327  0.00  0.00    +0.000 F 
ATOM     18  F   UNL     1       1.150   2.595  21.255  0.00  0.00    +0.000 F 
ATOM     19  F   UNL     1       0.305   4.422  20.428  0.00  0.00    +0.000 F 
ENDBRANCH   4  16
TORSDOF 5
ENDMDL
