MODEL 1
REMARK VINA RESULT:      -8.1      0.000      0.000
REMARK  Name = 
REMARK  6 active torsions:
REMARK  status: ('A' for Active; 'I' for Inactive)
REMARK    1  A    between atoms: C_1  and  O_2
REMARK    2  A    between atoms: O_2  and  C_3
REMARK    3  A    between atoms: C_3  and  C_4
REMARK    4  A    between atoms: C_4  and  C_5
REMARK    5  A    between atoms: C_8  and  C_9
REMARK    6  A    between atoms: C_11  and  C_12
REMARK                            x       y       z     vdW  Elec       q    Type
REMARK                         _______ _______ _______ _____ _____    ______ ____
ROOT
ATOM      1  C   UNL     1       6.008   4.341  16.992  0.00  0.00    +0.000 A 
ATOM      2  N   UNL     1       4.746   4.095  17.298  0.00  0.00    +0.000 NA
ATOM      3  C   UNL     1       4.763   4.044  18.677  0.00  0.00    +0.000 A 
ATOM      4  N   UNL     1       5.987   4.210  19.205  0.00  0.00    +0.000 NA
ATOM      5  O   UNL     1       6.802   4.420  18.104  0.00  0.00    +0.000 OA
ENDROOT
BRANCH   3   6
ATOM      6  C   UNL     1       3.559   3.871  19.481  0.00  0.00    +0.000 A 
ATOM      7  C   UNL     1       3.031   2.592  19.709  0.00  0.00    +0.000 A 
ATOM      8  C   UNL     1       1.850   2.433  20.443  0.00  0.00    +0.000 A 
ATOM      9  C   UNL     1       1.192   3.547  20.961  0.00  0.00    +0.000 A 
ATOM     10  C   UNL     1       1.711   4.822  20.751  0.00  0.00    +0.000 A 
ATOM     11  C   UNL     1       2.890   4.982  20.017  0.00  0.00    +0.000 A 
ENDBRANCH   3   6
BRANCH   1  15
ATOM     12  C   UNL     1       6.887   4.347  13.607  0.00  0.00    +0.000 A 
ATOM     13  N   UNL     1       7.685   5.361  13.964  0.00  0.00    +0.000 NA
ATOM     14  O   UNL     1       7.454   5.477  15.339  0.00  0.00    +0.000 OA
ATOM     15  C   UNL     1       6.523   4.526  15.673  0.00  0.00    +0.000 A 
ATOM     16  N   UNL     1       6.156   3.804  14.628  0.00  0.00    +0.000 NA
BRANCH  12  17
ATOM     17  C   UNL     1       6.807   3.837  12.219  0.00  0.00    +0.000 C 
BRANCH  17  18
ATOM     18  C   UNL     1       5.469   3.170  11.934  0.00  0.00    +0.000 C 
BRANCH  18  20
ATOM     19  C   UNL     1       7.023   1.631  11.053  0.00  0.00    +0.000 C 
ATOM     20  O   UNL     1       5.700   1.816  11.540  0.00  0.00    +0.000 OA
ENDBRANCH  18  20
ENDBRANCH  17  18
ENDBRANCH  12  17
ENDBRANCH   1  15
TORSDOF 5
ENDMDL
MODEL 2
REMARK VINA RESULT:      -8.0      0.442      1.002
REMARK  Name = 
REMARK  6 active torsions:
REMARK  status: ('A' for Active; 'I' for Inactive)
REMARK    1  A    between atoms: C_1  and  O_2
REMARK    2  A    between atoms: O_2  and  C_3
REMARK    3  A    between atoms: C_3  and  C_4
REMARK    4  A    between atoms: C_4  and  C_5
REMARK    5  A    between atoms: C_8  and  C_9
REMARK    6  A    between atoms: C_11  and  C_12
REMARK                            x       y       z     vdW  Elec       q    Type
REMARK                         _______ _______ _______ _____ _____    ______ ____
ROOT
ATOM      1  C   UNL     1       5.972   4.290  16.992  0.00  0.00    +0.000 A 
ATOM      2  N   UNL     1       4.720   3.986  17.288  0.00  0.00    +0.000 NA
ATOM      3  C   UNL     1       4.727   3.941  18.668  0.00  0.00    +0.000 A 
ATOM      4  N   UNL     1       5.937   4.167  19.206  0.00  0.00    +0.000 NA
ATOM      5  O   UNL     1       6.752   4.410  18.111  0.00  0.00    +0.000 OA
ENDROOT
BRANCH   3   6
ATOM      6  C   UNL     1       3.526   3.715  19.463  0.00  0.00    +0.000 A 
ATOM      7  C   UNL     1       2.383   4.504  19.268  0.00  0.00    +0.000 A 
ATOM      8  C   UNL     1       1.248   4.316  20.063  0.00  0.00    +0.000 A 
ATOM      9  C   UNL     1       1.241   3.335  21.054  0.00  0.00    +0.000 A 
ATOM     10  C   UNL     1       2.365   2.538  21.251  0.00  0.00    +0.000 A 
ATOM     11  C   UNL     1       3.501   2.726  20.458  0.00  0.00    +0.000 A 
ENDBRANCH   3   6
BRANCH   1  15
ATOM     12  C   UNL     1       6.860   4.341  13.610  0.00  0.00    +0.000 A 
ATOM     13  N   UNL     1       7.647   5.358  13.981  0.00  0.00    +0.000 NA
ATOM     14  O   UNL     1       7.412   5.458  15.356  0.00  0.00    +0.000 OA
ATOM     15  C   UNL     1       6.488   4.494  15.676  0.00  0.00    +0.000 A 
ATOM     16  N   UNL     1       6.132   3.780  14.623  0.00  0.00    +0.000 NA
BRANCH  12  17
ATOM     17  C   UNL     1       6.789   3.845  12.217  0.00  0.00    +0.000 C 
BRANCH  17  18
ATOM     18  C   UNL     1       5.448   3.192  11.912  0.00  0.00    +0.000 C 
BRANCH  18  20
ATOM     19  C   UNL     1       6.861   1.536  11.005  0.00  0.00    +0.000 C 
ATOM     20  O   UNL     1       5.650   1.792  11.706  0.00  0.00    +0.000 OA
ENDBRANCH  18  20
ENDBRANCH  17  18
ENDBRANCH  12  17
ENDBRANCH   1  15
TORSDOF 5
ENDMDL
MODEL 3
REMARK VINA RESULT:      -7.8      0.795      1.109
REMARK  Name = 
REMARK  6 active torsions:
REMARK  status: ('A' for Active; 'I' for Inactive)
REMARK    1  A    between atoms: C_1  and  O_2
REMARK    2  A    between atoms: O_2  and  C_3
REMARK    3  A    between atoms: C_3  and  C_4
REMARK    4  A    between atoms: C_4  and  C_5
REMARK    5  A    between atoms: C_8  and  C_9
REMARK    6  A    between atoms: C_11  and  C_12
REMARK                            x       y       z     vdW  Elec       q    Type
REMARK                         _______ _______ _______ _____ _____    ______ ____
ROOT
ATOM      1  C   UNL     1       5.860   4.284  16.907  0.00  0.00    +0.000 A 
ATOM      2  N   UNL     1       4.582   3.992  17.077  0.00  0.00    +0.000 NA
ATOM      3  C   UNL     1       4.471   3.862  18.447  0.00  0.00    +0.000 A 
ATOM      4  N   UNL     1       5.635   4.026  19.098  0.00  0.00    +0.000 NA
ATOM      5  O   UNL     1       6.544   4.317  18.092  0.00  0.00    +0.000 OA
ENDROOT
BRANCH   3   6
ATOM      6  C   UNL     1       3.203   3.616  19.124  0.00  0.00    +0.000 A 
ATOM      7  C   UNL     1       3.040   3.948  20.476  0.00  0.00    +0.000 A 
ATOM      8  C   UNL     1       1.838   3.669  21.135  0.00  0.00    +0.000 A 
ATOM      9  C   UNL     1       0.787   3.064  20.448  0.00  0.00    +0.000 A 
ATOM     10  C   UNL     1       0.932   2.739  19.102  0.00  0.00    +0.000 A 
ATOM     11  C   UNL     1       2.132   3.016  18.443  0.00  0.00    +0.000 A 
ENDBRANCH   3   6
BRANCH   1  15
ATOM     12  C   UNL     1       7.035   4.519  13.621  0.00  0.00    +0.000 A 
ATOM     13  N   UNL     1       7.801   5.497  14.118  0.00  0.00    +0.000 NA
ATOM     14  O   UNL     1       7.450   5.519  15.472  0.00  0.00    +0.000 OA
ATOM     15  C   UNL     1       6.490   4.556  15.654  0.00  0.00    +0.000 A 
ATOM     16  N   UNL     1       6.214   3.912  14.533  0.00  0.00    +0.000 NA
BRANCH  12  17
ATOM     17  C   UNL     1       7.076   4.108  12.199  0.00  0.00    +0.000 C 
BRANCH  17  18
ATOM     18  C   UNL     1       6.186   2.903  11.928  0.00  0.00    +0.000 C 
BRANCH  18  20
ATOM     19  C   UNL     1       6.184   0.725  11.025  0.00  0.00    +0.000 C 
ATOM     20  O   UNL     1       6.963   1.884  11.295  0.00  0.00    +0.000 OA
ENDBRANCH  18  20
ENDBRANCH  17  18
ENDBRANCH  12  17
ENDBRANCH   1  15
TORSDOF 5
ENDMDL
MODEL 4
REMARK VINA RESULT:      -7.6      1.186      1.468
REMARK  Name = 
REMARK  6 active torsions:
REMARK  status: ('A' for Active; 'I' for Inactive)
REMARK    1  A    between atoms: C_1  and  O_2
REMARK    2  A    between atoms: O_2  and  C_3
REMARK    3  A    between atoms: C_3  and  C_4
REMARK    4  A    between atoms: C_4  and  C_5
REMARK    5  A    between atoms: C_8  and  C_9
REMARK    6  A    between atoms: C_11  and  C_12
REMARK                            x       y       z     vdW  Elec       q    Type
REMARK                         _______ _______ _______ _____ _____    ______ ____
ROOT
ATOM      1  C   UNL     1       5.145   5.212  16.535  0.00  0.00    +0.000 A 
ATOM      2  N   UNL     1       4.394   4.280  17.097  0.00  0.00    +0.000 NA
ATOM      3  C   UNL     1       3.778   4.957  18.131  0.00  0.00    +0.000 A 
ATOM      4  N   UNL     1       4.158   6.242  18.233  0.00  0.00    +0.000 NA
ATOM      5  O   UNL     1       5.042   6.415  17.179  0.00  0.00    +0.000 OA
ENDROOT
BRANCH   3   6
ATOM      6  C   UNL     1       2.778   4.346  18.998  0.00  0.00    +0.000 A 
ATOM      7  C   UNL     1       2.791   4.584  20.380  0.00  0.00    +0.000 A 
ATOM      8  C   UNL     1       1.858   3.960  21.215  0.00  0.00    +0.000 A 
ATOM      9  C   UNL     1       0.901   3.100  20.678  0.00  0.00    +0.000 A 
ATOM     10  C   UNL     1       0.870   2.864  19.306  0.00  0.00    +0.000 A 
ATOM     11  C   UNL     1       1.802   3.485  18.471  0.00  0.00    +0.000 A 
ENDBRANCH   3   6
BRANCH   1  15
ATOM     12  C   UNL     1       6.706   4.420  13.507  0.00  0.00    +0.000 A 
ATOM     13  N   UNL     1       7.669   5.233  13.957  0.00  0.00    +0.000 NA
ATOM     14  O   UNL     1       7.188   5.635  15.208  0.00  0.00    +0.000 OA
ATOM     15  C   UNL     1       5.967   5.031  15.381  0.00  0.00    +0.000 A 
ATOM     16  N   UNL     1       5.642   4.267  14.353  0.00  0.00    +0.000 NA
BRANCH  12  17
ATOM     17  C   UNL     1       6.786   3.724  12.203  0.00  0.00    +0.000 C 
BRANCH  17  18
ATOM     18  C   UNL     1       5.450   3.113  11.801  0.00  0.00    +0.000 C 
BRANCH  18  20
ATOM     19  C   UNL     1       6.974   1.493  11.017  0.00  0.00    +0.000 C 
ATOM     20  O   UNL     1       5.649   1.736  11.474  0.00  0.00    +0.000 OA
ENDBRANCH  18  20
ENDBRANCH  17  18
ENDBRANCH  12  17
ENDBRANCH   1  15
TORSDOF 5
ENDMDL
MODEL 5
REMARK VINA RESULT:      -7.3      1.253      1.748
REMARK  Name = 
REMARK  6 active torsions:
REMARK  status: ('A' for Active; 'I' for Inactive)
REMARK    1  A    between atoms: C_1  and  O_2
REMARK    2  A    between atoms: O_2  and  C_3
REMARK    3  A    between atoms: C_3  and  C_4
REMARK    4  A    between atoms: C_4  and  C_5
REMARK    5  A    between atoms: C_8  and  C_9
REMARK    6  A    between atoms: C_11  and  C_12
REMARK                            x       y       z     vdW  Elec       q    Type
REMARK                         _______ _______ _______ _____ _____    ______ ____
ROOT
ATOM      1  C   UNL     1       5.300   5.128  16.562  0.00  0.00    +0.000 A 
ATOM      2  N   UNL     1       4.476   4.221  17.057  0.00  0.00    +0.000 NA
ATOM      3  C   UNL     1       3.939   4.855  18.159  0.00  0.00    +0.000 A 
ATOM      4  N   UNL     1       4.436   6.086  18.366  0.00  0.00    +0.000 NA
ATOM      5  O   UNL     1       5.318   6.273  17.312  0.00  0.00    +0.000 OA
ENDROOT
BRANCH   3   6
ATOM      6  C   UNL     1       2.899   4.261  18.991  0.00  0.00    +0.000 A 
ATOM      7  C   UNL     1       2.472   4.901  20.164  0.00  0.00    +0.000 A 
ATOM      8  C   UNL     1       1.507   4.307  20.984  0.00  0.00    +0.000 A 
ATOM      9  C   UNL     1       0.955   3.074  20.638  0.00  0.00    +0.000 A 
ATOM     10  C   UNL     1       1.363   2.434  19.470  0.00  0.00    +0.000 A 
ATOM     11  C   UNL     1       2.327   3.026  18.651  0.00  0.00    +0.000 A 
ENDBRANCH   3   6
BRANCH   1  15
ATOM     12  C   UNL     1       6.770   4.411  13.471  0.00  0.00    +0.000 A 
ATOM     13  N   UNL     1       7.738   5.227  13.904  0.00  0.00    +0.000 NA
ATOM     14  O   UNL     1       7.294   5.600  15.177  0.00  0.00    +0.000 OA
ATOM     15  C   UNL     1       6.086   4.979  15.379  0.00  0.00    +0.000 A 
ATOM     16  N   UNL     1       5.736   4.230  14.348  0.00  0.00    +0.000 NA
BRANCH  12  17
ATOM     17  C   UNL     1       6.814   3.740  12.152  0.00  0.00    +0.000 C 
BRANCH  17  18
ATOM     18  C   UNL     1       5.574   2.894  11.901  0.00  0.00    +0.000 C 
BRANCH  18  20
ATOM     19  C   UNL     1       3.493   3.006  10.798  0.00  0.00    +0.000 C 
ATOM     20  O   UNL     1       4.513   3.744  11.458  0.00  0.00    +0.000 OA
ENDBRANCH  18  20
ENDBRANCH  17  18
ENDBRANCH  12  17
ENDBRANCH   1  15
TORSDOF 5
ENDMDL
MODEL 6
REMARK VINA RESULT:      -7.3      1.383      1.613
REMARK  Name = 
REMARK  6 active torsions:
REMARK  status: ('A' for Active; 'I' for Inactive)
REMARK    1  A    between atoms: C_1  and  O_2
REMARK    2  A    between atoms: O_2  and  C_3
REMARK    3  A    between atoms: C_3  and  C_4
REMARK    4  A    between atoms: C_4  and  C_5
REMARK    5  A    between atoms: C_8  and  C_9
REMARK    6  A    between atoms: C_11  and  C_12
REMARK                            x       y       z     vdW  Elec       q    Type
REMARK                         _______ _______ _______ _____ _____    ______ ____
ROOT
ATOM      1  C   UNL     1       5.086   5.346  16.535  0.00  0.00    +0.000 A 
ATOM      2  N   UNL     1       4.656   4.399  17.350  0.00  0.00    +0.000 NA
ATOM      3  C   UNL     1       3.843   5.087  18.227  0.00  0.00    +0.000 A 
ATOM      4  N   UNL     1       3.800   6.410  17.994  0.00  0.00    +0.000 NA
ATOM      5  O   UNL     1       4.602   6.580  16.877  0.00  0.00    +0.000 OA
ENDROOT
BRANCH   3   6
ATOM      6  C   UNL     1       3.070   4.433  19.277  0.00  0.00    +0.000 A 
ATOM      7  C   UNL     1       3.553   3.273  19.899  0.00  0.00    +0.000 A 
ATOM      8  C   UNL     1       2.789   2.621  20.874  0.00  0.00    +0.000 A 
ATOM      9  C   UNL     1       1.542   3.125  21.239  0.00  0.00    +0.000 A 
ATOM     10  C   UNL     1       1.055   4.281  20.636  0.00  0.00    +0.000 A 
ATOM     11  C   UNL     1       1.817   4.933  19.662  0.00  0.00    +0.000 A 
ENDBRANCH   3   6
BRANCH   1  15
ATOM     12  C   UNL     1       6.732   4.514  13.563  0.00  0.00    +0.000 A 
ATOM     13  N   UNL     1       7.689   5.321  14.037  0.00  0.00    +0.000 NA
ATOM     14  O   UNL     1       7.174   5.737  15.268  0.00  0.00    +0.000 OA
ATOM     15  C   UNL     1       5.942   5.148  15.409  0.00  0.00    +0.000 A 
ATOM     16  N   UNL     1       5.641   4.379  14.377  0.00  0.00    +0.000 NA
BRANCH  12  17
ATOM     17  C   UNL     1       6.844   3.806  12.268  0.00  0.00    +0.000 C 
BRANCH  17  18
ATOM     18  C   UNL     1       5.629   2.933  11.988  0.00  0.00    +0.000 C 
BRANCH  18  20
ATOM     19  C   UNL     1       3.571   3.014  10.840  0.00  0.00    +0.000 C 
ATOM     20  O   UNL     1       4.552   3.763  11.546  0.00  0.00    +0.000 OA
ENDBRANCH  18  20
ENDBRANCH  17  18
ENDBRANCH  12  17
ENDBRANCH   1  15
TORSDOF 5
ENDMDL
MODEL 7
REMARK VINA RESULT:      -7.1      0.981      1.243
REMARK  Name = 
REMARK  6 active torsions:
REMARK  status: ('A' for Active; 'I' for Inactive)
REMARK    1  A    between atoms: C_1  and  O_2
REMARK    2  A    between atoms: O_2  and  C_3
REMARK    3  A    between atoms: C_3  and  C_4
REMARK    4  A    between atoms: C_4  and  C_5
REMARK    5  A    between atoms: C_8  and  C_9
REMARK    6  A    between atoms: C_11  and  C_12
REMARK                            x       y       z     vdW  Elec       q    Type
REMARK                         _______ _______ _______ _____ _____    ______ ____
ROOT
ATOM      1  C   UNL     1       6.151   4.760  16.668  0.00  0.00    +0.000 A 
ATOM      2  N   UNL     1       4.927   5.116  17.015  0.00  0.00    +0.000 NA
ATOM      3  C   UNL     1       4.911   4.894  18.377  0.00  0.00    +0.000 A 
ATOM      4  N   UNL     1       6.061   4.385  18.851  0.00  0.00    +0.000 NA
ATOM      5  O   UNL     1       6.880   4.310  17.735  0.00  0.00    +0.000 OA
ENDROOT
BRANCH   3   6
ATOM      6  C   UNL     1       3.772   5.225  19.225  0.00  0.00    +0.000 A 
ATOM      7  C   UNL     1       3.236   4.272  20.103  0.00  0.00    +0.000 A 
ATOM      8  C   UNL     1       2.115   4.576  20.882  0.00  0.00    +0.000 A 
ATOM      9  C   UNL     1       1.523   5.836  20.795  0.00  0.00    +0.000 A 
ATOM     10  C   UNL     1       2.051   6.795  19.935  0.00  0.00    +0.000 A 
ATOM     11  C   UNL     1       3.171   6.491  19.156  0.00  0.00    +0.000 A 
ENDBRANCH   3   6
BRANCH   1  15
ATOM     12  C   UNL     1       7.084   4.507  13.306  0.00  0.00    +0.000 A 
ATOM     13  N   UNL     1       7.926   5.502  13.615  0.00  0.00    +0.000 NA
ATOM     14  O   UNL     1       7.679   5.717  14.974  0.00  0.00    +0.000 OA
ATOM     15  C   UNL     1       6.696   4.835  15.349  0.00  0.00    +0.000 A 
ATOM     16  N   UNL     1       6.310   4.067  14.345  0.00  0.00    +0.000 NA
BRANCH  12  17
ATOM     17  C   UNL     1       7.001   3.915  11.952  0.00  0.00    +0.000 C 
BRANCH  17  18
ATOM     18  C   UNL     1       6.131   2.666  11.929  0.00  0.00    +0.000 C 
BRANCH  18  20
ATOM     19  C   UNL     1       6.201   0.405  11.262  0.00  0.00    +0.000 C 
ATOM     20  O   UNL     1       6.707   1.714  11.032  0.00  0.00    +0.000 OA
ENDBRANCH  18  20
ENDBRANCH  17  18
ENDBRANCH  12  17
ENDBRANCH   1  15
TORSDOF 5
ENDMDL
MODEL 8
REMARK VINA RESULT:      -7.0      2.437      3.100
REMARK  Name = 
REMARK  6 active torsions:
REMARK  status: ('A' for Active; 'I' for Inactive)
REMARK    1  A    between atoms: C_1  and  O_2
REMARK    2  A    between atoms: O_2  and  C_3
REMARK    3  A    between atoms: C_3  and  C_4
REMARK    4  A    between atoms: C_4  and  C_5
REMARK    5  A    between atoms: C_8  and  C_9
REMARK    6  A    between atoms: C_11  and  C_12
REMARK                            x       y       z     vdW  Elec       q    Type
REMARK                         _______ _______ _______ _____ _____    ______ ____
ROOT
ATOM      1  C   UNL     1       5.004   5.507  16.610  0.00  0.00    +0.000 A 
ATOM      2  N   UNL     1       4.237   6.580  16.695  0.00  0.00    +0.000 NA
ATOM      3  C   UNL     1       3.628   6.432  17.925  0.00  0.00    +0.000 A 
ATOM      4  N   UNL     1       3.970   5.299  18.561  0.00  0.00    +0.000 NA
ATOM      5  O   UNL     1       4.882   4.698  17.708  0.00  0.00    +0.000 OA
ENDROOT
BRANCH   3   6
ATOM      6  C   UNL     1       2.736   7.434  18.497  0.00  0.00    +0.000 A 
ATOM      7  C   UNL     1       2.374   8.571  17.760  0.00  0.00    +0.000 A 
ATOM      8  C   UNL     1       1.555   9.553  18.327  0.00  0.00    +0.000 A 
ATOM      9  C   UNL     1       1.086   9.406  19.632  0.00  0.00    +0.000 A 
ATOM     10  C   UNL     1       1.430   8.277  20.371  0.00  0.00    +0.000 A 
ATOM     11  C   UNL     1       2.248   7.296  19.806  0.00  0.00    +0.000 A 
ENDBRANCH   3   6
BRANCH   1  15
ATOM     12  C   UNL     1       6.681   4.449  13.729  0.00  0.00    +0.000 A 
ATOM     13  N   UNL     1       7.698   5.156  14.237  0.00  0.00    +0.000 NA
ATOM     14  O   UNL     1       7.176   5.647  15.438  0.00  0.00    +0.000 OA
ATOM     15  C   UNL     1       5.883   5.197  15.528  0.00  0.00    +0.000 A 
ATOM     16  N   UNL     1       5.546   4.448  14.493  0.00  0.00    +0.000 NA
BRANCH  12  17
ATOM     17  C   UNL     1       6.773   3.712  12.449  0.00  0.00    +0.000 C 
BRANCH  17  18
ATOM     18  C   UNL     1       5.415   3.204  11.985  0.00  0.00    +0.000 C 
BRANCH  18  20
ATOM     19  C   UNL     1       6.854   1.624  10.987  0.00  0.00    +0.000 C 
ATOM     20  O   UNL     1       5.557   1.859  11.521  0.00  0.00    +0.000 OA
ENDBRANCH  18  20
ENDBRANCH  17  18
ENDBRANCH  12  17
ENDBRANCH   1  15
TORSDOF 5
ENDMDL
MODEL 9
REMARK VINA RESULT:      -6.9      2.195      7.365
REMARK  Name = 
REMARK  6 active torsions:
REMARK  status: ('A' for Active; 'I' for Inactive)
REMARK    1  A    between atoms: C_1  and  O_2
REMARK    2  A    between atoms: O_2  and  C_3
REMARK    3  A    between atoms: C_3  and  C_4
REMARK    4  A    between atoms: C_4  and  C_5
REMARK    5  A    between atoms: C_8  and  C_9
REMARK    6  A    between atoms: C_11  and  C_12
REMARK                            x       y       z     vdW  Elec       q    Type
REMARK                         _______ _______ _______ _____ _____    ______ ____
ROOT
ATOM      1  C   UNL     1       5.822   4.120  17.878  0.00  0.00    +0.000 A 
ATOM      2  N   UNL     1       5.526   4.080  16.591  0.00  0.00    +0.000 NA
ATOM      3  C   UNL     1       6.713   4.442  15.986  0.00  0.00    +0.000 A 
ATOM      4  N   UNL     1       7.693   4.732  16.858  0.00  0.00    +0.000 NA
ATOM      5  O   UNL     1       7.116   4.508  18.098  0.00  0.00    +0.000 OA
ENDROOT
BRANCH   3   6
ATOM      6  C   UNL     1       6.895   4.461  14.539  0.00  0.00    +0.000 A 
ATOM      7  C   UNL     1       7.782   5.371  13.945  0.00  0.00    +0.000 A 
ATOM      8  C   UNL     1       7.921   5.418  12.554  0.00  0.00    +0.000 A 
ATOM      9  C   UNL     1       7.183   4.555  11.745  0.00  0.00    +0.000 A 
ATOM     10  C   UNL     1       6.307   3.640  12.324  0.00  0.00    +0.000 A 
ATOM     11  C   UNL     1       6.166   3.592  13.713  0.00  0.00    +0.000 A 
ENDBRANCH   3   6
BRANCH   1  15
ATOM     12  C   UNL     1       3.355   3.820  20.339  0.00  0.00    +0.000 A 
ATOM     13  N   UNL     1       3.984   2.674  20.626  0.00  0.00    +0.000 NA
ATOM     14  O   UNL     1       5.040   2.653  19.710  0.00  0.00    +0.000 OA
ATOM     15  C   UNL     1       4.933   3.789  18.946  0.00  0.00    +0.000 A 
ATOM     16  N   UNL     1       3.907   4.537  19.313  0.00  0.00    +0.000 NA
BRANCH  12  17
ATOM     17  C   UNL     1       2.162   4.290  21.079  0.00  0.00    +0.000 C 
BRANCH  17  18
ATOM     18  C   UNL     1       0.947   3.409  20.821  0.00  0.00    +0.000 C 
BRANCH  18  20
ATOM     19  C   UNL     1       0.780   2.298  18.748  0.00  0.00    +0.000 C 
ATOM     20  O   UNL     1       0.576   3.521  19.445  0.00  0.00    +0.000 OA
ENDBRANCH  18  20
ENDBRANCH  17  18
ENDBRANCH  12  17
ENDBRANCH   1  15
TORSDOF 5
ENDMDL
