MODEL 1
REMARK VINA RESULT:      -7.0      0.000      0.000
REMARK  Name = 
REMARK  6 active torsions:
REMARK  status: ('A' for Active; 'I' for Inactive)
REMARK    1  A    between atoms: C_2  and  C_3
REMARK    2  A    between atoms: C_3  and  S_4
REMARK    3  A    between atoms: S_4  and  C_5
REMARK    4  A    between atoms: C_8  and  C_9
REMARK    5  A    between atoms: N_18  and  C_19
REMARK    6  A    between atoms: C_19  and  C_20
REMARK                            x       y       z     vdW  Elec       q    Type
REMARK                         _______ _______ _______ _____ _____    ______ ____
ROOT
ATOM      1  C   UNL     1       4.102   4.775  18.434  0.00  0.00    +0.000 C 
ATOM      2  N   UNL     1       3.325   5.730  18.846  0.00  0.00    +0.000 NA
ATOM      3  C   UNL     1       3.498   6.729  17.908  0.00  0.00    +0.000 C 
ATOM      4  C   UNL     1       2.937   7.946  17.881  0.00  0.00    +0.000 C 
ATOM      5  C   UNL     1       4.452   6.265  16.859  0.00  0.00    +0.000 C 
ATOM      6  O   UNL     1       4.782   6.870  15.853  0.00  0.00    +0.000 OA
ATOM      7  N   UNL     1       4.791   5.015  17.282  0.00  0.00    +0.000 N 
ENDROOT
BRANCH   4   8
ATOM      8  C   UNL     1       1.996   8.411  18.901  0.00  0.00    +0.000 A 
ATOM      9  C   UNL     1       1.178   9.520  18.654  0.00  0.00    +0.000 A 
ATOM     10  C   UNL     1       0.334  10.006  19.657  0.00  0.00    +0.000 A 
ATOM     11  C   UNL     1       0.310   9.381  20.903  0.00  0.00    +0.000 A 
ATOM     12 CL   UNL     1      -0.688  10.012  22.154  0.00  0.00    +0.000 Cl
ATOM     13  C   UNL     1       1.099   8.259  21.146  0.00  0.00    +0.000 A 
ATOM     14  C   UNL     1       1.940   7.772  20.144  0.00  0.00    +0.000 A 
ENDBRANCH   4   8
BRANCH   1  15
ATOM     15  S   UNL     1       4.308   3.272  19.279  0.00  0.00    +0.000 S 
BRANCH  15  16
ATOM     16  C   UNL     1       2.715   2.455  18.986  0.00  0.00    +0.000 C 
BRANCH  16  18
ATOM     17  C   UNL     1       1.059   3.609  20.494  0.00  0.00    +0.000 C 
ATOM     18  C   UNL     1       1.844   2.558  20.211  0.00  0.00    +0.000 C 
ENDBRANCH  16  18
ENDBRANCH  15  16
ENDBRANCH   1  15
BRANCH   7  19
ATOM     19  C   UNL     1       5.572   4.104  16.461  0.00  0.00    +0.000 C 
BRANCH  19  20
ATOM     20  C   UNL     1       7.040   4.410  16.523  0.00  0.00    +0.000 C 
ATOM     21  C   UNL     1       7.714   4.596  17.673  0.00  0.00    +0.000 C 
ENDBRANCH  19  20
ENDBRANCH   7  19
TORSDOF 6
ENDMDL
MODEL 2
REMARK VINA RESULT:      -6.9      1.205      1.465
REMARK  Name = 
REMARK  6 active torsions:
REMARK  status: ('A' for Active; 'I' for Inactive)
REMARK    1  A    between atoms: C_2  and  C_3
REMARK    2  A    between atoms: C_3  and  S_4
REMARK    3  A    between atoms: S_4  and  C_5
REMARK    4  A    between atoms: C_8  and  C_9
REMARK    5  A    between atoms: N_18  and  C_19
REMARK    6  A    between atoms: C_19  and  C_20
REMARK                            x       y       z     vdW  Elec       q    Type
REMARK                         _______ _______ _______ _____ _____    ______ ____
ROOT
ATOM      1  C   UNL     1       3.947   4.292  17.427  0.00  0.00    +0.000 C 
ATOM      2  N   UNL     1       3.291   5.286  17.945  0.00  0.00    +0.000 NA
ATOM      3  C   UNL     1       3.873   6.402  17.375  0.00  0.00    +0.000 C 
ATOM      4  C   UNL     1       3.578   7.691  17.592  0.00  0.00    +0.000 C 
ATOM      5  C   UNL     1       4.943   5.975  16.427  0.00  0.00    +0.000 C 
ATOM      6  O   UNL     1       5.614   6.697  15.710  0.00  0.00    +0.000 OA
ATOM      7  N   UNL     1       4.924   4.616  16.534  0.00  0.00    +0.000 N 
ENDROOT
BRANCH   4   8
ATOM      8  C   UNL     1       2.527   8.123  18.515  0.00  0.00    +0.000 A 
ATOM      9  C   UNL     1       1.727   9.229  18.206  0.00  0.00    +0.000 A 
ATOM     10  C   UNL     1       0.774   9.684  19.122  0.00  0.00    +0.000 A 
ATOM     11  C   UNL     1       0.624   9.029  20.344  0.00  0.00    +0.000 A 
ATOM     12 CL   UNL     1      -0.510   9.621  21.495  0.00  0.00    +0.000 Cl
ATOM     13  C   UNL     1       1.396   7.910  20.646  0.00  0.00    +0.000 A 
ATOM     14  C   UNL     1       2.347   7.455  19.730  0.00  0.00    +0.000 A 
ENDBRANCH   4   8
BRANCH   1  15
ATOM     15  S   UNL     1       3.652   2.630  17.835  0.00  0.00    +0.000 S 
BRANCH  15  16
ATOM     16  C   UNL     1       1.892   2.658  18.273  0.00  0.00    +0.000 C 
BRANCH  16  18
ATOM     17  C   UNL     1       0.979   3.605  20.422  0.00  0.00    +0.000 C 
ATOM     18  C   UNL     1       1.729   2.703  19.770  0.00  0.00    +0.000 C 
ENDBRANCH  16  18
ENDBRANCH  15  16
ENDBRANCH   1  15
BRANCH   7  19
ATOM     19  C   UNL     1       5.690   3.759  15.643  0.00  0.00    +0.000 C 
BRANCH  19  20
ATOM     20  C   UNL     1       5.422   4.067  14.199  0.00  0.00    +0.000 C 
ATOM     21  C   UNL     1       6.289   3.793  13.206  0.00  0.00    +0.000 C 
ENDBRANCH  19  20
ENDBRANCH   7  19
TORSDOF 6
ENDMDL
MODEL 3
REMARK VINA RESULT:      -6.8      1.745      2.391
REMARK  Name = 
REMARK  6 active torsions:
REMARK  status: ('A' for Active; 'I' for Inactive)
REMARK    1  A    between atoms: C_2  and  C_3
REMARK    2  A    between atoms: C_3  and  S_4
REMARK    3  A    between atoms: S_4  and  C_5
REMARK    4  A    between atoms: C_8  and  C_9
REMARK    5  A    between atoms: N_18  and  C_19
REMARK    6  A    between atoms: C_19  and  C_20
REMARK                            x       y       z     vdW  Elec       q    Type
REMARK                         _______ _______ _______ _____ _____    ______ ____
ROOT
ATOM      1  C   UNL     1       2.622   5.944  19.614  0.00  0.00    +0.000 C 
ATOM      2  N   UNL     1       1.883   7.005  19.491  0.00  0.00    +0.000 NA
ATOM      3  C   UNL     1       2.463   7.694  18.443  0.00  0.00    +0.000 C 
ATOM      4  C   UNL     1       2.096   8.875  17.926  0.00  0.00    +0.000 C 
ATOM      5  C   UNL     1       3.626   6.919  17.922  0.00  0.00    +0.000 C 
ATOM      6  O   UNL     1       4.324   7.205  16.965  0.00  0.00    +0.000 OA
ATOM      7  N   UNL     1       3.656   5.825  18.735  0.00  0.00    +0.000 N 
ENDROOT
BRANCH   4   8
ATOM      8  C   UNL     1       0.954   9.643  18.424  0.00  0.00    +0.000 A 
ATOM      9  C   UNL     1      -0.275   9.592  17.758  0.00  0.00    +0.000 A 
ATOM     10  C   UNL     1      -1.342  10.383  18.194  0.00  0.00    +0.000 A 
ATOM     11  C   UNL     1      -1.176  11.221  19.296  0.00  0.00    +0.000 A 
ATOM     12 CL   UNL     1      -2.471  12.236  19.799  0.00  0.00    +0.000 Cl
ATOM     13  C   UNL     1       0.036  11.254  19.982  0.00  0.00    +0.000 A 
ATOM     14  C   UNL     1       1.101  10.462  19.548  0.00  0.00    +0.000 A 
ENDBRANCH   4   8
BRANCH   1  15
ATOM     15  S   UNL     1       2.364   4.730  20.830  0.00  0.00    +0.000 S 
BRANCH  15  16
ATOM     16  C   UNL     1       0.834   3.943  20.256  0.00  0.00    +0.000 C 
BRANCH  16  18
ATOM     17  C   UNL     1       1.862   1.955  19.099  0.00  0.00    +0.000 C 
ATOM     18  C   UNL     1       1.115   3.070  19.061  0.00  0.00    +0.000 C 
ENDBRANCH  16  18
ENDBRANCH  15  16
ENDBRANCH   1  15
BRANCH   7  19
ATOM     19  C   UNL     1       4.530   4.691  18.476  0.00  0.00    +0.000 C 
BRANCH  19  20
ATOM     20  C   UNL     1       4.209   4.021  17.172  0.00  0.00    +0.000 C 
ATOM     21  C   UNL     1       5.088   3.905  16.159  0.00  0.00    +0.000 C 
ENDBRANCH  19  20
ENDBRANCH   7  19
TORSDOF 6
ENDMDL
MODEL 4
REMARK VINA RESULT:      -6.7      1.993      2.676
REMARK  Name = 
REMARK  6 active torsions:
REMARK  status: ('A' for Active; 'I' for Inactive)
REMARK    1  A    between atoms: C_2  and  C_3
REMARK    2  A    between atoms: C_3  and  S_4
REMARK    3  A    between atoms: S_4  and  C_5
REMARK    4  A    between atoms: C_8  and  C_9
REMARK    5  A    between atoms: N_18  and  C_19
REMARK    6  A    between atoms: C_19  and  C_20
REMARK                            x       y       z     vdW  Elec       q    Type
REMARK                         _______ _______ _______ _____ _____    ______ ____
ROOT
ATOM      1  C   UNL     1       2.605   6.288  19.601  0.00  0.00    +0.000 C 
ATOM      2  N   UNL     1       1.906   7.371  19.454  0.00  0.00    +0.000 NA
ATOM      3  C   UNL     1       2.443   7.965  18.329  0.00  0.00    +0.000 C 
ATOM      4  C   UNL     1       2.094   9.127  17.759  0.00  0.00    +0.000 C 
ATOM      5  C   UNL     1       3.535   7.106  17.788  0.00  0.00    +0.000 C 
ATOM      6  O   UNL     1       4.179   7.297  16.771  0.00  0.00    +0.000 OA
ATOM      7  N   UNL     1       3.573   6.065  18.667  0.00  0.00    +0.000 N 
ENDROOT
BRANCH   4   8
ATOM      8  C   UNL     1       1.021   9.977  18.277  0.00  0.00    +0.000 A 
ATOM      9  C   UNL     1       1.300  10.964  19.229  0.00  0.00    +0.000 A 
ATOM     10  C   UNL     1       0.262  11.724  19.776  0.00  0.00    +0.000 A 
ATOM     11  C   UNL     1      -1.051  11.496  19.367  0.00  0.00    +0.000 A 
ATOM     12 CL   UNL     1      -2.335  12.393  20.080  0.00  0.00    +0.000 Cl
ATOM     13  C   UNL     1      -1.333  10.536  18.398  0.00  0.00    +0.000 A 
ATOM     14  C   UNL     1      -0.296   9.778  17.851  0.00  0.00    +0.000 A 
ENDBRANCH   4   8
BRANCH   1  15
ATOM     15  S   UNL     1       2.377   5.166  20.908  0.00  0.00    +0.000 S 
BRANCH  15  16
ATOM     16  C   UNL     1       1.027   4.129  20.282  0.00  0.00    +0.000 C 
BRANCH  16  18
ATOM     17  C   UNL     1       2.133   2.316  21.637  0.00  0.00    +0.000 C 
ATOM     18  C   UNL     1       1.120   2.745  20.868  0.00  0.00    +0.000 C 
ENDBRANCH  16  18
ENDBRANCH  15  16
ENDBRANCH   1  15
BRANCH   7  19
ATOM     19  C   UNL     1       4.379   4.878  18.429  0.00  0.00    +0.000 C 
BRANCH  19  20
ATOM     20  C   UNL     1       3.684   3.898  17.529  0.00  0.00    +0.000 C 
ATOM     21  C   UNL     1       3.491   2.604  17.845  0.00  0.00    +0.000 C 
ENDBRANCH  19  20
ENDBRANCH   7  19
TORSDOF 6
ENDMDL
MODEL 5
REMARK VINA RESULT:      -6.7      3.690      7.002
REMARK  Name = 
REMARK  6 active torsions:
REMARK  status: ('A' for Active; 'I' for Inactive)
REMARK    1  A    between atoms: C_2  and  C_3
REMARK    2  A    between atoms: C_3  and  S_4
REMARK    3  A    between atoms: S_4  and  C_5
REMARK    4  A    between atoms: C_8  and  C_9
REMARK    5  A    between atoms: N_18  and  C_19
REMARK    6  A    between atoms: C_19  and  C_20
REMARK                            x       y       z     vdW  Elec       q    Type
REMARK                         _______ _______ _______ _____ _____    ______ ____
ROOT
ATOM      1  C   UNL     1       2.832   5.345  18.510  0.00  0.00    +0.000 C 
ATOM      2  N   UNL     1       3.710   5.231  17.561  0.00  0.00    +0.000 NA
ATOM      3  C   UNL     1       3.789   3.870  17.341  0.00  0.00    +0.000 C 
ATOM      4  C   UNL     1       4.573   3.215  16.473  0.00  0.00    +0.000 C 
ATOM      5  C   UNL     1       2.837   3.165  18.247  0.00  0.00    +0.000 C 
ATOM      6  O   UNL     1       2.605   1.969  18.275  0.00  0.00    +0.000 OA
ATOM      7  N   UNL     1       2.279   4.184  18.960  0.00  0.00    +0.000 N 
ENDROOT
BRANCH   4   8
ATOM      8  C   UNL     1       5.508   3.895  15.575  0.00  0.00    +0.000 A 
ATOM      9  C   UNL     1       5.325   3.834  14.189  0.00  0.00    +0.000 A 
ATOM     10  C   UNL     1       6.261   4.422  13.332  0.00  0.00    +0.000 A 
ATOM     11  C   UNL     1       7.374   5.071  13.865  0.00  0.00    +0.000 A 
ATOM     12 CL   UNL     1       8.553   5.747  12.810  0.00  0.00    +0.000 Cl
ATOM     13  C   UNL     1       7.546   5.162  15.245  0.00  0.00    +0.000 A 
ATOM     14  C   UNL     1       6.611   4.576  16.100  0.00  0.00    +0.000 A 
ENDBRANCH   4   8
BRANCH   1  15
ATOM     15  S   UNL     1       2.372   6.864  19.216  0.00  0.00    +0.000 S 
BRANCH  15  16
ATOM     16  C   UNL     1       2.770   8.032  17.887  0.00  0.00    +0.000 C 
BRANCH  16  18
ATOM     17  C   UNL     1       1.073   9.603  18.885  0.00  0.00    +0.000 C 
ATOM     18  C   UNL     1       1.729   9.119  17.819  0.00  0.00    +0.000 C 
ENDBRANCH  16  18
ENDBRANCH  15  16
ENDBRANCH   1  15
BRANCH   7  19
ATOM     19  C   UNL     1       1.147   3.977  19.851  0.00  0.00    +0.000 C 
BRANCH  19  20
ATOM     20  C   UNL     1       1.583   3.752  21.269  0.00  0.00    +0.000 C 
ATOM     21  C   UNL     1       2.338   2.708  21.660  0.00  0.00    +0.000 C 
ENDBRANCH  19  20
ENDBRANCH   7  19
TORSDOF 6
ENDMDL
MODEL 6
REMARK VINA RESULT:      -6.7      1.749      2.420
REMARK  Name = 
REMARK  6 active torsions:
REMARK  status: ('A' for Active; 'I' for Inactive)
REMARK    1  A    between atoms: C_2  and  C_3
REMARK    2  A    between atoms: C_3  and  S_4
REMARK    3  A    between atoms: S_4  and  C_5
REMARK    4  A    between atoms: C_8  and  C_9
REMARK    5  A    between atoms: N_18  and  C_19
REMARK    6  A    between atoms: C_19  and  C_20
REMARK                            x       y       z     vdW  Elec       q    Type
REMARK                         _______ _______ _______ _____ _____    ______ ____
ROOT
ATOM      1  C   UNL     1       2.560   6.128  19.639  0.00  0.00    +0.000 C 
ATOM      2  N   UNL     1       1.863   7.208  19.462  0.00  0.00    +0.000 NA
ATOM      3  C   UNL     1       2.447   7.806  18.362  0.00  0.00    +0.000 C 
ATOM      4  C   UNL     1       2.118   8.966  17.778  0.00  0.00    +0.000 C 
ATOM      5  C   UNL     1       3.567   6.952  17.870  0.00  0.00    +0.000 C 
ATOM      6  O   UNL     1       4.255   7.149  16.883  0.00  0.00    +0.000 OA
ATOM      7  N   UNL     1       3.570   5.911  18.749  0.00  0.00    +0.000 N 
ENDROOT
BRANCH   4   8
ATOM      8  C   UNL     1       1.019   9.810  18.248  0.00  0.00    +0.000 A 
ATOM      9  C   UNL     1       1.247  10.789  19.223  0.00  0.00    +0.000 A 
ATOM     10  C   UNL     1       0.181  11.543  19.722  0.00  0.00    +0.000 A 
ATOM     11  C   UNL     1      -1.109  11.317  19.244  0.00  0.00    +0.000 A 
ATOM     12 CL   UNL     1      -2.429  12.206  19.898  0.00  0.00    +0.000 Cl
ATOM     13  C   UNL     1      -1.339  10.365  18.253  0.00  0.00    +0.000 A 
ATOM     14  C   UNL     1      -0.274   9.614  17.753  0.00  0.00    +0.000 A 
ENDBRANCH   4   8
BRANCH   1  15
ATOM     15  S   UNL     1       2.280   5.004  20.933  0.00  0.00    +0.000 S 
BRANCH  15  16
ATOM     16  C   UNL     1       0.897   4.024  20.286  0.00  0.00    +0.000 C 
BRANCH  16  18
ATOM     17  C   UNL     1       1.345   2.254  18.550  0.00  0.00    +0.000 C 
ATOM     18  C   UNL     1       1.386   2.676  19.824  0.00  0.00    +0.000 C 
ENDBRANCH  16  18
ENDBRANCH  15  16
ENDBRANCH   1  15
BRANCH   7  19
ATOM     19  C   UNL     1       4.392   4.728  18.547  0.00  0.00    +0.000 C 
BRANCH  19  20
ATOM     20  C   UNL     1       5.811   4.949  18.984  0.00  0.00    +0.000 C 
ATOM     21  C   UNL     1       6.865   4.890  18.150  0.00  0.00    +0.000 C 
ENDBRANCH  19  20
ENDBRANCH   7  19
TORSDOF 6
ENDMDL
MODEL 7
REMARK VINA RESULT:      -6.6      1.151      1.403
REMARK  Name = 
REMARK  6 active torsions:
REMARK  status: ('A' for Active; 'I' for Inactive)
REMARK    1  A    between atoms: C_2  and  C_3
REMARK    2  A    between atoms: C_3  and  S_4
REMARK    3  A    between atoms: S_4  and  C_5
REMARK    4  A    between atoms: C_8  and  C_9
REMARK    5  A    between atoms: N_18  and  C_19
REMARK    6  A    between atoms: C_19  and  C_20
REMARK                            x       y       z     vdW  Elec       q    Type
REMARK                         _______ _______ _______ _____ _____    ______ ____
ROOT
ATOM      1  C   UNL     1       3.325   4.740  17.969  0.00  0.00    +0.000 C 
ATOM      2  N   UNL     1       2.668   5.813  18.286  0.00  0.00    +0.000 NA
ATOM      3  C   UNL     1       3.406   6.835  17.721  0.00  0.00    +0.000 C 
ATOM      4  C   UNL     1       3.171   8.153  17.775  0.00  0.00    +0.000 C 
ATOM      5  C   UNL     1       4.577   6.260  16.998  0.00  0.00    +0.000 C 
ATOM      6  O   UNL     1       5.399   6.871  16.338  0.00  0.00    +0.000 OA
ATOM      7  N   UNL     1       4.449   4.921  17.219  0.00  0.00    +0.000 N 
ENDROOT
BRANCH   4   8
ATOM      8  C   UNL     1       2.023   8.730  18.476  0.00  0.00    +0.000 A 
ATOM      9  C   UNL     1       1.120   9.554  17.794  0.00  0.00    +0.000 A 
ATOM     10  C   UNL     1       0.067  10.162  18.483  0.00  0.00    +0.000 A 
ATOM     11  C   UNL     1      -0.081   9.941  19.852  0.00  0.00    +0.000 A 
ATOM     12 CL   UNL     1      -1.344  10.733  20.711  0.00  0.00    +0.000 Cl
ATOM     13  C   UNL     1       0.796   9.099  20.531  0.00  0.00    +0.000 A 
ATOM     14  C   UNL     1       1.847   8.490  19.842  0.00  0.00    +0.000 A 
ENDBRANCH   4   8
BRANCH   1  15
ATOM     15  S   UNL     1       2.856   3.143  18.469  0.00  0.00    +0.000 S 
BRANCH  15  16
ATOM     16  C   UNL     1       1.164   3.417  19.061  0.00  0.00    +0.000 C 
BRANCH  16  18
ATOM     17  C   UNL     1       1.539   2.643  21.429  0.00  0.00    +0.000 C 
ATOM     18  C   UNL     1       1.159   3.590  20.558  0.00  0.00    +0.000 C 
ENDBRANCH  16  18
ENDBRANCH  15  16
ENDBRANCH   1  15
BRANCH   7  19
ATOM     19  C   UNL     1       5.282   3.941  16.541  0.00  0.00    +0.000 C 
BRANCH  19  20
ATOM     20  C   UNL     1       5.203   4.073  15.048  0.00  0.00    +0.000 C 
ATOM     21  C   UNL     1       6.270   3.970  14.234  0.00  0.00    +0.000 C 
ENDBRANCH  19  20
ENDBRANCH   7  19
TORSDOF 6
ENDMDL
MODEL 8
REMARK VINA RESULT:      -6.6      3.772      7.044
REMARK  Name = 
REMARK  6 active torsions:
REMARK  status: ('A' for Active; 'I' for Inactive)
REMARK    1  A    between atoms: C_2  and  C_3
REMARK    2  A    between atoms: C_3  and  S_4
REMARK    3  A    between atoms: S_4  and  C_5
REMARK    4  A    between atoms: C_8  and  C_9
REMARK    5  A    between atoms: N_18  and  C_19
REMARK    6  A    between atoms: C_19  and  C_20
REMARK                            x       y       z     vdW  Elec       q    Type
REMARK                         _______ _______ _______ _____ _____    ______ ____
ROOT
ATOM      1  C   UNL     1       3.289   5.544  19.100  0.00  0.00    +0.000 C 
ATOM      2  N   UNL     1       4.050   5.359  18.065  0.00  0.00    +0.000 NA
ATOM      3  C   UNL     1       4.515   4.068  18.219  0.00  0.00    +0.000 C 
ATOM      4  C   UNL     1       5.361   3.393  17.428  0.00  0.00    +0.000 C 
ATOM      5  C   UNL     1       3.929   3.474  19.455  0.00  0.00    +0.000 C 
ATOM      6  O   UNL     1       4.078   2.333  19.858  0.00  0.00    +0.000 OA
ATOM      7  N   UNL     1       3.170   4.489  19.955  0.00  0.00    +0.000 N 
ENDROOT
BRANCH   4   8
ATOM      8  C   UNL     1       5.939   3.963  16.210  0.00  0.00    +0.000 A 
ATOM      9  C   UNL     1       5.435   3.604  14.954  0.00  0.00    +0.000 A 
ATOM     10  C   UNL     1       6.037   4.092  13.791  0.00  0.00    +0.000 A 
ATOM     11  C   UNL     1       7.139   4.941  13.888  0.00  0.00    +0.000 A 
ATOM     12 CL   UNL     1       7.914   5.498  12.456  0.00  0.00    +0.000 Cl
ATOM     13  C   UNL     1       7.627   5.326  15.134  0.00  0.00    +0.000 A 
ATOM     14  C   UNL     1       7.025   4.839  16.296  0.00  0.00    +0.000 A 
ENDBRANCH   4   8
BRANCH   1  15
ATOM     15  S   UNL     1       2.468   7.038  19.435  0.00  0.00    +0.000 S 
BRANCH  15  16
ATOM     16  C   UNL     1       2.651   7.927  17.865  0.00  0.00    +0.000 C 
BRANCH  16  18
ATOM     17  C   UNL     1       1.730  10.257  18.128  0.00  0.00    +0.000 C 
ATOM     18  C   UNL     1       1.583   8.981  17.737  0.00  0.00    +0.000 C 
ENDBRANCH  16  18
ENDBRANCH  15  16
ENDBRANCH   1  15
BRANCH   7  19
ATOM     19  C   UNL     1       2.261   4.298  21.074  0.00  0.00    +0.000 C 
BRANCH  19  20
ATOM     20  C   UNL     1       0.885   3.905  20.619  0.00  0.00    +0.000 C 
ATOM     21  C   UNL     1       0.650   2.992  19.658  0.00  0.00    +0.000 C 
ENDBRANCH  19  20
ENDBRANCH   7  19
TORSDOF 6
ENDMDL
MODEL 9
REMARK VINA RESULT:      -6.6      0.631      1.268
REMARK  Name = 
REMARK  6 active torsions:
REMARK  status: ('A' for Active; 'I' for Inactive)
REMARK    1  A    between atoms: C_2  and  C_3
REMARK    2  A    between atoms: C_3  and  S_4
REMARK    3  A    between atoms: S_4  and  C_5
REMARK    4  A    between atoms: C_8  and  C_9
REMARK    5  A    between atoms: N_18  and  C_19
REMARK    6  A    between atoms: C_19  and  C_20
REMARK                            x       y       z     vdW  Elec       q    Type
REMARK                         _______ _______ _______ _____ _____    ______ ____
ROOT
ATOM      1  C   UNL     1       4.182   4.798  18.320  0.00  0.00    +0.000 C 
ATOM      2  N   UNL     1       3.431   5.766  18.750  0.00  0.00    +0.000 NA
ATOM      3  C   UNL     1       3.604   6.764  17.811  0.00  0.00    +0.000 C 
ATOM      4  C   UNL     1       3.064   7.991  17.798  0.00  0.00    +0.000 C 
ATOM      5  C   UNL     1       4.527   6.285  16.742  0.00  0.00    +0.000 C 
ATOM      6  O   UNL     1       4.848   6.886  15.731  0.00  0.00    +0.000 OA
ATOM      7  N   UNL     1       4.852   5.028  17.155  0.00  0.00    +0.000 N 
ENDROOT
BRANCH   4   8
ATOM      8  C   UNL     1       2.153   8.471  18.838  0.00  0.00    +0.000 A 
ATOM      9  C   UNL     1       2.064   7.801  20.064  0.00  0.00    +0.000 A 
ATOM     10  C   UNL     1       1.140   8.217  21.026  0.00  0.00    +0.000 A 
ATOM     11  C   UNL     1       0.308   9.305  20.759  0.00  0.00    +0.000 A 
ATOM     12 CL   UNL     1      -0.867   9.784  21.921  0.00  0.00    +0.000 Cl
ATOM     13  C   UNL     1       0.411   9.995  19.554  0.00  0.00    +0.000 A 
ATOM     14  C   UNL     1       1.336   9.579  18.594  0.00  0.00    +0.000 A 
ENDBRANCH   4   8
BRANCH   1  15
ATOM     15  S   UNL     1       4.377   3.289  19.157  0.00  0.00    +0.000 S 
BRANCH  15  16
ATOM     16  C   UNL     1       3.314   2.182  18.189  0.00  0.00    +0.000 C 
BRANCH  16  18
ATOM     17  C   UNL     1       0.901   2.501  18.836  0.00  0.00    +0.000 C 
ATOM     18  C   UNL     1       1.941   2.783  18.036  0.00  0.00    +0.000 C 
ENDBRANCH  16  18
ENDBRANCH  15  16
ENDBRANCH   1  15
BRANCH   7  19
ATOM     19  C   UNL     1       5.600   4.105  16.316  0.00  0.00    +0.000 C 
BRANCH  19  20
ATOM     20  C   UNL     1       7.079   4.344  16.399  0.00  0.00    +0.000 C 
ATOM     21  C   UNL     1       7.739   4.530  17.557  0.00  0.00    +0.000 C 
ENDBRANCH  19  20
ENDBRANCH   7  19
TORSDOF 6
ENDMDL
