MODEL 1
REMARK VINA RESULT:      -6.5      0.000      0.000
REMARK  Name = 
REMARK  4 active torsions:
REMARK  status: ('A' for Active; 'I' for Inactive)
REMARK    1  A    between atoms: C_1  and  N_2
REMARK    2  A    between atoms: C_5  and  O_6
REMARK    3  A    between atoms: O_6  and  C_7
REMARK    4  A    between atoms: C_7  and  C_9
REMARK                            x       y       z     vdW  Elec       q    Type
REMARK                         _______ _______ _______ _____ _____    ______ ____
ROOT
ATOM      1  C   UNL     1       6.513   4.909  17.801  0.00  0.00    +0.000 C 
ATOM      2  O   UNL     1       7.492   4.703  18.494  0.00  0.00    +0.000 OA
ENDROOT
BRANCH   1   3
ATOM      3  C   UNL     1       6.447   4.520  16.368  0.00  0.00    +0.000 A 
ATOM      4  C   UNL     1       5.502   3.607  15.890  0.00  0.00    +0.000 A 
ATOM      5  C   UNL     1       5.421   3.337  14.522  0.00  0.00    +0.000 A 
ATOM      6  C   UNL     1       6.291   3.964  13.624  0.00  0.00    +0.000 A 
ATOM      7 CL   UNL     1       6.100   3.615  11.944  0.00  0.00    +0.000 Cl
ATOM      8  C   UNL     1       7.259   4.856  14.101  0.00  0.00    +0.000 A 
ATOM      9 CL   UNL     1       8.370   5.663  13.052  0.00  0.00    +0.000 Cl
ATOM     10  C   UNL     1       7.333   5.135  15.472  0.00  0.00    +0.000 A 
ENDBRANCH   1   3
BRANCH   1  11
ATOM     11  O   UNL     1       5.371   5.546  18.193  0.00  0.00    +0.000 OA
BRANCH  11  16
ATOM     12  C   UNL     1       1.669   2.811  21.461  0.00  0.00    +0.000 C 
ATOM     13  N   UNL     1       2.411   3.460  20.376  0.00  0.00    +0.000 NA
ATOM     14  C   UNL     1       2.560   4.897  20.641  0.00  0.00    +0.000 C 
ATOM     15  C   UNL     1       3.329   5.596  19.520  0.00  0.00    +0.000 C 
ATOM     16  C   UNL     1       4.692   4.939  19.308  0.00  0.00    +0.000 C 
ATOM     17  C   UNL     1       4.492   3.446  19.042  0.00  0.00    +0.000 C 
ATOM     18  C   UNL     1       3.712   2.805  20.191  0.00  0.00    +0.000 C 
ENDBRANCH  11  16
ENDBRANCH   1  11
TORSDOF 3
ENDMDL
MODEL 2
REMARK VINA RESULT:      -6.5      3.419      4.575
REMARK  Name = 
REMARK  4 active torsions:
REMARK  status: ('A' for Active; 'I' for Inactive)
REMARK    1  A    between atoms: C_1  and  N_2
REMARK    2  A    between atoms: C_5  and  O_6
REMARK    3  A    between atoms: O_6  and  C_7
REMARK    4  A    between atoms: C_7  and  C_9
REMARK                            x       y       z     vdW  Elec       q    Type
REMARK                         _______ _______ _______ _____ _____    ______ ____
ROOT
ATOM      1  C   UNL     1       2.967   5.186  18.871  0.00  0.00    +0.000 C 
ATOM      2  O   UNL     1       2.117   4.327  19.025  0.00  0.00    +0.000 OA
ENDROOT
BRANCH   1   3
ATOM      3  C   UNL     1       4.077   5.052  17.893  0.00  0.00    +0.000 A 
ATOM      4  C   UNL     1       4.032   4.132  16.842  0.00  0.00    +0.000 A 
ATOM      5  C   UNL     1       5.060   4.100  15.896  0.00  0.00    +0.000 A 
ATOM      6  C   UNL     1       6.145   4.976  16.001  0.00  0.00    +0.000 A 
ATOM      7 CL   UNL     1       7.353   4.910  14.769  0.00  0.00    +0.000 Cl
ATOM      8  C   UNL     1       6.210   5.879  17.070  0.00  0.00    +0.000 A 
ATOM      9 CL   UNL     1       7.522   6.986  17.267  0.00  0.00    +0.000 Cl
ATOM     10  C   UNL     1       5.175   5.918  18.012  0.00  0.00    +0.000 A 
ENDBRANCH   1   3
BRANCH   1  11
ATOM     11  O   UNL     1       3.065   6.353  19.573  0.00  0.00    +0.000 OA
BRANCH  11  16
ATOM     12  C   UNL     1       0.101  11.111  18.905  0.00  0.00    +0.000 C 
ATOM     13  N   UNL     1       1.110  10.081  19.171  0.00  0.00    +0.000 NA
ATOM     14  C   UNL     1       0.675   9.204  20.266  0.00  0.00    +0.000 C 
ATOM     15  C   UNL     1       1.715   8.123  20.563  0.00  0.00    +0.000 C 
ATOM     16  C   UNL     1       2.022   7.309  19.306  0.00  0.00    +0.000 C 
ATOM     17  C   UNL     1       2.464   8.259  18.191  0.00  0.00    +0.000 C 
ATOM     18  C   UNL     1       1.390   9.320  17.946  0.00  0.00    +0.000 C 
ENDBRANCH  11  16
ENDBRANCH   1  11
TORSDOF 3
ENDMDL
MODEL 3
REMARK VINA RESULT:      -6.4      5.126      7.380
REMARK  Name = 
REMARK  4 active torsions:
REMARK  status: ('A' for Active; 'I' for Inactive)
REMARK    1  A    between atoms: C_1  and  N_2
REMARK    2  A    between atoms: C_5  and  O_6
REMARK    3  A    between atoms: O_6  and  C_7
REMARK    4  A    between atoms: C_7  and  C_9
REMARK                            x       y       z     vdW  Elec       q    Type
REMARK                         _______ _______ _______ _____ _____    ______ ____
ROOT
ATOM      1  C   UNL     1       2.742   6.074  19.318  0.00  0.00    +0.000 C 
ATOM      2  O   UNL     1       2.107   5.064  19.559  0.00  0.00    +0.000 OA
ENDROOT
BRANCH   1   3
ATOM      3  C   UNL     1       2.154   7.435  19.418  0.00  0.00    +0.000 A 
ATOM      4  C   UNL     1       2.117   8.309  18.327  0.00  0.00    +0.000 A 
ATOM      5  C   UNL     1       1.477   9.545  18.443  0.00  0.00    +0.000 A 
ATOM      6  C   UNL     1       0.884   9.924  19.652  0.00  0.00    +0.000 A 
ATOM      7 CL   UNL     1       0.072  11.447  19.706  0.00  0.00    +0.000 Cl
ATOM      8  C   UNL     1       0.945   9.066  20.757  0.00  0.00    +0.000 A 
ATOM      9 CL   UNL     1       0.241   9.469  22.282  0.00  0.00    +0.000 Cl
ATOM     10  C   UNL     1       1.578   7.822  20.637  0.00  0.00    +0.000 A 
ENDBRANCH   1   3
BRANCH   1  11
ATOM     11  O   UNL     1       4.037   6.126  18.891  0.00  0.00    +0.000 OA
BRANCH  11  16
ATOM     12  C   UNL     1       6.414   4.150  14.167  0.00  0.00    +0.000 C 
ATOM     13  N   UNL     1       6.108   4.710  15.487  0.00  0.00    +0.000 NA
ATOM     14  C   UNL     1       5.368   5.972  15.352  0.00  0.00    +0.000 C 
ATOM     15  C   UNL     1       5.041   6.577  16.717  0.00  0.00    +0.000 C 
ATOM     16  C   UNL     1       4.264   5.581  17.578  0.00  0.00    +0.000 C 
ATOM     17  C   UNL     1       5.065   4.283  17.687  0.00  0.00    +0.000 C 
ATOM     18  C   UNL     1       5.368   3.731  16.293  0.00  0.00    +0.000 C 
ENDBRANCH  11  16
ENDBRANCH   1  11
TORSDOF 3
ENDMDL
MODEL 4
REMARK VINA RESULT:      -6.4      3.411      5.834
REMARK  Name = 
REMARK  4 active torsions:
REMARK  status: ('A' for Active; 'I' for Inactive)
REMARK    1  A    between atoms: C_1  and  N_2
REMARK    2  A    between atoms: C_5  and  O_6
REMARK    3  A    between atoms: O_6  and  C_7
REMARK    4  A    between atoms: C_7  and  C_9
REMARK                            x       y       z     vdW  Elec       q    Type
REMARK                         _______ _______ _______ _____ _____    ______ ____
ROOT
ATOM      1  C   UNL     1       6.134   5.555  19.251  0.00  0.00    +0.000 C 
ATOM      2  O   UNL     1       7.097   5.181  19.895  0.00  0.00    +0.000 OA
ENDROOT
BRANCH   1   3
ATOM      3  C   UNL     1       4.807   4.891  19.332  0.00  0.00    +0.000 A 
ATOM      4  C   UNL     1       3.645   5.593  19.669  0.00  0.00    +0.000 A 
ATOM      5  C   UNL     1       2.407   4.946  19.648  0.00  0.00    +0.000 A 
ATOM      6  C   UNL     1       2.321   3.593  19.306  0.00  0.00    +0.000 A 
ATOM      7 CL   UNL     1       0.752   2.875  19.258  0.00  0.00    +0.000 Cl
ATOM      8  C   UNL     1       3.485   2.878  18.998  0.00  0.00    +0.000 A 
ATOM      9 CL   UNL     1       3.455   1.203  18.572  0.00  0.00    +0.000 Cl
ATOM     10  C   UNL     1       4.725   3.528  19.008  0.00  0.00    +0.000 A 
ENDBRANCH   1   3
BRANCH   1  11
ATOM     11  O   UNL     1       6.120   6.578  18.348  0.00  0.00    +0.000 OA
BRANCH  11  16
ATOM     12  C   UNL     1       6.218   3.823  13.422  0.00  0.00    +0.000 C 
ATOM     13  N   UNL     1       6.018   4.278  14.801  0.00  0.00    +0.000 NA
ATOM     14  C   UNL     1       7.306   4.388  15.500  0.00  0.00    +0.000 C 
ATOM     15  C   UNL     1       7.121   4.859  16.942  0.00  0.00    +0.000 C 
ATOM     16  C   UNL     1       6.366   6.187  16.985  0.00  0.00    +0.000 C 
ATOM     17  C   UNL     1       5.037   6.031  16.243  0.00  0.00    +0.000 C 
ATOM     18  C   UNL     1       5.286   5.551  14.812  0.00  0.00    +0.000 C 
ENDBRANCH  11  16
ENDBRANCH   1  11
TORSDOF 3
ENDMDL
MODEL 5
REMARK VINA RESULT:      -6.4      5.977      8.121
REMARK  Name = 
REMARK  4 active torsions:
REMARK  status: ('A' for Active; 'I' for Inactive)
REMARK    1  A    between atoms: C_1  and  N_2
REMARK    2  A    between atoms: C_5  and  O_6
REMARK    3  A    between atoms: O_6  and  C_7
REMARK    4  A    between atoms: C_7  and  C_9
REMARK                            x       y       z     vdW  Elec       q    Type
REMARK                         _______ _______ _______ _____ _____    ______ ____
ROOT
ATOM      1  C   UNL     1       1.972   8.489  18.602  0.00  0.00    +0.000 C 
ATOM      2  O   UNL     1       1.904   8.937  17.472  0.00  0.00    +0.000 OA
ENDROOT
BRANCH   1   3
ATOM      3  C   UNL     1       1.149   9.011  19.723  0.00  0.00    +0.000 A 
ATOM      4  C   UNL     1       1.296   8.543  21.033  0.00  0.00    +0.000 A 
ATOM      5  C   UNL     1       0.561   9.124  22.069  0.00  0.00    +0.000 A 
ATOM      6  C   UNL     1      -0.335  10.164  21.805  0.00  0.00    +0.000 A 
ATOM      7 CL   UNL     1      -1.173  10.862  23.143  0.00  0.00    +0.000 Cl
ATOM      8  C   UNL     1      -0.509  10.616  20.491  0.00  0.00    +0.000 A 
ATOM      9 CL   UNL     1      -1.603  11.892  20.088  0.00  0.00    +0.000 Cl
ATOM     10  C   UNL     1       0.235  10.041  19.453  0.00  0.00    +0.000 A 
ENDBRANCH   1   3
BRANCH   1  11
ATOM     11  O   UNL     1       2.812   7.501  19.025  0.00  0.00    +0.000 OA
BRANCH  11  16
ATOM     12  C   UNL     1       2.864   1.975  17.872  0.00  0.00    +0.000 C 
ATOM     13  N   UNL     1       3.100   3.333  18.371  0.00  0.00    +0.000 NA
ATOM     14  C   UNL     1       3.515   4.220  17.276  0.00  0.00    +0.000 C 
ATOM     15  C   UNL     1       3.770   5.642  17.775  0.00  0.00    +0.000 C 
ATOM     16  C   UNL     1       2.535   6.196  18.483  0.00  0.00    +0.000 C 
ATOM     17  C   UNL     1       2.132   5.242  19.608  0.00  0.00    +0.000 C 
ATOM     18  C   UNL     1       1.900   3.837  19.051  0.00  0.00    +0.000 C 
ENDBRANCH  11  16
ENDBRANCH   1  11
TORSDOF 3
ENDMDL
MODEL 6
REMARK VINA RESULT:      -6.3      0.783      1.388
REMARK  Name = 
REMARK  4 active torsions:
REMARK  status: ('A' for Active; 'I' for Inactive)
REMARK    1  A    between atoms: C_1  and  N_2
REMARK    2  A    between atoms: C_5  and  O_6
REMARK    3  A    between atoms: O_6  and  C_7
REMARK    4  A    between atoms: C_7  and  C_9
REMARK                            x       y       z     vdW  Elec       q    Type
REMARK                         _______ _______ _______ _____ _____    ______ ____
ROOT
ATOM      1  C   UNL     1       6.683   5.314  17.765  0.00  0.00    +0.000 C 
ATOM      2  O   UNL     1       7.077   6.442  17.998  0.00  0.00    +0.000 OA
ENDROOT
BRANCH   1   3
ATOM      3  C   UNL     1       6.535   4.785  16.384  0.00  0.00    +0.000 A 
ATOM      4  C   UNL     1       5.560   3.839  16.053  0.00  0.00    +0.000 A 
ATOM      5  C   UNL     1       5.400   3.434  14.725  0.00  0.00    +0.000 A 
ATOM      6  C   UNL     1       6.222   3.959  13.723  0.00  0.00    +0.000 A 
ATOM      7 CL   UNL     1       5.935   3.446  12.099  0.00  0.00    +0.000 Cl
ATOM      8  C   UNL     1       7.221   4.883  14.054  0.00  0.00    +0.000 A 
ATOM      9 CL   UNL     1       8.276   5.569  12.870  0.00  0.00    +0.000 Cl
ATOM     10  C   UNL     1       7.373   5.297  15.383  0.00  0.00    +0.000 A 
ENDBRANCH   1   3
BRANCH   1  11
ATOM     11  O   UNL     1       6.286   4.395  18.692  0.00  0.00    +0.000 OA
BRANCH  11  16
ATOM     12  C   UNL     1       1.018   3.849  20.647  0.00  0.00    +0.000 C 
ATOM     13  N   UNL     1       2.464   4.006  20.458  0.00  0.00    +0.000 NA
ATOM     14  C   UNL     1       3.030   2.819  19.803  0.00  0.00    +0.000 C 
ATOM     15  C   UNL     1       4.538   2.960  19.598  0.00  0.00    +0.000 C 
ATOM     16  C   UNL     1       4.861   4.224  18.804  0.00  0.00    +0.000 C 
ATOM     17  C   UNL     1       4.249   5.432  19.515  0.00  0.00    +0.000 C 
ATOM     18  C   UNL     1       2.744   5.231  19.698  0.00  0.00    +0.000 C 
ENDBRANCH  11  16
ENDBRANCH   1  11
TORSDOF 3
ENDMDL
MODEL 7
REMARK VINA RESULT:      -6.3      3.982      6.470
REMARK  Name = 
REMARK  4 active torsions:
REMARK  status: ('A' for Active; 'I' for Inactive)
REMARK    1  A    between atoms: C_1  and  N_2
REMARK    2  A    between atoms: C_5  and  O_6
REMARK    3  A    between atoms: O_6  and  C_7
REMARK    4  A    between atoms: C_7  and  C_9
REMARK                            x       y       z     vdW  Elec       q    Type
REMARK                         _______ _______ _______ _____ _____    ______ ____
ROOT
ATOM      1  C   UNL     1       6.134   5.028  18.771  0.00  0.00    +0.000 C 
ATOM      2  O   UNL     1       7.192   4.896  19.357  0.00  0.00    +0.000 OA
ENDROOT
BRANCH   1   3
ATOM      3  C   UNL     1       4.853   4.485  19.293  0.00  0.00    +0.000 A 
ATOM      4  C   UNL     1       4.638   3.112  19.448  0.00  0.00    +0.000 A 
ATOM      5  C   UNL     1       3.451   2.651  20.024  0.00  0.00    +0.000 A 
ATOM      6  C   UNL     1       2.466   3.555  20.433  0.00  0.00    +0.000 A 
ATOM      7 CL   UNL     1       1.046   2.912  21.177  0.00  0.00    +0.000 Cl
ATOM      8  C   UNL     1       2.663   4.929  20.251  0.00  0.00    +0.000 A 
ATOM      9 CL   UNL     1       1.487   6.103  20.726  0.00  0.00    +0.000 Cl
ATOM     10  C   UNL     1       3.857   5.392  19.684  0.00  0.00    +0.000 A 
ENDBRANCH   1   3
BRANCH   1  11
ATOM     11  O   UNL     1       5.956   5.636  17.562  0.00  0.00    +0.000 OA
BRANCH  11  16
ATOM     12  C   UNL     1       6.453   3.509  12.357  0.00  0.00    +0.000 C 
ATOM     13  N   UNL     1       6.119   4.273  13.562  0.00  0.00    +0.000 NA
ATOM     14  C   UNL     1       5.433   3.419  14.541  0.00  0.00    +0.000 C 
ATOM     15  C   UNL     1       5.072   4.197  15.806  0.00  0.00    +0.000 C 
ATOM     16  C   UNL     1       6.317   4.834  16.422  0.00  0.00    +0.000 C 
ATOM     17  C   UNL     1       7.004   5.708  15.371  0.00  0.00    +0.000 C 
ATOM     18  C   UNL     1       7.332   4.879  14.128  0.00  0.00    +0.000 C 
ENDBRANCH  11  16
ENDBRANCH   1  11
TORSDOF 3
ENDMDL
MODEL 8
REMARK VINA RESULT:      -6.3      3.568      5.968
REMARK  Name = 
REMARK  4 active torsions:
REMARK  status: ('A' for Active; 'I' for Inactive)
REMARK    1  A    between atoms: C_1  and  N_2
REMARK    2  A    between atoms: C_5  and  O_6
REMARK    3  A    between atoms: O_6  and  C_7
REMARK    4  A    between atoms: C_7  and  C_9
REMARK                            x       y       z     vdW  Elec       q    Type
REMARK                         _______ _______ _______ _____ _____    ______ ____
ROOT
ATOM      1  C   UNL     1       6.084   5.501  19.233  0.00  0.00    +0.000 C 
ATOM      2  O   UNL     1       6.971   5.401  20.061  0.00  0.00    +0.000 OA
ENDROOT
BRANCH   1   3
ATOM      3  C   UNL     1       4.757   4.852  19.395  0.00  0.00    +0.000 A 
ATOM      4  C   UNL     1       3.622   5.571  19.782  0.00  0.00    +0.000 A 
ATOM      5  C   UNL     1       2.378   4.937  19.838  0.00  0.00    +0.000 A 
ATOM      6  C   UNL     1       2.262   3.579  19.523  0.00  0.00    +0.000 A 
ATOM      7 CL   UNL     1       0.685   2.877  19.570  0.00  0.00    +0.000 Cl
ATOM      8  C   UNL     1       3.401   2.847  19.165  0.00  0.00    +0.000 A 
ATOM      9 CL   UNL     1       3.333   1.167  18.768  0.00  0.00    +0.000 Cl
ATOM     10  C   UNL     1       4.645   3.485  19.099  0.00  0.00    +0.000 A 
ENDBRANCH   1   3
BRANCH   1  11
ATOM     11  O   UNL     1       6.168   6.163  18.043  0.00  0.00    +0.000 OA
BRANCH  11  16
ATOM     12  C   UNL     1       6.229   3.809  12.913  0.00  0.00    +0.000 C 
ATOM     13  N   UNL     1       6.463   4.598  14.126  0.00  0.00    +0.000 NA
ATOM     14  C   UNL     1       5.289   5.424  14.438  0.00  0.00    +0.000 C 
ATOM     15  C   UNL     1       5.512   6.259  15.699  0.00  0.00    +0.000 C 
ATOM     16  C   UNL     1       5.874   5.363  16.882  0.00  0.00    +0.000 C 
ATOM     17  C   UNL     1       7.094   4.517  16.514  0.00  0.00    +0.000 C 
ATOM     18  C   UNL     1       6.815   3.713  15.244  0.00  0.00    +0.000 C 
ENDBRANCH  11  16
ENDBRANCH   1  11
TORSDOF 3
ENDMDL
MODEL 9
REMARK VINA RESULT:      -6.3      3.921      6.626
REMARK  Name = 
REMARK  4 active torsions:
REMARK  status: ('A' for Active; 'I' for Inactive)
REMARK    1  A    between atoms: C_1  and  N_2
REMARK    2  A    between atoms: C_5  and  O_6
REMARK    3  A    between atoms: O_6  and  C_7
REMARK    4  A    between atoms: C_7  and  C_9
REMARK                            x       y       z     vdW  Elec       q    Type
REMARK                         _______ _______ _______ _____ _____    ______ ____
ROOT
ATOM      1  C   UNL     1       4.302   6.415  17.763  0.00  0.00    +0.000 C 
ATOM      2  O   UNL     1       3.820   7.442  17.321  0.00  0.00    +0.000 OA
ENDROOT
BRANCH   1   3
ATOM      3  C   UNL     1       3.625   5.589  18.796  0.00  0.00    +0.000 A 
ATOM      4  C   UNL     1       2.448   6.007  19.424  0.00  0.00    +0.000 A 
ATOM      5  C   UNL     1       1.798   5.160  20.326  0.00  0.00    +0.000 A 
ATOM      6  C   UNL     1       2.327   3.898  20.618  0.00  0.00    +0.000 A 
ATOM      7 CL   UNL     1       1.444   2.890  21.707  0.00  0.00    +0.000 Cl
ATOM      8  C   UNL     1       3.522   3.488  20.014  0.00  0.00    +0.000 A 
ATOM      9 CL   UNL     1       4.236   1.946  20.331  0.00  0.00    +0.000 Cl
ATOM     10  C   UNL     1       4.167   4.332  19.102  0.00  0.00    +0.000 A 
ENDBRANCH   1   3
BRANCH   1  11
ATOM     11  O   UNL     1       5.517   5.890  17.430  0.00  0.00    +0.000 OA
BRANCH  11  16
ATOM     12  C   UNL     1       6.654   3.568  12.412  0.00  0.00    +0.000 C 
ATOM     13  N   UNL     1       6.446   3.875  13.830  0.00  0.00    +0.000 NA
ATOM     14  C   UNL     1       7.362   4.938  14.267  0.00  0.00    +0.000 C 
ATOM     15  C   UNL     1       7.165   5.274  15.745  0.00  0.00    +0.000 C 
ATOM     16  C   UNL     1       5.713   5.661  16.022  0.00  0.00    +0.000 C 
ATOM     17  C   UNL     1       4.795   4.533  15.548  0.00  0.00    +0.000 C 
ATOM     18  C   UNL     1       5.044   4.238  14.068  0.00  0.00    +0.000 C 
ENDBRANCH  11  16
ENDBRANCH   1  11
TORSDOF 3
ENDMDL
