MODEL 1
REMARK VINA RESULT:      -7.6      0.000      0.000
REMARK  Name = 
REMARK  13 active torsions:
REMARK  status: ('A' for Active; 'I' for Inactive)
REMARK    1  A    between atoms: C_1  and  C_2
REMARK    2  A    between atoms: C_2  and  C_3
REMARK    3  A    between atoms: C_2  and  C_4
REMARK    4  A    between atoms: C_2  and  C_5
REMARK    5  A    between atoms: C_8  and  C_9
REMARK    6  A    between atoms: C_9  and  C_10
REMARK    7  A    between atoms: C_10  and  C_11
REMARK    8  A    between atoms: C_11  and  N_13
REMARK    9  A    between atoms: N_13  and  C_14
REMARK   10  A    between atoms: C_14  and  C_15
REMARK   11  A    between atoms: C_18  and  N_19
REMARK   12  A    between atoms: N_19  and  S_20
REMARK   13  A    between atoms: S_20  and  C_21
REMARK                            x       y       z     vdW  Elec       q    Type
REMARK                         _______ _______ _______ _____ _____    ______ ____
ROOT
ATOM      1  N   UNL     1       2.357   7.005  20.456  0.00  0.00    +0.000 N 
ATOM      2  H   UNL     1       2.963   7.128  21.256  0.00  0.00    +0.000 HD
ENDROOT
BRANCH   1   3
ATOM      3  C   UNL     1       1.812   8.119  19.852  0.00  0.00    +0.000 C 
ATOM      4  S   UNL     1       2.063   8.552  18.252  0.00  0.00    +0.000 S 
BRANCH   3   5
ATOM      5  C   UNL     1       0.815   8.915  20.699  0.00  0.00    +0.000 C 
BRANCH   5   6
ATOM      6  C   UNL     1       0.223  10.129  19.987  0.00  0.00    +0.000 C 
BRANCH   6  10
ATOM      7  C   UNL     1      -2.373  12.514  22.511  0.00  0.00    +0.000 A 
ATOM      8  C   UNL     1      -1.541  11.514  23.039  0.00  0.00    +0.000 A 
ATOM      9  C   UNL     1      -0.721  10.742  22.218  0.00  0.00    +0.000 A 
ATOM     10  C   UNL     1      -0.701  10.948  20.838  0.00  0.00    +0.000 A 
ATOM     11  C   UNL     1      -1.520  11.936  20.292  0.00  0.00    +0.000 A 
ATOM     12  C   UNL     1      -2.343  12.709  21.119  0.00  0.00    +0.000 A 
BRANCH   7  14
ATOM     13  C   UNL     1      -4.374  14.102  22.578  0.00  0.00    +0.000 C 
ATOM     14  C   UNL     1      -3.305  13.352  23.402  0.00  0.00    +0.000 C 
ATOM     15  C   UNL     1      -2.481  14.398  24.182  0.00  0.00    +0.000 C 
ATOM     16  C   UNL     1      -4.051  12.466  24.425  0.00  0.00    +0.000 C 
ENDBRANCH   7  14
ENDBRANCH   6  10
ENDBRANCH   5   6
ENDBRANCH   3   5
ENDBRANCH   1   3
BRANCH   1  17
ATOM     17  C   UNL     1       2.104   5.619  20.117  0.00  0.00    +0.000 C 
BRANCH  17  18
ATOM     18  C   UNL     1       3.143   5.081  19.178  0.00  0.00    +0.000 A 
ATOM     19  C   UNL     1       2.779   4.241  18.115  0.00  0.00    +0.000 A 
ATOM     20  C   UNL     1       3.750   3.761  17.219  0.00  0.00    +0.000 A 
ATOM     21  C   UNL     1       5.089   4.115  17.382  0.00  0.00    +0.000 A 
ATOM     22  C   UNL     1       5.457   4.949  18.452  0.00  0.00    +0.000 A 
ATOM     23 CL   UNL     1       7.096   5.418  18.727  0.00  0.00    +0.000 Cl
ATOM     24  C   UNL     1       4.491   5.434  19.334  0.00  0.00    +0.000 A 
BRANCH  21  25
ATOM     25  N   UNL     1       6.034   3.788  16.367  0.00  0.00    +0.000 N 
ATOM     26  H   UNL     1       6.706   3.045  16.542  0.00  0.00    +0.000 HD
BRANCH  25  27
ATOM     27  S   UNL     1       6.378   4.791  15.081  0.00  0.00    +0.000 S 
ATOM     28  C   UNL     1       5.247   6.139  15.348  0.00  0.00    +0.000 C 
ATOM     29  O   UNL     1       7.739   5.282  15.202  0.00  0.00    +0.000 OA
ATOM     30  O   UNL     1       5.942   4.079  13.902  0.00  0.00    +0.000 OA
ENDBRANCH  25  27
ENDBRANCH  21  25
ENDBRANCH  17  18
ENDBRANCH   1  17
TORSDOF 9
ENDMDL
MODEL 2
REMARK VINA RESULT:      -7.6      4.106      9.146
REMARK  Name = 
REMARK  13 active torsions:
REMARK  status: ('A' for Active; 'I' for Inactive)
REMARK    1  A    between atoms: C_1  and  C_2
REMARK    2  A    between atoms: C_2  and  C_3
REMARK    3  A    between atoms: C_2  and  C_4
REMARK    4  A    between atoms: C_2  and  C_5
REMARK    5  A    between atoms: C_8  and  C_9
REMARK    6  A    between atoms: C_9  and  C_10
REMARK    7  A    between atoms: C_10  and  C_11
REMARK    8  A    between atoms: C_11  and  N_13
REMARK    9  A    between atoms: N_13  and  C_14
REMARK   10  A    between atoms: C_14  and  C_15
REMARK   11  A    between atoms: C_18  and  N_19
REMARK   12  A    between atoms: N_19  and  S_20
REMARK   13  A    between atoms: S_20  and  C_21
REMARK                            x       y       z     vdW  Elec       q    Type
REMARK                         _______ _______ _______ _____ _____    ______ ____
ROOT
ATOM      1  N   UNL     1       4.666   7.395  17.065  0.00  0.00    +0.000 N 
ATOM      2  H   UNL     1       4.485   8.328  16.721  0.00  0.00    +0.000 HD
ENDROOT
BRANCH   1   3
ATOM      3  C   UNL     1       5.886   6.808  16.801  0.00  0.00    +0.000 C 
ATOM      4  S   UNL     1       7.303   7.148  17.631  0.00  0.00    +0.000 S 
BRANCH   3   5
ATOM      5  C   UNL     1       5.875   5.686  15.760  0.00  0.00    +0.000 C 
BRANCH   5   6
ATOM      6  C   UNL     1       5.944   4.283  16.356  0.00  0.00    +0.000 C 
BRANCH   6  10
ATOM      7  C   UNL     1       2.773   3.338  19.159  0.00  0.00    +0.000 A 
ATOM      8  C   UNL     1       2.550   3.377  17.773  0.00  0.00    +0.000 A 
ATOM      9  C   UNL     1       3.571   3.698  16.881  0.00  0.00    +0.000 A 
ATOM     10  C   UNL     1       4.856   3.983  17.345  0.00  0.00    +0.000 A 
ATOM     11  C   UNL     1       5.101   3.949  18.718  0.00  0.00    +0.000 A 
ATOM     12  C   UNL     1       4.072   3.630  19.611  0.00  0.00    +0.000 A 
BRANCH   7  14
ATOM     13  C   UNL     1       2.194   2.440  21.480  0.00  0.00    +0.000 C 
ATOM     14  C   UNL     1       1.647   3.017  20.156  0.00  0.00    +0.000 C 
ATOM     15  C   UNL     1       0.687   1.978  19.542  0.00  0.00    +0.000 C 
ATOM     16  C   UNL     1       0.830   4.280  20.507  0.00  0.00    +0.000 C 
ENDBRANCH   7  14
ENDBRANCH   6  10
ENDBRANCH   5   6
ENDBRANCH   3   5
ENDBRANCH   1   3
BRANCH   1  17
ATOM     17  C   UNL     1       3.536   6.789  17.741  0.00  0.00    +0.000 C 
BRANCH  17  18
ATOM     18  C   UNL     1       2.636   7.823  18.349  0.00  0.00    +0.000 A 
ATOM     19  C   UNL     1       2.241   8.949  17.612  0.00  0.00    +0.000 A 
ATOM     20  C   UNL     1       1.375   9.904  18.172  0.00  0.00    +0.000 A 
ATOM     21  C   UNL     1       0.901   9.740  19.474  0.00  0.00    +0.000 A 
ATOM     22  C   UNL     1       1.302   8.617  20.218  0.00  0.00    +0.000 A 
ATOM     23 CL   UNL     1       0.769   8.353  21.839  0.00  0.00    +0.000 Cl
ATOM     24  C   UNL     1       2.153   7.664  19.656  0.00  0.00    +0.000 A 
BRANCH  21  25
ATOM     25  N   UNL     1      -0.122  10.600  19.965  0.00  0.00    +0.000 N 
ATOM     26  H   UNL     1      -1.056  10.532  19.566  0.00  0.00    +0.000 HD
BRANCH  25  27
ATOM     27  S   UNL     1       0.187  11.973  20.858  0.00  0.00    +0.000 S 
ATOM     28  C   UNL     1      -0.737  11.663  22.347  0.00  0.00    +0.000 C 
ATOM     29  O   UNL     1       1.601  12.031  21.180  0.00  0.00    +0.000 OA
ATOM     30  O   UNL     1      -0.465  13.053  20.154  0.00  0.00    +0.000 OA
ENDBRANCH  25  27
ENDBRANCH  21  25
ENDBRANCH  17  18
ENDBRANCH   1  17
TORSDOF 9
ENDMDL
MODEL 3
REMARK VINA RESULT:      -7.6      4.832      9.523
REMARK  Name = 
REMARK  13 active torsions:
REMARK  status: ('A' for Active; 'I' for Inactive)
REMARK    1  A    between atoms: C_1  and  C_2
REMARK    2  A    between atoms: C_2  and  C_3
REMARK    3  A    between atoms: C_2  and  C_4
REMARK    4  A    between atoms: C_2  and  C_5
REMARK    5  A    between atoms: C_8  and  C_9
REMARK    6  A    between atoms: C_9  and  C_10
REMARK    7  A    between atoms: C_10  and  C_11
REMARK    8  A    between atoms: C_11  and  N_13
REMARK    9  A    between atoms: N_13  and  C_14
REMARK   10  A    between atoms: C_14  and  C_15
REMARK   11  A    between atoms: C_18  and  N_19
REMARK   12  A    between atoms: N_19  and  S_20
REMARK   13  A    between atoms: S_20  and  C_21
REMARK                            x       y       z     vdW  Elec       q    Type
REMARK                         _______ _______ _______ _____ _____    ______ ____
ROOT
ATOM      1  N   UNL     1       1.271   5.173  20.721  0.00  0.00    +0.000 N 
ATOM      2  H   UNL     1       0.437   5.666  21.011  0.00  0.00    +0.000 HD
ENDROOT
BRANCH   1   3
ATOM      3  C   UNL     1       1.264   3.794  20.712  0.00  0.00    +0.000 C 
ATOM      4  S   UNL     1       2.100   2.832  21.802  0.00  0.00    +0.000 S 
BRANCH   3   5
ATOM      5  C   UNL     1       0.316   3.139  19.704  0.00  0.00    +0.000 C 
BRANCH   5   6
ATOM      6  C   UNL     1       1.018   2.288  18.650  0.00  0.00    +0.000 C 
BRANCH   6  10
ATOM      7  C   UNL     1       4.537   4.077  16.856  0.00  0.00    +0.000 A 
ATOM      8  C   UNL     1       4.554   2.775  17.383  0.00  0.00    +0.000 A 
ATOM      9  C   UNL     1       3.422   2.214  17.972  0.00  0.00    +0.000 A 
ATOM     10  C   UNL     1       2.230   2.935  18.048  0.00  0.00    +0.000 A 
ATOM     11  C   UNL     1       2.190   4.230  17.531  0.00  0.00    +0.000 A 
ATOM     12  C   UNL     1       3.328   4.791  16.942  0.00  0.00    +0.000 A 
BRANCH   7  14
ATOM     13  C   UNL     1       6.198   4.023  14.916  0.00  0.00    +0.000 C 
ATOM     14  C   UNL     1       5.787   4.719  16.232  0.00  0.00    +0.000 C 
ATOM     15  C   UNL     1       6.971   4.620  17.216  0.00  0.00    +0.000 C 
ATOM     16  C   UNL     1       5.551   6.211  15.909  0.00  0.00    +0.000 C 
ENDBRANCH   7  14
ENDBRANCH   6  10
ENDBRANCH   5   6
ENDBRANCH   3   5
ENDBRANCH   1   3
BRANCH   1  17
ATOM     17  C   UNL     1       2.393   6.041  20.423  0.00  0.00    +0.000 C 
BRANCH  17  18
ATOM     18  C   UNL     1       1.942   7.430  20.082  0.00  0.00    +0.000 A 
ATOM     19  C   UNL     1       2.102   7.935  18.782  0.00  0.00    +0.000 A 
ATOM     20  C   UNL     1       1.653   9.226  18.456  0.00  0.00    +0.000 A 
ATOM     21  C   UNL     1       1.044  10.021  19.427  0.00  0.00    +0.000 A 
ATOM     22  C   UNL     1       0.889   9.521  20.731  0.00  0.00    +0.000 A 
ATOM     23 CL   UNL     1       0.159  10.451  21.989  0.00  0.00    +0.000 Cl
ATOM     24  C   UNL     1       1.326   8.235  21.051  0.00  0.00    +0.000 A 
BRANCH  21  25
ATOM     25  N   UNL     1       0.419  11.243  19.047  0.00  0.00    +0.000 N 
ATOM     26  H   UNL     1      -0.539  11.220  18.705  0.00  0.00    +0.000 HD
BRANCH  25  27
ATOM     27  S   UNL     1       1.264  12.648  18.746  0.00  0.00    +0.000 S 
ATOM     28  C   UNL     1       1.777  13.131  20.380  0.00  0.00    +0.000 C 
ATOM     29  O   UNL     1       2.439  12.343  17.949  0.00  0.00    +0.000 OA
ATOM     30  O   UNL     1       0.283  13.607  18.292  0.00  0.00    +0.000 OA
ENDBRANCH  25  27
ENDBRANCH  21  25
ENDBRANCH  17  18
ENDBRANCH   1  17
TORSDOF 9
ENDMDL
MODEL 4
REMARK VINA RESULT:      -7.6      4.999      9.665
REMARK  Name = 
REMARK  13 active torsions:
REMARK  status: ('A' for Active; 'I' for Inactive)
REMARK    1  A    between atoms: C_1  and  C_2
REMARK    2  A    between atoms: C_2  and  C_3
REMARK    3  A    between atoms: C_2  and  C_4
REMARK    4  A    between atoms: C_2  and  C_5
REMARK    5  A    between atoms: C_8  and  C_9
REMARK    6  A    between atoms: C_9  and  C_10
REMARK    7  A    between atoms: C_10  and  C_11
REMARK    8  A    between atoms: C_11  and  N_13
REMARK    9  A    between atoms: N_13  and  C_14
REMARK   10  A    between atoms: C_14  and  C_15
REMARK   11  A    between atoms: C_18  and  N_19
REMARK   12  A    between atoms: N_19  and  S_20
REMARK   13  A    between atoms: S_20  and  C_21
REMARK                            x       y       z     vdW  Elec       q    Type
REMARK                         _______ _______ _______ _____ _____    ______ ____
ROOT
ATOM      1  N   UNL     1       1.134   4.888  20.171  0.00  0.00    +0.000 N 
ATOM      2  H   UNL     1       0.224   5.324  20.104  0.00  0.00    +0.000 HD
ENDROOT
BRANCH   1   3
ATOM      3  C   UNL     1       1.211   3.522  20.346  0.00  0.00    +0.000 C 
ATOM      4  S   UNL     1       1.688   2.771  21.767  0.00  0.00    +0.000 S 
BRANCH   3   5
ATOM      5  C   UNL     1       0.695   2.671  19.183  0.00  0.00    +0.000 C 
BRANCH   5   6
ATOM      6  C   UNL     1       1.795   2.008  18.359  0.00  0.00    +0.000 C 
BRANCH   6  10
ATOM      7  C   UNL     1       5.304   4.511  17.880  0.00  0.00    +0.000 A 
ATOM      8  C   UNL     1       4.231   4.556  16.974  0.00  0.00    +0.000 A 
ATOM      9  C   UNL     1       3.115   3.736  17.127  0.00  0.00    +0.000 A 
ATOM     10  C   UNL     1       3.029   2.846  18.198  0.00  0.00    +0.000 A 
ATOM     11  C   UNL     1       4.082   2.784  19.111  0.00  0.00    +0.000 A 
ATOM     12  C   UNL     1       5.203   3.607  18.953  0.00  0.00    +0.000 A 
BRANCH   7  14
ATOM     13  C   UNL     1       7.220   5.724  19.057  0.00  0.00    +0.000 C 
ATOM     14  C   UNL     1       6.555   5.387  17.704  0.00  0.00    +0.000 C 
ATOM     15  C   UNL     1       6.171   6.714  17.016  0.00  0.00    +0.000 C 
ATOM     16  C   UNL     1       7.617   4.682  16.833  0.00  0.00    +0.000 C 
ENDBRANCH   7  14
ENDBRANCH   6  10
ENDBRANCH   5   6
ENDBRANCH   3   5
ENDBRANCH   1   3
BRANCH   1  17
ATOM     17  C   UNL     1       2.239   5.826  20.139  0.00  0.00    +0.000 C 
BRANCH  17  18
ATOM     18  C   UNL     1       1.758   7.246  20.145  0.00  0.00    +0.000 A 
ATOM     19  C   UNL     1       1.997   8.086  19.046  0.00  0.00    +0.000 A 
ATOM     20  C   UNL     1       1.522   9.408  19.039  0.00  0.00    +0.000 A 
ATOM     21  C   UNL     1       0.807   9.900  20.131  0.00  0.00    +0.000 A 
ATOM     22  C   UNL     1       0.573   9.064  21.237  0.00  0.00    +0.000 A 
ATOM     23 CL   UNL     1      -0.290   9.606  22.630  0.00  0.00    +0.000 Cl
ATOM     24  C   UNL     1       1.037   7.748  21.237  0.00  0.00    +0.000 A 
BRANCH  21  25
ATOM     25  N   UNL     1       0.163  11.167  20.039  0.00  0.00    +0.000 N 
ATOM     26  H   UNL     1       0.436  11.905  20.685  0.00  0.00    +0.000 HD
BRANCH  25  27
ATOM     27  S   UNL     1      -1.271  11.408  19.226  0.00  0.00    +0.000 S 
ATOM     28  C   UNL     1      -0.813  12.633  18.019  0.00  0.00    +0.000 C 
ATOM     29  O   UNL     1      -1.650  10.185  18.541  0.00  0.00    +0.000 OA
ATOM     30  O   UNL     1      -2.160  12.038  20.175  0.00  0.00    +0.000 OA
ENDBRANCH  25  27
ENDBRANCH  21  25
ENDBRANCH  17  18
ENDBRANCH   1  17
TORSDOF 9
ENDMDL
MODEL 5
REMARK VINA RESULT:      -7.6      1.258      2.038
REMARK  Name = 
REMARK  13 active torsions:
REMARK  status: ('A' for Active; 'I' for Inactive)
REMARK    1  A    between atoms: C_1  and  C_2
REMARK    2  A    between atoms: C_2  and  C_3
REMARK    3  A    between atoms: C_2  and  C_4
REMARK    4  A    between atoms: C_2  and  C_5
REMARK    5  A    between atoms: C_8  and  C_9
REMARK    6  A    between atoms: C_9  and  C_10
REMARK    7  A    between atoms: C_10  and  C_11
REMARK    8  A    between atoms: C_11  and  N_13
REMARK    9  A    between atoms: N_13  and  C_14
REMARK   10  A    between atoms: C_14  and  C_15
REMARK   11  A    between atoms: C_18  and  N_19
REMARK   12  A    between atoms: N_19  and  S_20
REMARK   13  A    between atoms: S_20  and  C_21
REMARK                            x       y       z     vdW  Elec       q    Type
REMARK                         _______ _______ _______ _____ _____    ______ ____
ROOT
ATOM      1  N   UNL     1       1.923   5.610  19.937  0.00  0.00    +0.000 N 
ATOM      2  H   UNL     1       0.974   5.266  19.990  0.00  0.00    +0.000 HD
ENDROOT
BRANCH   1   3
ATOM      3  C   UNL     1       2.151   6.874  19.435  0.00  0.00    +0.000 C 
ATOM      4  S   UNL     1       2.477   7.213  17.825  0.00  0.00    +0.000 S 
BRANCH   3   5
ATOM      5  C   UNL     1       1.958   8.028  20.422  0.00  0.00    +0.000 C 
BRANCH   5   6
ATOM      6  C   UNL     1       0.739   7.877  21.327  0.00  0.00    +0.000 C 
BRANCH   6  10
ATOM      7  C   UNL     1      -1.275  11.612  22.219  0.00  0.00    +0.000 A 
ATOM      8  C   UNL     1      -0.744  11.341  20.948  0.00  0.00    +0.000 A 
ATOM      9  C   UNL     1      -0.084  10.144  20.675  0.00  0.00    +0.000 A 
ATOM     10  C   UNL     1       0.061   9.172  21.664  0.00  0.00    +0.000 A 
ATOM     11  C   UNL     1      -0.459   9.418  22.935  0.00  0.00    +0.000 A 
ATOM     12  C   UNL     1      -1.119  10.622  23.206  0.00  0.00    +0.000 A 
BRANCH   7  14
ATOM     13  C   UNL     1      -1.014  13.963  23.184  0.00  0.00    +0.000 C 
ATOM     14  C   UNL     1      -1.977  12.941  22.542  0.00  0.00    +0.000 C 
ATOM     15  C   UNL     1      -3.138  12.693  23.527  0.00  0.00    +0.000 C 
ATOM     16  C   UNL     1      -2.557  13.594  21.268  0.00  0.00    +0.000 C 
ENDBRANCH   7  14
ENDBRANCH   6  10
ENDBRANCH   5   6
ENDBRANCH   3   5
ENDBRANCH   1   3
BRANCH   1  17
ATOM     17  C   UNL     1       2.922   4.643  20.350  0.00  0.00    +0.000 C 
BRANCH  17  18
ATOM     18  C   UNL     1       3.997   4.483  19.317  0.00  0.00    +0.000 A 
ATOM     19  C   UNL     1       3.787   3.681  18.185  0.00  0.00    +0.000 A 
ATOM     20  C   UNL     1       4.783   3.554  17.203  0.00  0.00    +0.000 A 
ATOM     21  C   UNL     1       5.997   4.226  17.347  0.00  0.00    +0.000 A 
ATOM     22  C   UNL     1       6.214   5.024  18.484  0.00  0.00    +0.000 A 
ATOM     23 CL   UNL     1       7.694   5.874  18.739  0.00  0.00    +0.000 Cl
ATOM     24  C   UNL     1       5.219   5.158  19.453  0.00  0.00    +0.000 A 
BRANCH  21  25
ATOM     25  N   UNL     1       6.922   4.252  16.264  0.00  0.00    +0.000 N 
ATOM     26  H   UNL     1       7.877   3.941  16.426  0.00  0.00    +0.000 HD
BRANCH  25  27
ATOM     27  S   UNL     1       6.668   5.120  14.864  0.00  0.00    +0.000 S 
ATOM     28  C   UNL     1       6.132   3.854  13.734  0.00  0.00    +0.000 C 
ATOM     29  O   UNL     1       5.584   6.063  15.071  0.00  0.00    +0.000 OA
ATOM     30  O   UNL     1       7.974   5.566  14.437  0.00  0.00    +0.000 OA
ENDBRANCH  25  27
ENDBRANCH  21  25
ENDBRANCH  17  18
ENDBRANCH   1  17
TORSDOF 9
ENDMDL
MODEL 6
REMARK VINA RESULT:      -7.5      4.765      9.545
REMARK  Name = 
REMARK  13 active torsions:
REMARK  status: ('A' for Active; 'I' for Inactive)
REMARK    1  A    between atoms: C_1  and  C_2
REMARK    2  A    between atoms: C_2  and  C_3
REMARK    3  A    between atoms: C_2  and  C_4
REMARK    4  A    between atoms: C_2  and  C_5
REMARK    5  A    between atoms: C_8  and  C_9
REMARK    6  A    between atoms: C_9  and  C_10
REMARK    7  A    between atoms: C_10  and  C_11
REMARK    8  A    between atoms: C_11  and  N_13
REMARK    9  A    between atoms: N_13  and  C_14
REMARK   10  A    between atoms: C_14  and  C_15
REMARK   11  A    between atoms: C_18  and  N_19
REMARK   12  A    between atoms: N_19  and  S_20
REMARK   13  A    between atoms: S_20  and  C_21
REMARK                            x       y       z     vdW  Elec       q    Type
REMARK                         _______ _______ _______ _____ _____    ______ ____
ROOT
ATOM      1  N   UNL     1       1.393   4.952  20.463  0.00  0.00    +0.000 N 
ATOM      2  H   UNL     1       0.508   5.347  20.751  0.00  0.00    +0.000 HD
ENDROOT
BRANCH   1   3
ATOM      3  C   UNL     1       1.475   3.595  20.228  0.00  0.00    +0.000 C 
ATOM      4  S   UNL     1       0.549   2.768  19.100  0.00  0.00    +0.000 S 
BRANCH   3   5
ATOM      5  C   UNL     1       2.586   2.855  20.976  0.00  0.00    +0.000 C 
BRANCH   5   6
ATOM      6  C   UNL     1       3.586   2.148  20.066  0.00  0.00    +0.000 C 
BRANCH   6  10
ATOM      7  C   UNL     1       5.500   4.792  17.210  0.00  0.00    +0.000 A 
ATOM      8  C   UNL     1       4.624   3.771  16.805  0.00  0.00    +0.000 A 
ATOM      9  C   UNL     1       4.027   2.916  17.729  0.00  0.00    +0.000 A 
ATOM     10  C   UNL     1       4.279   3.057  19.094  0.00  0.00    +0.000 A 
ATOM     11  C   UNL     1       5.145   4.064  19.520  0.00  0.00    +0.000 A 
ATOM     12  C   UNL     1       5.745   4.919  18.589  0.00  0.00    +0.000 A 
BRANCH   7  14
ATOM     13  C   UNL     1       6.934   4.930  15.101  0.00  0.00    +0.000 C 
ATOM     14  C   UNL     1       6.191   5.721  16.199  0.00  0.00    +0.000 C 
ATOM     15  C   UNL     1       7.218   6.613  16.926  0.00  0.00    +0.000 C 
ATOM     16  C   UNL     1       5.170   6.640  15.492  0.00  0.00    +0.000 C 
ENDBRANCH   7  14
ENDBRANCH   6  10
ENDBRANCH   5   6
ENDBRANCH   3   5
ENDBRANCH   1   3
BRANCH   1  17
ATOM     17  C   UNL     1       2.478   5.912  20.417  0.00  0.00    +0.000 C 
BRANCH  17  18
ATOM     18  C   UNL     1       1.987   7.285  20.067  0.00  0.00    +0.000 A 
ATOM     19  C   UNL     1       2.220   7.824  18.793  0.00  0.00    +0.000 A 
ATOM     20  C   UNL     1       1.735   9.099  18.456  0.00  0.00    +0.000 A 
ATOM     21  C   UNL     1       1.016   9.843  19.391  0.00  0.00    +0.000 A 
ATOM     22  C   UNL     1       0.787   9.309  20.670  0.00  0.00    +0.000 A 
ATOM     23 CL   UNL     1      -0.082  10.176  21.885  0.00  0.00    +0.000 Cl
ATOM     24  C   UNL     1       1.260   8.038  21.000  0.00  0.00    +0.000 A 
BRANCH  21  25
ATOM     25  N   UNL     1       0.362  11.043  18.986  0.00  0.00    +0.000 N 
ATOM     26  H   UNL     1      -0.465  10.977  18.397  0.00  0.00    +0.000 HD
BRANCH  25  27
ATOM     27  S   UNL     1       1.075  12.547  19.071  0.00  0.00    +0.000 S 
ATOM     28  C   UNL     1      -0.203  13.601  18.423  0.00  0.00    +0.000 C 
ATOM     29  O   UNL     1       1.314  12.890  20.462  0.00  0.00    +0.000 OA
ATOM     30  O   UNL     1       2.155  12.524  18.111  0.00  0.00    +0.000 OA
ENDBRANCH  25  27
ENDBRANCH  21  25
ENDBRANCH  17  18
ENDBRANCH   1  17
TORSDOF 9
ENDMDL
MODEL 7
REMARK VINA RESULT:      -7.5      7.117      9.966
REMARK  Name = 
REMARK  13 active torsions:
REMARK  status: ('A' for Active; 'I' for Inactive)
REMARK    1  A    between atoms: C_1  and  C_2
REMARK    2  A    between atoms: C_2  and  C_3
REMARK    3  A    between atoms: C_2  and  C_4
REMARK    4  A    between atoms: C_2  and  C_5
REMARK    5  A    between atoms: C_8  and  C_9
REMARK    6  A    between atoms: C_9  and  C_10
REMARK    7  A    between atoms: C_10  and  C_11
REMARK    8  A    between atoms: C_11  and  N_13
REMARK    9  A    between atoms: N_13  and  C_14
REMARK   10  A    between atoms: C_14  and  C_15
REMARK   11  A    between atoms: C_18  and  N_19
REMARK   12  A    between atoms: N_19  and  S_20
REMARK   13  A    between atoms: S_20  and  C_21
REMARK                            x       y       z     vdW  Elec       q    Type
REMARK                         _______ _______ _______ _____ _____    ______ ____
ROOT
ATOM      1  N   UNL     1       8.119   8.541  17.753  0.00  0.00    +0.000 N 
ATOM      2  H   UNL     1       8.104   9.107  16.915  0.00  0.00    +0.000 HD
ENDROOT
BRANCH   1   3
ATOM      3  C   UNL     1       7.405   7.361  17.776  0.00  0.00    +0.000 C 
ATOM      4  S   UNL     1       7.758   6.056  18.768  0.00  0.00    +0.000 S 
BRANCH   3   5
ATOM      5  C   UNL     1       6.139   7.331  16.916  0.00  0.00    +0.000 C 
BRANCH   5   6
ATOM      6  C   UNL     1       5.752   5.939  16.426  0.00  0.00    +0.000 C 
BRANCH   6  10
ATOM      7  C   UNL     1       2.729   3.989  18.848  0.00  0.00    +0.000 A 
ATOM      8  C   UNL     1       3.876   3.310  18.405  0.00  0.00    +0.000 A 
ATOM      9  C   UNL     1       4.834   3.940  17.613  0.00  0.00    +0.000 A 
ATOM     10  C   UNL     1       4.682   5.277  17.242  0.00  0.00    +0.000 A 
ATOM     11  C   UNL     1       3.551   5.972  17.671  0.00  0.00    +0.000 A 
ATOM     12  C   UNL     1       2.589   5.335  18.464  0.00  0.00    +0.000 A 
BRANCH   7  14
ATOM     13  C   UNL     1       0.696   2.443  18.831  0.00  0.00    +0.000 C 
ATOM     14  C   UNL     1       1.649   3.296  19.695  0.00  0.00    +0.000 C 
ATOM     15  C   UNL     1       0.806   4.356  20.434  0.00  0.00    +0.000 C 
ATOM     16  C   UNL     1       2.277   2.359  20.749  0.00  0.00    +0.000 C 
ENDBRANCH   7  14
ENDBRANCH   6  10
ENDBRANCH   5   6
ENDBRANCH   3   5
ENDBRANCH   1   3
BRANCH   1  17
ATOM     17  C   UNL     1       8.861   9.132  18.849  0.00  0.00    +0.000 C 
BRANCH  17  18
ATOM     18  C   UNL     1       9.185  10.572  18.584  0.00  0.00    +0.000 A 
ATOM     19  C   UNL     1       8.357  11.351  17.762  0.00  0.00    +0.000 A 
ATOM     20  C   UNL     1       8.645  12.708  17.538  0.00  0.00    +0.000 A 
ATOM     21  C   UNL     1       9.763  13.294  18.131  0.00  0.00    +0.000 A 
ATOM     22  C   UNL     1      10.599  12.514  18.948  0.00  0.00    +0.000 A 
ATOM     23 CL   UNL     1      12.008  13.164  19.704  0.00  0.00    +0.000 Cl
ATOM     24  C   UNL     1      10.306  11.169  19.179  0.00  0.00    +0.000 A 
BRANCH  21  25
ATOM     25  N   UNL     1       9.942  14.705  18.060  0.00  0.00    +0.000 N 
ATOM     26  H   UNL     1      10.622  15.082  17.404  0.00  0.00    +0.000 HD
BRANCH  25  27
ATOM     27  S   UNL     1       9.412  15.755  19.241  0.00  0.00    +0.000 S 
ATOM     28  C   UNL     1       8.561  16.991  18.284  0.00  0.00    +0.000 C 
ATOM     29  O   UNL     1       8.456  15.076  20.097  0.00  0.00    +0.000 OA
ATOM     30  O   UNL     1      10.603  16.365  19.786  0.00  0.00    +0.000 OA
ENDBRANCH  25  27
ENDBRANCH  21  25
ENDBRANCH  17  18
ENDBRANCH   1  17
TORSDOF 9
ENDMDL
MODEL 8
REMARK VINA RESULT:      -7.5      7.192      9.750
REMARK  Name = 
REMARK  13 active torsions:
REMARK  status: ('A' for Active; 'I' for Inactive)
REMARK    1  A    between atoms: C_1  and  C_2
REMARK    2  A    between atoms: C_2  and  C_3
REMARK    3  A    between atoms: C_2  and  C_4
REMARK    4  A    between atoms: C_2  and  C_5
REMARK    5  A    between atoms: C_8  and  C_9
REMARK    6  A    between atoms: C_9  and  C_10
REMARK    7  A    between atoms: C_10  and  C_11
REMARK    8  A    between atoms: C_11  and  N_13
REMARK    9  A    between atoms: N_13  and  C_14
REMARK   10  A    between atoms: C_14  and  C_15
REMARK   11  A    between atoms: C_18  and  N_19
REMARK   12  A    between atoms: N_19  and  S_20
REMARK   13  A    between atoms: S_20  and  C_21
REMARK                            x       y       z     vdW  Elec       q    Type
REMARK                         _______ _______ _______ _____ _____    ______ ____
ROOT
ATOM      1  N   UNL     1       7.853   8.323  17.754  0.00  0.00    +0.000 N 
ATOM      2  H   UNL     1       7.453   8.950  17.070  0.00  0.00    +0.000 HD
ENDROOT
BRANCH   1   3
ATOM      3  C   UNL     1       7.494   6.992  17.732  0.00  0.00    +0.000 C 
ATOM      4  S   UNL     1       7.681   5.935  19.022  0.00  0.00    +0.000 S 
BRANCH   3   5
ATOM      5  C   UNL     1       6.762   6.518  16.474  0.00  0.00    +0.000 C 
BRANCH   5   6
ATOM      6  C   UNL     1       5.280   6.878  16.442  0.00  0.00    +0.000 C 
BRANCH   6  10
ATOM      7  C   UNL     1       2.854   4.236  18.879  0.00  0.00    +0.000 A 
ATOM      8  C   UNL     1       3.542   3.775  17.745  0.00  0.00    +0.000 A 
ATOM      9  C   UNL     1       4.306   4.635  16.958  0.00  0.00    +0.000 A 
ATOM     10  C   UNL     1       4.415   5.987  17.284  0.00  0.00    +0.000 A 
ATOM     11  C   UNL     1       3.741   6.467  18.407  0.00  0.00    +0.000 A 
ATOM     12  C   UNL     1       2.973   5.601  19.193  0.00  0.00    +0.000 A 
BRANCH   7  14
ATOM     13  C   UNL     1       1.390   2.143  18.909  0.00  0.00    +0.000 C 
ATOM     14  C   UNL     1       1.982   3.304  19.737  0.00  0.00    +0.000 C 
ATOM     15  C   UNL     1       0.813   4.101  20.350  0.00  0.00    +0.000 C 
ATOM     16  C   UNL     1       2.796   2.677  20.891  0.00  0.00    +0.000 C 
ENDBRANCH   7  14
ENDBRANCH   6  10
ENDBRANCH   5   6
ENDBRANCH   3   5
ENDBRANCH   1   3
BRANCH   1  17
ATOM     17  C   UNL     1       8.713   8.978  18.720  0.00  0.00    +0.000 C 
BRANCH  17  18
ATOM     18  C   UNL     1       8.943  10.418  18.368  0.00  0.00    +0.000 A 
ATOM     19  C   UNL     1       8.000  11.127  17.608  0.00  0.00    +0.000 A 
ATOM     20  C   UNL     1       8.202  12.483  17.303  0.00  0.00    +0.000 A 
ATOM     21  C   UNL     1       9.348  13.139  17.754  0.00  0.00    +0.000 A 
ATOM     22  C   UNL     1      10.298  12.429  18.508  0.00  0.00    +0.000 A 
ATOM     23 CL   UNL     1      11.746  13.168  19.088  0.00  0.00    +0.000 Cl
ATOM     24  C   UNL     1      10.090  11.085  18.820  0.00  0.00    +0.000 A 
BRANCH  21  25
ATOM     25  N   UNL     1       9.454  14.552  17.611  0.00  0.00    +0.000 N 
ATOM     26  H   UNL     1      10.103  14.930  16.924  0.00  0.00    +0.000 HD
BRANCH  25  27
ATOM     27  S   UNL     1       8.895  15.632  18.750  0.00  0.00    +0.000 S 
ATOM     28  C   UNL     1       8.229  14.547  19.995  0.00  0.00    +0.000 C 
ATOM     29  O   UNL     1      10.015  16.367  19.311  0.00  0.00    +0.000 OA
ATOM     30  O   UNL     1       7.786  16.319  18.129  0.00  0.00    +0.000 OA
ENDBRANCH  25  27
ENDBRANCH  21  25
ENDBRANCH  17  18
ENDBRANCH   1  17
TORSDOF 9
ENDMDL
MODEL 9
REMARK VINA RESULT:      -7.4      6.799      9.296
REMARK  Name = 
REMARK  13 active torsions:
REMARK  status: ('A' for Active; 'I' for Inactive)
REMARK    1  A    between atoms: C_1  and  C_2
REMARK    2  A    between atoms: C_2  and  C_3
REMARK    3  A    between atoms: C_2  and  C_4
REMARK    4  A    between atoms: C_2  and  C_5
REMARK    5  A    between atoms: C_8  and  C_9
REMARK    6  A    between atoms: C_9  and  C_10
REMARK    7  A    between atoms: C_10  and  C_11
REMARK    8  A    between atoms: C_11  and  N_13
REMARK    9  A    between atoms: N_13  and  C_14
REMARK   10  A    between atoms: C_14  and  C_15
REMARK   11  A    between atoms: C_18  and  N_19
REMARK   12  A    between atoms: N_19  and  S_20
REMARK   13  A    between atoms: S_20  and  C_21
REMARK                            x       y       z     vdW  Elec       q    Type
REMARK                         _______ _______ _______ _____ _____    ______ ____
ROOT
ATOM      1  N   UNL     1       7.403   6.693  16.399  0.00  0.00    +0.000 N 
ATOM      2  H   UNL     1       7.732   7.175  15.574  0.00  0.00    +0.000 HD
ENDROOT
BRANCH   1   3
ATOM      3  C   UNL     1       7.721   7.201  17.642  0.00  0.00    +0.000 C 
ATOM      4  S   UNL     1       8.091   6.265  18.984  0.00  0.00    +0.000 S 
BRANCH   3   5
ATOM      5  C   UNL     1       7.860   8.723  17.725  0.00  0.00    +0.000 C 
BRANCH   5   6
ATOM      6  C   UNL     1       8.785   9.204  18.839  0.00  0.00    +0.000 C 
BRANCH   6  10
ATOM      7  C   UNL     1      10.175  13.288  18.401  0.00  0.00    +0.000 A 
ATOM      8  C   UNL     1      10.799  12.382  19.274  0.00  0.00    +0.000 A 
ATOM      9  C   UNL     1      10.336  11.076  19.420  0.00  0.00    +0.000 A 
ATOM     10  C   UNL     1       9.233  10.628  18.692  0.00  0.00    +0.000 A 
ATOM     11  C   UNL     1       8.597  11.511  17.818  0.00  0.00    +0.000 A 
ATOM     12  C   UNL     1       9.064  12.822  17.676  0.00  0.00    +0.000 A 
BRANCH   7  14
ATOM     13  C   UNL     1      11.649  14.905  17.083  0.00  0.00    +0.000 C 
ATOM     14  C   UNL     1      10.657  14.741  18.255  0.00  0.00    +0.000 C 
ATOM     15  C   UNL     1      11.366  15.189  19.549  0.00  0.00    +0.000 C 
ATOM     16  C   UNL     1       9.475  15.702  17.995  0.00  0.00    +0.000 C 
ENDBRANCH   7  14
ENDBRANCH   6  10
ENDBRANCH   5   6
ENDBRANCH   3   5
ENDBRANCH   1   3
BRANCH   1  17
ATOM     17  C   UNL     1       6.685   5.466  16.117  0.00  0.00    +0.000 C 
BRANCH  17  18
ATOM     18  C   UNL     1       5.648   5.180  17.162  0.00  0.00    +0.000 A 
ATOM     19  C   UNL     1       5.761   4.053  17.991  0.00  0.00    +0.000 A 
ATOM     20  C   UNL     1       4.806   3.801  18.990  0.00  0.00    +0.000 A 
ATOM     21  C   UNL     1       3.730   4.671  19.165  0.00  0.00    +0.000 A 
ATOM     22  C   UNL     1       3.610   5.796  18.331  0.00  0.00    +0.000 A 
ATOM     23 CL   UNL     1       2.299   6.910  18.478  0.00  0.00    +0.000 Cl
ATOM     24  C   UNL     1       4.566   6.051  17.347  0.00  0.00    +0.000 A 
BRANCH  21  25
ATOM     25  N   UNL     1       2.877   4.520  20.296  0.00  0.00    +0.000 N 
ATOM     26  H   UNL     1       3.247   4.727  21.221  0.00  0.00    +0.000 HD
BRANCH  25  27
ATOM     27  S   UNL     1       1.453   3.656  20.259  0.00  0.00    +0.000 S 
ATOM     28  C   UNL     1       1.605   2.628  21.704  0.00  0.00    +0.000 C 
ATOM     29  O   UNL     1       0.333   4.562  20.437  0.00  0.00    +0.000 OA
ATOM     30  O   UNL     1       1.544   2.799  19.099  0.00  0.00    +0.000 OA
ENDBRANCH  25  27
ENDBRANCH  21  25
ENDBRANCH  17  18
ENDBRANCH   1  17
TORSDOF 9
ENDMDL
