MODEL 1
REMARK VINA RESULT:      -7.5      0.000      0.000
REMARK  Name = 
REMARK  5 active torsions:
REMARK  status: ('A' for Active; 'I' for Inactive)
REMARK    1  A    between atoms: N_1  and  C_2
REMARK    2  A    between atoms: C_7  and  C_8
REMARK    3  A    between atoms: C_8  and  C_9
REMARK    4  A    between atoms: C_9  and  C_10
REMARK    5  A    between atoms: C_15  and  N_16
REMARK                            x       y       z     vdW  Elec       q    Type
REMARK                         _______ _______ _______ _____ _____    ______ ____
ROOT
ATOM      1  C   UNL     1       4.387   5.404  16.980  0.00  0.00    +0.000 C 
ENDROOT
BRANCH   1   7
ATOM      2  C   UNL     1       6.315   5.194  18.675  0.00  0.00    +0.000 A 
ATOM      3  C   UNL     1       7.553   5.668  19.141  0.00  0.00    +0.000 A 
ATOM      4  C   UNL     1       8.125   6.833  18.629  0.00  0.00    +0.000 A 
ATOM      5  C   UNL     1       7.492   7.517  17.601  0.00  0.00    +0.000 A 
ATOM      6  C   UNL     1       6.290   7.032  17.088  0.00  0.00    +0.000 A 
ATOM      7  C   UNL     1       5.689   5.867  17.609  0.00  0.00    +0.000 A 
BRANCH   2   8
ATOM      8  N   UNL     1       5.867   3.949  19.139  0.00  0.00    +0.000 N 
ATOM      9  H   UNL     1       6.264   3.682  20.035  0.00  0.00    +0.000 HD
ATOM     10  H   UNL     1       4.860   3.834  19.127  0.00  0.00    +0.000 HD
ENDBRANCH   2   8
ENDBRANCH   1   7
BRANCH   1  11
ATOM     11  C   UNL     1       3.148   5.899  17.740  0.00  0.00    +0.000 C 
BRANCH  11  12
ATOM     12  C   UNL     1       2.331   4.871  18.514  0.00  0.00    +0.000 A 
ATOM     13  C   UNL     1       1.826   3.708  17.903  0.00  0.00    +0.000 A 
ATOM     14  C   UNL     1       1.064   2.782  18.622  0.00  0.00    +0.000 A 
ATOM     15  C   UNL     1       0.778   3.008  19.962  0.00  0.00    +0.000 A 
ATOM     16  C   UNL     1       1.270   4.153  20.584  0.00  0.00    +0.000 A 
ATOM     17  C   UNL     1       2.085   5.063  19.894  0.00  0.00    +0.000 A 
BRANCH  17  18
ATOM     18  N   UNL     1       2.445   6.254  20.548  0.00  0.00    +0.000 N 
ATOM     19  H   UNL     1       3.350   6.209  21.005  0.00  0.00    +0.000 HD
ATOM     20  H   UNL     1       2.351   7.087  19.977  0.00  0.00    +0.000 HD
ENDBRANCH  17  18
ENDBRANCH  11  12
ENDBRANCH   1  11
TORSDOF 5
ENDMDL
MODEL 2
REMARK VINA RESULT:      -7.5      0.197      5.767
REMARK  Name = 
REMARK  5 active torsions:
REMARK  status: ('A' for Active; 'I' for Inactive)
REMARK    1  A    between atoms: N_1  and  C_2
REMARK    2  A    between atoms: C_7  and  C_8
REMARK    3  A    between atoms: C_8  and  C_9
REMARK    4  A    between atoms: C_9  and  C_10
REMARK    5  A    between atoms: C_15  and  N_16
REMARK                            x       y       z     vdW  Elec       q    Type
REMARK                         _______ _______ _______ _____ _____    ______ ____
ROOT
ATOM      1  C   UNL     1       2.989   6.066  17.942  0.00  0.00    +0.000 C 
ENDROOT
BRANCH   1   7
ATOM      2  C   UNL     1       1.950   5.018  20.053  0.00  0.00    +0.000 A 
ATOM      3  C   UNL     1       1.195   3.980  20.624  0.00  0.00    +0.000 A 
ATOM      4  C   UNL     1       0.807   2.867  19.878  0.00  0.00    +0.000 A 
ATOM      5  C   UNL     1       1.123   2.800  18.528  0.00  0.00    +0.000 A 
ATOM      6  C   UNL     1       1.825   3.846  17.931  0.00  0.00    +0.000 A 
ATOM      7  C   UNL     1       2.242   4.967  18.677  0.00  0.00    +0.000 A 
BRANCH   2   8
ATOM      8  N   UNL     1       2.190   6.164  20.826  0.00  0.00    +0.000 N 
ATOM      9  H   UNL     1       2.071   7.033  20.314  0.00  0.00    +0.000 HD
ATOM     10  H   UNL     1       1.700   6.183  21.713  0.00  0.00    +0.000 HD
ENDBRANCH   2   8
ENDBRANCH   1   7
BRANCH   1  11
ATOM     11  C   UNL     1       4.222   5.547  17.189  0.00  0.00    +0.000 C 
BRANCH  11  12
ATOM     12  C   UNL     1       5.595   5.988  17.684  0.00  0.00    +0.000 A 
ATOM     13  C   UNL     1       6.224   7.150  17.199  0.00  0.00    +0.000 A 
ATOM     14  C   UNL     1       7.490   7.532  17.651  0.00  0.00    +0.000 A 
ATOM     15  C   UNL     1       8.160   6.752  18.585  0.00  0.00    +0.000 A 
ATOM     16  C   UNL     1       7.553   5.599  19.077  0.00  0.00    +0.000 A 
ATOM     17  C   UNL     1       6.259   5.232  18.679  0.00  0.00    +0.000 A 
BRANCH  17  18
ATOM     18  N   UNL     1       5.758   3.996  19.123  0.00  0.00    +0.000 N 
ATOM     19  H   UNL     1       6.406   3.225  18.995  0.00  0.00    +0.000 HD
ATOM     20  H   UNL     1       5.374   4.016  20.063  0.00  0.00    +0.000 HD
ENDBRANCH  17  18
ENDBRANCH  11  12
ENDBRANCH   1  11
TORSDOF 5
ENDMDL
MODEL 3
REMARK VINA RESULT:      -7.3      1.857      2.541
REMARK  Name = 
REMARK  5 active torsions:
REMARK  status: ('A' for Active; 'I' for Inactive)
REMARK    1  A    between atoms: N_1  and  C_2
REMARK    2  A    between atoms: C_7  and  C_8
REMARK    3  A    between atoms: C_8  and  C_9
REMARK    4  A    between atoms: C_9  and  C_10
REMARK    5  A    between atoms: C_15  and  N_16
REMARK                            x       y       z     vdW  Elec       q    Type
REMARK                         _______ _______ _______ _____ _____    ______ ____
ROOT
ATOM      1  C   UNL     1       4.152   4.645  17.103  0.00  0.00    +0.000 C 
ENDROOT
BRANCH   1   7
ATOM      2  C   UNL     1       6.096   6.285  16.696  0.00  0.00    +0.000 A 
ATOM      3  C   UNL     1       7.245   6.923  17.193  0.00  0.00    +0.000 A 
ATOM      4  C   UNL     1       7.791   6.578  18.430  0.00  0.00    +0.000 A 
ATOM      5  C   UNL     1       7.162   5.623  19.218  0.00  0.00    +0.000 A 
ATOM      6  C   UNL     1       5.991   5.019  18.765  0.00  0.00    +0.000 A 
ATOM      7  C   UNL     1       5.439   5.342  17.508  0.00  0.00    +0.000 A 
BRANCH   2   8
ATOM      8  N   UNL     1       5.529   6.775  15.510  0.00  0.00    +0.000 N 
ATOM      9  H   UNL     1       4.629   6.360  15.288  0.00  0.00    +0.000 HD
ATOM     10  H   UNL     1       5.502   7.785  15.443  0.00  0.00    +0.000 HD
ENDBRANCH   2   8
ENDBRANCH   1   7
BRANCH   1  11
ATOM     11  C   UNL     1       3.977   3.277  17.778  0.00  0.00    +0.000 C 
BRANCH  11  12
ATOM     12  C   UNL     1       3.099   3.204  19.021  0.00  0.00    +0.000 A 
ATOM     13  C   UNL     1       1.823   3.798  19.068  0.00  0.00    +0.000 A 
ATOM     14  C   UNL     1       1.036   3.737  20.222  0.00  0.00    +0.000 A 
ATOM     15  C   UNL     1       1.515   3.097  21.357  0.00  0.00    +0.000 A 
ATOM     16  C   UNL     1       2.775   2.503  21.330  0.00  0.00    +0.000 A 
ATOM     17  C   UNL     1       3.554   2.503  20.163  0.00  0.00    +0.000 A 
BRANCH  17  18
ATOM     18  N   UNL     1       4.861   1.991  20.242  0.00  0.00    +0.000 N 
ATOM     19  H   UNL     1       5.041   1.466  21.091  0.00  0.00    +0.000 HD
ATOM     20  H   UNL     1       5.161   1.487  19.414  0.00  0.00    +0.000 HD
ENDBRANCH  17  18
ENDBRANCH  11  12
ENDBRANCH   1  11
TORSDOF 5
ENDMDL
MODEL 4
REMARK VINA RESULT:      -7.2      1.991      5.669
REMARK  Name = 
REMARK  5 active torsions:
REMARK  status: ('A' for Active; 'I' for Inactive)
REMARK    1  A    between atoms: N_1  and  C_2
REMARK    2  A    between atoms: C_7  and  C_8
REMARK    3  A    between atoms: C_8  and  C_9
REMARK    4  A    between atoms: C_9  and  C_10
REMARK    5  A    between atoms: C_15  and  N_16
REMARK                            x       y       z     vdW  Elec       q    Type
REMARK                         _______ _______ _______ _____ _____    ______ ____
ROOT
ATOM      1  C   UNL     1       3.221   2.876  17.571  0.00  0.00    +0.000 C 
ENDROOT
BRANCH   1   7
ATOM      2  C   UNL     1       3.403   2.420  20.100  0.00  0.00    +0.000 A 
ATOM      3  C   UNL     1       2.843   2.554  21.381  0.00  0.00    +0.000 A 
ATOM      4  C   UNL     1       1.561   3.074  21.565  0.00  0.00    +0.000 A 
ATOM      5  C   UNL     1       0.836   3.520  20.468  0.00  0.00    +0.000 A 
ATOM      6  C   UNL     1       1.397   3.446  19.194  0.00  0.00    +0.000 A 
ATOM      7  C   UNL     1       2.683   2.904  18.991  0.00  0.00    +0.000 A 
BRANCH   2   8
ATOM      8  N   UNL     1       4.743   2.016  20.003  0.00  0.00    +0.000 N 
ATOM      9  H   UNL     1       4.984   1.255  20.630  0.00  0.00    +0.000 HD
ATOM     10  H   UNL     1       5.060   1.836  19.057  0.00  0.00    +0.000 HD
ENDBRANCH   2   8
ENDBRANCH   1   7
BRANCH   1  11
ATOM     11  C   UNL     1       3.799   4.227  17.126  0.00  0.00    +0.000 C 
BRANCH  11  12
ATOM     12  C   UNL     1       5.191   4.602  17.623  0.00  0.00    +0.000 A 
ATOM     13  C   UNL     1       5.389   5.306  18.826  0.00  0.00    +0.000 A 
ATOM     14  C   UNL     1       6.671   5.657  19.260  0.00  0.00    +0.000 A 
ATOM     15  C   UNL     1       7.779   5.325  18.492  0.00  0.00    +0.000 A 
ATOM     16  C   UNL     1       7.604   4.629  17.299  0.00  0.00    +0.000 A 
ATOM     17  C   UNL     1       6.331   4.216  16.877  0.00  0.00    +0.000 A 
BRANCH  17  18
ATOM     18  N   UNL     1       6.215   3.624  15.608  0.00  0.00    +0.000 N 
ATOM     19  H   UNL     1       5.317   3.785  15.165  0.00  0.00    +0.000 HD
ATOM     20  H   UNL     1       6.988   3.827  14.982  0.00  0.00    +0.000 HD
ENDBRANCH  17  18
ENDBRANCH  11  12
ENDBRANCH   1  11
TORSDOF 5
ENDMDL
MODEL 5
REMARK VINA RESULT:      -7.2      2.006      2.606
REMARK  Name = 
REMARK  5 active torsions:
REMARK  status: ('A' for Active; 'I' for Inactive)
REMARK    1  A    between atoms: N_1  and  C_2
REMARK    2  A    between atoms: C_7  and  C_8
REMARK    3  A    between atoms: C_8  and  C_9
REMARK    4  A    between atoms: C_9  and  C_10
REMARK    5  A    between atoms: C_15  and  N_16
REMARK                            x       y       z     vdW  Elec       q    Type
REMARK                         _______ _______ _______ _____ _____    ______ ____
ROOT
ATOM      1  C   UNL     1       3.762   3.974  16.921  0.00  0.00    +0.000 C 
ENDROOT
BRANCH   1   7
ATOM      2  C   UNL     1       6.326   4.086  16.693  0.00  0.00    +0.000 A 
ATOM      3  C   UNL     1       7.546   4.600  17.163  0.00  0.00    +0.000 A 
ATOM      4  C   UNL     1       7.615   5.351  18.337  0.00  0.00    +0.000 A 
ATOM      5  C   UNL     1       6.451   5.648  19.034  0.00  0.00    +0.000 A 
ATOM      6  C   UNL     1       5.225   5.192  18.553  0.00  0.00    +0.000 A 
ATOM      7  C   UNL     1       5.142   4.414  17.379  0.00  0.00    +0.000 A 
BRANCH   2   8
ATOM      8  N   UNL     1       6.313   3.455  15.440  0.00  0.00    +0.000 N 
ATOM      9  H   UNL     1       5.966   2.501  15.469  0.00  0.00    +0.000 HD
ATOM     10  H   UNL     1       5.871   3.992  14.704  0.00  0.00    +0.000 HD
ENDBRANCH   2   8
ENDBRANCH   1   7
BRANCH   1  11
ATOM     11  C   UNL     1       3.292   2.682  17.605  0.00  0.00    +0.000 C 
BRANCH  11  12
ATOM     12  C   UNL     1       2.691   2.795  19.001  0.00  0.00    +0.000 A 
ATOM     13  C   UNL     1       1.390   3.290  19.215  0.00  0.00    +0.000 A 
ATOM     14  C   UNL     1       0.859   3.403  20.503  0.00  0.00    +0.000 A 
ATOM     15  C   UNL     1       1.623   3.039  21.604  0.00  0.00    +0.000 A 
ATOM     16  C   UNL     1       2.911   2.548  21.413  0.00  0.00    +0.000 A 
ATOM     17  C   UNL     1       3.439   2.371  20.125  0.00  0.00    +0.000 A 
BRANCH  17  18
ATOM     18  N   UNL     1       4.786   1.984  20.011  0.00  0.00    +0.000 N 
ATOM     19  H   UNL     1       5.439   2.682  20.352  0.00  0.00    +0.000 HD
ATOM     20  H   UNL     1       4.987   1.062  20.384  0.00  0.00    +0.000 HD
ENDBRANCH  17  18
ENDBRANCH  11  12
ENDBRANCH   1  11
TORSDOF 5
ENDMDL
MODEL 6
REMARK VINA RESULT:      -7.1      1.317      1.773
REMARK  Name = 
REMARK  5 active torsions:
REMARK  status: ('A' for Active; 'I' for Inactive)
REMARK    1  A    between atoms: N_1  and  C_2
REMARK    2  A    between atoms: C_7  and  C_8
REMARK    3  A    between atoms: C_8  and  C_9
REMARK    4  A    between atoms: C_9  and  C_10
REMARK    5  A    between atoms: C_15  and  N_16
REMARK                            x       y       z     vdW  Elec       q    Type
REMARK                         _______ _______ _______ _____ _____    ______ ____
ROOT
ATOM      1  C   UNL     1       4.519   4.328  17.056  0.00  0.00    +0.000 C 
ENDROOT
BRANCH   1   7
ATOM      2  C   UNL     1       6.252   6.201  16.706  0.00  0.00    +0.000 A 
ATOM      3  C   UNL     1       7.303   6.970  17.233  0.00  0.00    +0.000 A 
ATOM      4  C   UNL     1       7.863   6.681  18.478  0.00  0.00    +0.000 A 
ATOM      5  C   UNL     1       7.342   5.647  19.244  0.00  0.00    +0.000 A 
ATOM      6  C   UNL     1       6.263   4.907  18.761  0.00  0.00    +0.000 A 
ATOM      7  C   UNL     1       5.701   5.174  17.495  0.00  0.00    +0.000 A 
BRANCH   2   8
ATOM      8  N   UNL     1       5.653   6.630  15.512  0.00  0.00    +0.000 N 
ATOM      9  H   UNL     1       5.721   5.954  14.757  0.00  0.00    +0.000 HD
ATOM     10  H   UNL     1       4.708   6.979  15.618  0.00  0.00    +0.000 HD
ENDBRANCH   2   8
ENDBRANCH   1   7
BRANCH   1  11
ATOM     11  C   UNL     1       3.167   4.944  17.446  0.00  0.00    +0.000 C 
BRANCH  11  12
ATOM     12  C   UNL     1       2.378   4.275  18.565  0.00  0.00    +0.000 A 
ATOM     13  C   UNL     1       1.568   3.147  18.335  0.00  0.00    +0.000 A 
ATOM     14  C   UNL     1       0.837   2.555  19.369  0.00  0.00    +0.000 A 
ATOM     15  C   UNL     1       0.887   3.088  20.650  0.00  0.00    +0.000 A 
ATOM     16  C   UNL     1       1.683   4.204  20.897  0.00  0.00    +0.000 A 
ATOM     17  C   UNL     1       2.470   4.775  19.886  0.00  0.00    +0.000 A 
BRANCH  17  18
ATOM     18  N   UNL     1       3.154   5.969  20.176  0.00  0.00    +0.000 N 
ATOM     19  H   UNL     1       3.268   6.577  19.372  0.00  0.00    +0.000 HD
ATOM     20  H   UNL     1       2.794   6.469  20.982  0.00  0.00    +0.000 HD
ENDBRANCH  17  18
ENDBRANCH  11  12
ENDBRANCH   1  11
TORSDOF 5
ENDMDL
MODEL 7
REMARK VINA RESULT:      -7.1      1.583      5.400
REMARK  Name = 
REMARK  5 active torsions:
REMARK  status: ('A' for Active; 'I' for Inactive)
REMARK    1  A    between atoms: N_1  and  C_2
REMARK    2  A    between atoms: C_7  and  C_8
REMARK    3  A    between atoms: C_8  and  C_9
REMARK    4  A    between atoms: C_9  and  C_10
REMARK    5  A    between atoms: C_15  and  N_16
REMARK                            x       y       z     vdW  Elec       q    Type
REMARK                         _______ _______ _______ _____ _____    ______ ____
ROOT
ATOM      1  C   UNL     1       2.293   4.269  17.464  0.00  0.00    +0.000 C 
ENDROOT
BRANCH   1   7
ATOM      2  C   UNL     1       1.694   2.659  19.383  0.00  0.00    +0.000 A 
ATOM      3  C   UNL     1       1.607   2.429  20.766  0.00  0.00    +0.000 A 
ATOM      4  C   UNL     1       1.827   3.452  21.689  0.00  0.00    +0.000 A 
ATOM      5  C   UNL     1       2.192   4.715  21.243  0.00  0.00    +0.000 A 
ATOM      6  C   UNL     1       2.336   4.948  19.877  0.00  0.00    +0.000 A 
ATOM      7  C   UNL     1       2.097   3.930  18.931  0.00  0.00    +0.000 A 
BRANCH   2   8
ATOM      8  N   UNL     1       1.592   1.557  18.521  0.00  0.00    +0.000 N 
ATOM      9  H   UNL     1       0.886   0.883  18.805  0.00  0.00    +0.000 HD
ATOM     10  H   UNL     1       1.507   1.796  17.541  0.00  0.00    +0.000 HD
ENDBRANCH   2   8
ENDBRANCH   1   7
BRANCH   1  11
ATOM     11  C   UNL     1       3.689   3.891  16.946  0.00  0.00    +0.000 C 
BRANCH  11  12
ATOM     12  C   UNL     1       4.847   4.824  17.278  0.00  0.00    +0.000 A 
ATOM     13  C   UNL     1       5.102   5.990  16.532  0.00  0.00    +0.000 A 
ATOM     14  C   UNL     1       6.179   6.828  16.840  0.00  0.00    +0.000 A 
ATOM     15  C   UNL     1       7.031   6.508  17.888  0.00  0.00    +0.000 A 
ATOM     16  C   UNL     1       6.795   5.358  18.638  0.00  0.00    +0.000 A 
ATOM     17  C   UNL     1       5.685   4.538  18.382  0.00  0.00    +0.000 A 
BRANCH  17  18
ATOM     18  N   UNL     1       5.576   3.333  19.098  0.00  0.00    +0.000 N 
ATOM     19  H   UNL     1       5.852   3.413  20.071  0.00  0.00    +0.000 HD
ATOM     20  H   UNL     1       4.679   2.869  18.996  0.00  0.00    +0.000 HD
ENDBRANCH  17  18
ENDBRANCH  11  12
ENDBRANCH   1  11
TORSDOF 5
ENDMDL
MODEL 8
REMARK VINA RESULT:      -7.0      1.679      2.390
REMARK  Name = 
REMARK  5 active torsions:
REMARK  status: ('A' for Active; 'I' for Inactive)
REMARK    1  A    between atoms: N_1  and  C_2
REMARK    2  A    between atoms: C_7  and  C_8
REMARK    3  A    between atoms: C_8  and  C_9
REMARK    4  A    between atoms: C_9  and  C_10
REMARK    5  A    between atoms: C_15  and  N_16
REMARK                            x       y       z     vdW  Elec       q    Type
REMARK                         _______ _______ _______ _____ _____    ______ ____
ROOT
ATOM      1  C   UNL     1       3.682   4.358  17.015  0.00  0.00    +0.000 C 
ENDROOT
BRANCH   1   7
ATOM      2  C   UNL     1       5.306   5.443  18.695  0.00  0.00    +0.000 A 
ATOM      3  C   UNL     1       6.633   5.662  19.103  0.00  0.00    +0.000 A 
ATOM      4  C   UNL     1       7.712   5.250  18.321  0.00  0.00    +0.000 A 
ATOM      5  C   UNL     1       7.482   4.560  17.138  0.00  0.00    +0.000 A 
ATOM      6  C   UNL     1       6.173   4.286  16.745  0.00  0.00    +0.000 A 
ATOM      7  C   UNL     1       5.072   4.714  17.514  0.00  0.00    +0.000 A 
BRANCH   2   8
ATOM      8  N   UNL     1       4.277   5.765  19.592  0.00  0.00    +0.000 N 
ATOM      9  H   UNL     1       4.455   6.608  20.129  0.00  0.00    +0.000 HD
ATOM     10  H   UNL     1       3.350   5.770  19.183  0.00  0.00    +0.000 HD
ENDBRANCH   2   8
ENDBRANCH   1   7
BRANCH   1  11
ATOM     11  C   UNL     1       3.195   2.997  17.533  0.00  0.00    +0.000 C 
BRANCH  11  12
ATOM     12  C   UNL     1       2.628   2.936  18.947  0.00  0.00    +0.000 A 
ATOM     13  C   UNL     1       1.324   3.376  19.246  0.00  0.00    +0.000 A 
ATOM     14  C   UNL     1       0.824   3.329  20.551  0.00  0.00    +0.000 A 
ATOM     15  C   UNL     1       1.623   2.857  21.585  0.00  0.00    +0.000 A 
ATOM     16  C   UNL     1       2.915   2.418  21.308  0.00  0.00    +0.000 A 
ATOM     17  C   UNL     1       3.412   2.402  19.996  0.00  0.00    +0.000 A 
BRANCH  17  18
ATOM     18  N   UNL     1       4.763   2.060  19.806  0.00  0.00    +0.000 N 
ATOM     19  H   UNL     1       5.160   2.434  18.951  0.00  0.00    +0.000 HD
ATOM     20  H   UNL     1       5.355   2.242  20.610  0.00  0.00    +0.000 HD
ENDBRANCH  17  18
ENDBRANCH  11  12
ENDBRANCH   1  11
TORSDOF 5
ENDMDL
MODEL 9
REMARK VINA RESULT:      -7.0      1.258      5.503
REMARK  Name = 
REMARK  5 active torsions:
REMARK  status: ('A' for Active; 'I' for Inactive)
REMARK    1  A    between atoms: N_1  and  C_2
REMARK    2  A    between atoms: C_7  and  C_8
REMARK    3  A    between atoms: C_8  and  C_9
REMARK    4  A    between atoms: C_9  and  C_10
REMARK    5  A    between atoms: C_15  and  N_16
REMARK                            x       y       z     vdW  Elec       q    Type
REMARK                         _______ _______ _______ _____ _____    ______ ____
ROOT
ATOM      1  C   UNL     1       2.618   6.364  17.957  0.00  0.00    +0.000 C 
ENDROOT
BRANCH   1   7
ATOM      2  C   UNL     1       1.833   5.069  20.040  0.00  0.00    +0.000 A 
ATOM      3  C   UNL     1       1.293   3.890  20.581  0.00  0.00    +0.000 A 
ATOM      4  C   UNL     1       1.101   2.751  19.797  0.00  0.00    +0.000 A 
ATOM      5  C   UNL     1       1.397   2.791  18.441  0.00  0.00    +0.000 A 
ATOM      6  C   UNL     1       1.882   3.969  17.876  0.00  0.00    +0.000 A 
ATOM      7  C   UNL     1       2.101   5.121  18.659  0.00  0.00    +0.000 A 
BRANCH   2   8
ATOM      8  N   UNL     1       1.873   6.211  20.853  0.00  0.00    +0.000 N 
ATOM      9  H   UNL     1       2.727   6.751  20.754  0.00  0.00    +0.000 HD
ATOM     10  H   UNL     1       1.049   6.798  20.794  0.00  0.00    +0.000 HD
ENDBRANCH   2   8
ENDBRANCH   1   7
BRANCH   1  11
ATOM     11  C   UNL     1       4.110   6.617  18.215  0.00  0.00    +0.000 C 
BRANCH  11  12
ATOM     12  C   UNL     1       5.117   5.906  17.319  0.00  0.00    +0.000 A 
ATOM     13  C   UNL     1       5.027   5.950  15.915  0.00  0.00    +0.000 A 
ATOM     14  C   UNL     1       5.949   5.278  15.106  0.00  0.00    +0.000 A 
ATOM     15  C   UNL     1       6.969   4.535  15.685  0.00  0.00    +0.000 A 
ATOM     16  C   UNL     1       7.075   4.480  17.073  0.00  0.00    +0.000 A 
ATOM     17  C   UNL     1       6.196   5.196  17.899  0.00  0.00    +0.000 A 
BRANCH  17  18
ATOM     18  N   UNL     1       6.286   4.999  19.288  0.00  0.00    +0.000 N 
ATOM     19  H   UNL     1       5.434   4.637  19.703  0.00  0.00    +0.000 HD
ATOM     20  H   UNL     1       7.103   4.472  19.580  0.00  0.00    +0.000 HD
ENDBRANCH  17  18
ENDBRANCH  11  12
ENDBRANCH   1  11
TORSDOF 5
ENDMDL
