MODEL 1
REMARK VINA RESULT:      -8.4      0.000      0.000
REMARK  Name = 
REMARK  3 active torsions:
REMARK  status: ('A' for Active; 'I' for Inactive)
REMARK    1  A    between atoms: C_1  and  C_2
REMARK    2  A    between atoms: C_2  and  C_3
REMARK    3  A    between atoms: C_8  and  C_9
REMARK                            x       y       z     vdW  Elec       q    Type
REMARK                         _______ _______ _______ _____ _____    ______ ____
ROOT
ATOM      1  C   UNL     1       4.856   3.496  16.791  0.00  0.00    +0.000 C 
ATOM      2  C   UNL     1       4.288   4.379  17.924  0.00  0.00    +0.000 C 
ATOM      3  C   UNL     1       5.396   4.433  18.988  0.00  0.00    +0.000 C 
ATOM      4  O   UNL     1       4.153   5.703  17.380  0.00  0.00    +0.000 OA
ATOM      5  C   UNL     1       3.235   6.552  17.938  0.00  0.00    +0.000 A 
ATOM      6  C   UNL     1       3.368   7.867  17.521  0.00  0.00    +0.000 A 
ATOM      7  C   UNL     1       2.549   8.857  18.058  0.00  0.00    +0.000 A 
ATOM      8  C   UNL     1       1.495   8.560  18.939  0.00  0.00    +0.000 A 
ATOM      9  C   UNL     1       1.344   7.199  19.307  0.00  0.00    +0.000 A 
ATOM     10  C   UNL     1       2.242   6.201  18.870  0.00  0.00    +0.000 A 
ATOM     11  C   UNL     1       2.318   4.835  19.530  0.00  0.00    +0.000 C 
ATOM     12  C   UNL     1       3.072   5.052  20.848  0.00  0.00    +0.000 C 
ATOM     13  O   UNL     1       2.805   3.876  21.573  0.00  0.00    +0.000 OA
ATOM     14  C   UNL     1       1.561   3.585  21.135  0.00  0.00    +0.000 C 
ATOM     15  N   UNL     1       1.016   2.602  21.898  0.00  0.00    +0.000 N 
ATOM     16  N   UNL     1       1.093   4.171  20.083  0.00  0.00    +0.000 NA
ATOM     17  C   UNL     1       2.916   3.883  18.450  0.00  0.00    +0.000 C 
ATOM     18  C   UNL     1       2.700   2.334  18.549  0.00  0.00    +0.000 C 
ATOM     19  O   UNL     1       2.233   2.287  17.173  0.00  0.00    +0.000 OA
ATOM     20  C   UNL     1       1.902   3.700  17.255  0.00  0.00    +0.000 C 
ATOM     21  H   UNL     1       1.702   2.230  22.553  0.00  0.00    +0.000 HD
ATOM     22  H   UNL     1       0.609   1.856  21.348  0.00  0.00    +0.000 HD
ENDROOT
BRANCH   8  23
ATOM     23  C   UNL     1       0.678   9.651  19.561  0.00  0.00    +0.000 A 
ATOM     24  C   UNL     1       0.011  10.559  18.711  0.00  0.00    +0.000 A 
ATOM     25  C   UNL     1      -0.835  11.526  19.232  0.00  0.00    +0.000 A 
ATOM     26  N   UNL     1      -1.101  11.649  20.539  0.00  0.00    +0.000 NA
ATOM     27  C   UNL     1      -0.456  10.796  21.363  0.00  0.00    +0.000 A 
ATOM     28 CL   UNL     1      -0.925  11.029  23.012  0.00  0.00    +0.000 Cl
ATOM     29  C   UNL     1       0.455   9.815  20.952  0.00  0.00    +0.000 A 
ATOM     30 CL   UNL     1       1.302   8.899  22.160  0.00  0.00    +0.000 Cl
ENDBRANCH   8  23
TORSDOF 1
ENDMDL
MODEL 2
REMARK VINA RESULT:      -8.2      1.326      1.570
REMARK  Name = 
REMARK  3 active torsions:
REMARK  status: ('A' for Active; 'I' for Inactive)
REMARK    1  A    between atoms: C_1  and  C_2
REMARK    2  A    between atoms: C_2  and  C_3
REMARK    3  A    between atoms: C_8  and  C_9
REMARK                            x       y       z     vdW  Elec       q    Type
REMARK                         _______ _______ _______ _____ _____    ______ ____
ROOT
ATOM      1  C   UNL     1       4.780   3.648  16.767  0.00  0.00    +0.000 C 
ATOM      2  C   UNL     1       4.215   4.490  17.933  0.00  0.00    +0.000 C 
ATOM      3  C   UNL     1       5.342   4.542  18.976  0.00  0.00    +0.000 C 
ATOM      4  O   UNL     1       4.041   5.825  17.424  0.00  0.00    +0.000 OA
ATOM      5  C   UNL     1       3.116   6.638  18.022  0.00  0.00    +0.000 A 
ATOM      6  C   UNL     1       3.212   7.966  17.635  0.00  0.00    +0.000 A 
ATOM      7  C   UNL     1       2.383   8.925  18.213  0.00  0.00    +0.000 A 
ATOM      8  C   UNL     1       1.353   8.582  19.106  0.00  0.00    +0.000 A 
ATOM      9  C   UNL     1       1.238   7.209  19.442  0.00  0.00    +0.000 A 
ATOM     10  C   UNL     1       2.149   6.242  18.962  0.00  0.00    +0.000 A 
ATOM     11  C   UNL     1       2.267   4.862  19.586  0.00  0.00    +0.000 C 
ATOM     12  C   UNL     1       3.041   5.063  20.895  0.00  0.00    +0.000 C 
ATOM     13  O   UNL     1       2.814   3.864  21.595  0.00  0.00    +0.000 OA
ATOM     14  C   UNL     1       1.569   3.556  21.173  0.00  0.00    +0.000 C 
ATOM     15  N   UNL     1       1.060   2.542  21.921  0.00  0.00    +0.000 N 
ATOM     16  N   UNL     1       1.068   4.158  20.145  0.00  0.00    +0.000 NA
ATOM     17  C   UNL     1       2.864   3.951  18.472  0.00  0.00    +0.000 C 
ATOM     18  C   UNL     1       2.684   2.396  18.535  0.00  0.00    +0.000 C 
ATOM     19  O   UNL     1       2.192   2.373  17.167  0.00  0.00    +0.000 OA
ATOM     20  C   UNL     1       1.832   3.775  17.292  0.00  0.00    +0.000 C 
ATOM     21  H   UNL     1       1.766   2.170  22.553  0.00  0.00    +0.000 HD
ATOM     22  H   UNL     1       0.658   1.802  21.360  0.00  0.00    +0.000 HD
ENDROOT
BRANCH   8  23
ATOM     23  C   UNL     1       0.524   9.639  19.771  0.00  0.00    +0.000 A 
ATOM     24  C   UNL     1       0.852  10.015  21.091  0.00  0.00    +0.000 A 
ATOM     25  C   UNL     1       0.181  11.055  21.718  0.00  0.00    +0.000 A 
ATOM     26  N   UNL     1      -0.779  11.779  21.126  0.00  0.00    +0.000 NA
ATOM     27  C   UNL     1      -1.111  11.417  19.868  0.00  0.00    +0.000 A 
ATOM     28 CL   UNL     1      -2.322  12.459  19.206  0.00  0.00    +0.000 Cl
ATOM     29  C   UNL     1      -0.534  10.355  19.158  0.00  0.00    +0.000 A 
ATOM     30 CL   UNL     1      -1.183   9.938  17.602  0.00  0.00    +0.000 Cl
ENDBRANCH   8  23
TORSDOF 1
ENDMDL
MODEL 3
REMARK VINA RESULT:      -7.9      1.339      1.669
REMARK  Name = 
REMARK  3 active torsions:
REMARK  status: ('A' for Active; 'I' for Inactive)
REMARK    1  A    between atoms: C_1  and  C_2
REMARK    2  A    between atoms: C_2  and  C_3
REMARK    3  A    between atoms: C_8  and  C_9
REMARK                            x       y       z     vdW  Elec       q    Type
REMARK                         _______ _______ _______ _____ _____    ______ ____
ROOT
ATOM      1  C   UNL     1       4.163   3.649  16.733  0.00  0.00    +0.000 C 
ATOM      2  C   UNL     1       3.809   4.372  18.051  0.00  0.00    +0.000 C 
ATOM      3  C   UNL     1       5.084   4.301  18.906  0.00  0.00    +0.000 C 
ATOM      4  O   UNL     1       3.597   5.754  17.714  0.00  0.00    +0.000 OA
ATOM      5  C   UNL     1       2.798   6.513  18.528  0.00  0.00    +0.000 A 
ATOM      6  C   UNL     1       2.872   7.872  18.267  0.00  0.00    +0.000 A 
ATOM      7  C   UNL     1       2.169   8.775  19.062  0.00  0.00    +0.000 A 
ATOM      8  C   UNL     1       1.278   8.354  20.065  0.00  0.00    +0.000 A 
ATOM      9  C   UNL     1       1.178   6.955  20.273  0.00  0.00    +0.000 A 
ATOM     10  C   UNL     1       1.976   6.033  19.563  0.00  0.00    +0.000 A 
ATOM     11  C   UNL     1       2.149   4.593  20.018  0.00  0.00    +0.000 C 
ATOM     12  C   UNL     1       3.121   4.647  21.203  0.00  0.00    +0.000 C 
ATOM     13  O   UNL     1       2.970   3.384  21.805  0.00  0.00    +0.000 OA
ATOM     14  C   UNL     1       1.666   3.138  21.553  0.00  0.00    +0.000 C 
ATOM     15  N   UNL     1       1.250   2.058  22.265  0.00  0.00    +0.000 N 
ATOM     16  N   UNL     1       1.031   3.849  20.682  0.00  0.00    +0.000 NA
ATOM     17  C   UNL     1       2.542   3.796  18.737  0.00  0.00    +0.000 C 
ATOM     18  C   UNL     1       2.329   2.246  18.670  0.00  0.00    +0.000 C 
ATOM     19  O   UNL     1       1.632   2.372  17.400  0.00  0.00    +0.000 OA
ATOM     20  C   UNL     1       1.335   3.758  17.721  0.00  0.00    +0.000 C 
ATOM     21  H   UNL     1       2.034   1.612  22.738  0.00  0.00    +0.000 HD
ATOM     22  H   UNL     1       0.745   1.385  21.701  0.00  0.00    +0.000 HD
ENDROOT
BRANCH   8  23
ATOM     23  C   UNL     1       0.593   9.346  20.954  0.00  0.00    +0.000 A 
ATOM     24  C   UNL     1       0.254   8.949  22.266  0.00  0.00    +0.000 A 
ATOM     25  C   UNL     1      -0.293   9.856  23.161  0.00  0.00    +0.000 A 
ATOM     26  N   UNL     1      -0.505  11.146  22.869  0.00  0.00    +0.000 NA
ATOM     27  C   UNL     1      -0.200  11.533  21.612  0.00  0.00    +0.000 A 
ATOM     28 CL   UNL     1      -0.475  13.225  21.384  0.00  0.00    +0.000 Cl
ATOM     29  C   UNL     1       0.311  10.692  20.614  0.00  0.00    +0.000 A 
ATOM     30 CL   UNL     1       0.512  11.326  19.009  0.00  0.00    +0.000 Cl
ENDBRANCH   8  23
TORSDOF 1
ENDMDL
MODEL 4
REMARK VINA RESULT:      -7.6      3.429      7.199
REMARK  Name = 
REMARK  3 active torsions:
REMARK  status: ('A' for Active; 'I' for Inactive)
REMARK    1  A    between atoms: C_1  and  C_2
REMARK    2  A    between atoms: C_2  and  C_3
REMARK    3  A    between atoms: C_8  and  C_9
REMARK                            x       y       z     vdW  Elec       q    Type
REMARK                         _______ _______ _______ _____ _____    ______ ____
ROOT
ATOM      1  C   UNL     1      -0.696  12.630  18.863  0.00  0.00    +0.000 C 
ATOM      2  C   UNL     1      -0.435  11.166  19.280  0.00  0.00    +0.000 C 
ATOM      3  C   UNL     1      -1.819  10.498  19.295  0.00  0.00    +0.000 C 
ATOM      4  O   UNL     1       0.318  10.566  18.212  0.00  0.00    +0.000 OA
ATOM      5  C   UNL     1       1.114   9.488  18.495  0.00  0.00    +0.000 A 
ATOM      6  C   UNL     1       1.581   8.831  17.367  0.00  0.00    +0.000 A 
ATOM      7  C   UNL     1       2.345   7.674  17.499  0.00  0.00    +0.000 A 
ATOM      8  C   UNL     1       2.769   7.196  18.751  0.00  0.00    +0.000 A 
ATOM      9  C   UNL     1       2.324   7.919  19.887  0.00  0.00    +0.000 A 
ATOM     10  C   UNL     1       1.447   9.020  19.778  0.00  0.00    +0.000 A 
ATOM     11  C   UNL     1       0.682   9.566  20.971  0.00  0.00    +0.000 C 
ATOM     12  C   UNL     1      -0.462   8.574  21.220  0.00  0.00    +0.000 C 
ATOM     13  O   UNL     1      -0.906   8.909  22.512  0.00  0.00    +0.000 OA
ATOM     14  C   UNL     1       0.250   9.310  23.083  0.00  0.00    +0.000 C 
ATOM     15  N   UNL     1       0.084   9.454  24.423  0.00  0.00    +0.000 N 
ATOM     16  N   UNL     1       1.281   9.563  22.345  0.00  0.00    +0.000 NA
ATOM     17  C   UNL     1       0.351  11.046  20.612  0.00  0.00    +0.000 C 
ATOM     18  C   UNL     1       0.021  12.083  21.739  0.00  0.00    +0.000 C 
ATOM     19  O   UNL     1       0.998  13.016  21.201  0.00  0.00    +0.000 OA
ATOM     20  C   UNL     1       1.673  11.906  20.550  0.00  0.00    +0.000 C 
ATOM     21  H   UNL     1      -0.894   9.336  24.681  0.00  0.00    +0.000 HD
ATOM     22  H   UNL     1       0.441  10.335  24.772  0.00  0.00    +0.000 HD
ENDROOT
BRANCH   8  23
ATOM     23  C   UNL     1       3.526   5.908  18.869  0.00  0.00    +0.000 A 
ATOM     24  C   UNL     1       4.822   5.838  18.317  0.00  0.00    +0.000 A 
ATOM     25  C   UNL     1       5.603   4.704  18.483  0.00  0.00    +0.000 A 
ATOM     26  N   UNL     1       5.210   3.633  19.186  0.00  0.00    +0.000 NA
ATOM     27  C   UNL     1       3.965   3.683  19.706  0.00  0.00    +0.000 A 
ATOM     28 CL   UNL     1       3.604   2.264  20.627  0.00  0.00    +0.000 Cl
ATOM     29  C   UNL     1       3.075   4.755  19.559  0.00  0.00    +0.000 A 
ATOM     30 CL   UNL     1       1.458   4.591  20.173  0.00  0.00    +0.000 Cl
ENDBRANCH   8  23
TORSDOF 1
ENDMDL
MODEL 5
REMARK VINA RESULT:      -6.9      3.738      7.377
REMARK  Name = 
REMARK  3 active torsions:
REMARK  status: ('A' for Active; 'I' for Inactive)
REMARK    1  A    between atoms: C_1  and  C_2
REMARK    2  A    between atoms: C_2  and  C_3
REMARK    3  A    between atoms: C_8  and  C_9
REMARK                            x       y       z     vdW  Elec       q    Type
REMARK                         _______ _______ _______ _____ _____    ______ ____
ROOT
ATOM      1  C   UNL     1      -0.908  12.567  18.886  0.00  0.00    +0.000 C 
ATOM      2  C   UNL     1      -0.555  11.117  19.288  0.00  0.00    +0.000 C 
ATOM      3  C   UNL     1      -1.896  10.367  19.308  0.00  0.00    +0.000 C 
ATOM      4  O   UNL     1       0.223  10.573  18.207  0.00  0.00    +0.000 OA
ATOM      5  C   UNL     1       1.085   9.543  18.473  0.00  0.00    +0.000 A 
ATOM      6  C   UNL     1       1.581   8.926  17.335  0.00  0.00    +0.000 A 
ATOM      7  C   UNL     1       2.415   7.816  17.449  0.00  0.00    +0.000 A 
ATOM      8  C   UNL     1       2.879   7.353  18.693  0.00  0.00    +0.000 A 
ATOM      9  C   UNL     1       2.401   8.037  19.840  0.00  0.00    +0.000 A 
ATOM     10  C   UNL     1       1.458   9.084  19.749  0.00  0.00    +0.000 A 
ATOM     11  C   UNL     1       0.672   9.573  20.954  0.00  0.00    +0.000 C 
ATOM     12  C   UNL     1      -0.407   8.512  21.203  0.00  0.00    +0.000 C 
ATOM     13  O   UNL     1      -0.859   8.807  22.502  0.00  0.00    +0.000 OA
ATOM     14  C   UNL     1       0.277   9.272  23.066  0.00  0.00    +0.000 C 
ATOM     15  N   UNL     1       0.114   9.394  24.410  0.00  0.00    +0.000 N 
ATOM     16  N   UNL     1       1.283   9.594  22.322  0.00  0.00    +0.000 NA
ATOM     17  C   UNL     1       0.250  11.033  20.611  0.00  0.00    +0.000 C 
ATOM     18  C   UNL     1      -0.132  12.038  21.751  0.00  0.00    +0.000 C 
ATOM     19  O   UNL     1       0.781  13.034  21.213  0.00  0.00    +0.000 OA
ATOM     20  C   UNL     1       1.516  11.972  20.545  0.00  0.00    +0.000 C 
ATOM     21  H   UNL     1      -0.852   9.215  24.675  0.00  0.00    +0.000 HD
ATOM     22  H   UNL     1       0.421  10.292  24.764  0.00  0.00    +0.000 HD
ENDROOT
BRANCH   8  23
ATOM     23  C   UNL     1       3.712   6.112  18.793  0.00  0.00    +0.000 A 
ATOM     24  C   UNL     1       3.204   5.020  19.527  0.00  0.00    +0.000 A 
ATOM     25  C   UNL     1       3.890   3.815  19.571  0.00  0.00    +0.000 A 
ATOM     26  N   UNL     1       5.036   3.593  18.914  0.00  0.00    +0.000 NA
ATOM     27  C   UNL     1       5.540   4.637  18.221  0.00  0.00    +0.000 A 
ATOM     28 CL   UNL     1       6.989   4.203  17.383  0.00  0.00    +0.000 Cl
ATOM     29  C   UNL     1       4.958   5.909  18.148  0.00  0.00    +0.000 A 
ATOM     30 CL   UNL     1       5.817   7.177  17.328  0.00  0.00    +0.000 Cl
ENDBRANCH   8  23
TORSDOF 1
ENDMDL
MODEL 6
REMARK VINA RESULT:      -6.8      4.570      9.325
REMARK  Name = 
REMARK  3 active torsions:
REMARK  status: ('A' for Active; 'I' for Inactive)
REMARK    1  A    between atoms: C_1  and  C_2
REMARK    2  A    between atoms: C_2  and  C_3
REMARK    3  A    between atoms: C_8  and  C_9
REMARK                            x       y       z     vdW  Elec       q    Type
REMARK                         _______ _______ _______ _____ _____    ______ ____
ROOT
ATOM      1  C   UNL     1      -3.536  13.923  23.853  0.00  0.00    +0.000 C 
ATOM      2  C   UNL     1      -2.243  13.470  23.140  0.00  0.00    +0.000 C 
ATOM      3  C   UNL     1      -1.116  14.290  23.786  0.00  0.00    +0.000 C 
ATOM      4  O   UNL     1      -2.036  12.094  23.507  0.00  0.00    +0.000 OA
ATOM      5  C   UNL     1      -1.307  11.294  22.669  0.00  0.00    +0.000 A 
ATOM      6  C   UNL     1      -0.947  10.080  23.234  0.00  0.00    +0.000 A 
ATOM      7  C   UNL     1      -0.143   9.190  22.525  0.00  0.00    +0.000 A 
ATOM      8  C   UNL     1       0.233   9.422  21.190  0.00  0.00    +0.000 A 
ATOM      9  C   UNL     1      -0.196  10.646  20.617  0.00  0.00    +0.000 A 
ATOM     10  C   UNL     1      -0.905  11.614  21.360  0.00  0.00    +0.000 A 
ATOM     11  C   UNL     1      -1.048  13.052  20.889  0.00  0.00    +0.000 C 
ATOM     12  C   UNL     1       0.307  13.715  21.161  0.00  0.00    +0.000 C 
ATOM     13  O   UNL     1       0.250  14.896  20.399  0.00  0.00    +0.000 OA
ATOM     14  C   UNL     1      -0.505  14.488  19.356  0.00  0.00    +0.000 C 
ATOM     15  N   UNL     1      -0.485  15.424  18.371  0.00  0.00    +0.000 N 
ATOM     16  N   UNL     1      -1.168  13.382  19.432  0.00  0.00    +0.000 NA
ATOM     17  C   UNL     1      -2.327  13.596  21.596  0.00  0.00    +0.000 C 
ATOM     18  C   UNL     1      -3.089  14.835  21.015  0.00  0.00    +0.000 C 
ATOM     19  O   UNL     1      -4.350  14.112  21.063  0.00  0.00    +0.000 OA
ATOM     20  C   UNL     1      -3.612  12.860  21.052  0.00  0.00    +0.000 C 
ATOM     21  H   UNL     1       0.000  16.265  18.680  0.00  0.00    +0.000 HD
ATOM     22  H   UNL     1      -1.408  15.652  18.025  0.00  0.00    +0.000 HD
ENDROOT
BRANCH   8  23
ATOM     23  C   UNL     1       1.160   8.487  20.476  0.00  0.00    +0.000 A 
ATOM     24  C   UNL     1       1.422   7.228  21.057  0.00  0.00    +0.000 A 
ATOM     25  C   UNL     1       2.194   6.287  20.392  0.00  0.00    +0.000 A 
ATOM     26  N   UNL     1       2.709   6.484  19.171  0.00  0.00    +0.000 NA
ATOM     27  C   UNL     1       2.478   7.691  18.612  0.00  0.00    +0.000 A 
ATOM     28 CL   UNL     1       3.152   7.795  17.023  0.00  0.00    +0.000 Cl
ATOM     29  C   UNL     1       1.754   8.730  19.213  0.00  0.00    +0.000 A 
ATOM     30 CL   UNL     1       1.677  10.269  18.410  0.00  0.00    +0.000 Cl
ENDBRANCH   8  23
TORSDOF 1
ENDMDL
MODEL 7
REMARK VINA RESULT:      -6.8      3.590      7.457
REMARK  Name = 
REMARK  3 active torsions:
REMARK  status: ('A' for Active; 'I' for Inactive)
REMARK    1  A    between atoms: C_1  and  C_2
REMARK    2  A    between atoms: C_2  and  C_3
REMARK    3  A    between atoms: C_8  and  C_9
REMARK                            x       y       z     vdW  Elec       q    Type
REMARK                         _______ _______ _______ _____ _____    ______ ____
ROOT
ATOM      1  C   UNL     1       1.380  13.494  18.233  0.00  0.00    +0.000 C 
ATOM      2  C   UNL     1       0.862  12.115  18.698  0.00  0.00    +0.000 C 
ATOM      3  C   UNL     1      -0.559  12.003  18.124  0.00  0.00    +0.000 C 
ATOM      4  O   UNL     1       1.671  11.130  18.030  0.00  0.00    +0.000 OA
ATOM      5  C   UNL     1       1.803   9.893  18.601  0.00  0.00    +0.000 A 
ATOM      6  C   UNL     1       2.375   8.951  17.760  0.00  0.00    +0.000 A 
ATOM      7  C   UNL     1       2.508   7.629  18.179  0.00  0.00    +0.000 A 
ATOM      8  C   UNL     1       2.187   7.222  19.486  0.00  0.00    +0.000 A 
ATOM      9  C   UNL     1       1.657   8.218  20.345  0.00  0.00    +0.000 A 
ATOM     10  C   UNL     1       1.399   9.532  19.899  0.00  0.00    +0.000 A 
ATOM     11  C   UNL     1       0.510  10.490  20.674  0.00  0.00    +0.000 C 
ATOM     12  C   UNL     1      -0.929  10.029  20.408  0.00  0.00    +0.000 C 
ATOM     13  O   UNL     1      -1.672  10.690  21.402  0.00  0.00    +0.000 OA
ATOM     14  C   UNL     1      -0.772  10.726  22.409  0.00  0.00    +0.000 C 
ATOM     15  N   UNL     1      -1.376  11.119  23.561  0.00  0.00    +0.000 N 
ATOM     16  N   UNL     1       0.473  10.476  22.172  0.00  0.00    +0.000 NA
ATOM     17  C   UNL     1       0.953  11.918  20.234  0.00  0.00    +0.000 C 
ATOM     18  C   UNL     1       0.645  13.160  21.138  0.00  0.00    +0.000 C 
ATOM     19  O   UNL     1       2.034  13.585  21.070  0.00  0.00    +0.000 OA
ATOM     20  C   UNL     1       2.416  12.222  20.741  0.00  0.00    +0.000 C 
ATOM     21  H   UNL     1      -2.338  11.403  23.386  0.00  0.00    +0.000 HD
ATOM     22  H   UNL     1      -0.869  11.852  24.041  0.00  0.00    +0.000 HD
ENDROOT
BRANCH   8  23
ATOM     23  C   UNL     1       2.268   5.781  19.888  0.00  0.00    +0.000 A 
ATOM     24  C   UNL     1       1.111   5.164  20.409  0.00  0.00    +0.000 A 
ATOM     25  C   UNL     1       1.103   3.809  20.705  0.00  0.00    +0.000 A 
ATOM     26  N   UNL     1       2.151   3.001  20.496  0.00  0.00    +0.000 NA
ATOM     27  C   UNL     1       3.269   3.584  20.013  0.00  0.00    +0.000 A 
ATOM     28 CL   UNL     1       4.524   2.425  19.745  0.00  0.00    +0.000 Cl
ATOM     29  C   UNL     1       3.404   4.949  19.725  0.00  0.00    +0.000 A 
ATOM     30 CL   UNL     1       4.960   5.553  19.246  0.00  0.00    +0.000 Cl
ENDBRANCH   8  23
TORSDOF 1
ENDMDL
MODEL 8
REMARK VINA RESULT:      -6.6      9.751     11.520
REMARK  Name = 
REMARK  3 active torsions:
REMARK  status: ('A' for Active; 'I' for Inactive)
REMARK    1  A    between atoms: C_1  and  C_2
REMARK    2  A    between atoms: C_2  and  C_3
REMARK    3  A    between atoms: C_8  and  C_9
REMARK                            x       y       z     vdW  Elec       q    Type
REMARK                         _______ _______ _______ _____ _____    ______ ____
ROOT
ATOM      1  C   UNL     1      10.890  11.975  17.375  0.00  0.00    +0.000 C 
ATOM      2  C   UNL     1       9.862  12.683  18.285  0.00  0.00    +0.000 C 
ATOM      3  C   UNL     1       8.524  12.583  17.535  0.00  0.00    +0.000 C 
ATOM      4  O   UNL     1       9.747  11.879  19.472  0.00  0.00    +0.000 OA
ATOM      5  C   UNL     1       9.334  12.478  20.632  0.00  0.00    +0.000 A 
ATOM      6  C   UNL     1       9.006  11.579  21.636  0.00  0.00    +0.000 A 
ATOM      7  C   UNL     1       8.503  12.039  22.850  0.00  0.00    +0.000 A 
ATOM      8  C   UNL     1       8.417  13.409  23.153  0.00  0.00    +0.000 A 
ATOM      9  C   UNL     1       8.811  14.309  22.130  0.00  0.00    +0.000 A 
ATOM     10  C   UNL     1       9.206  13.861  20.850  0.00  0.00    +0.000 A 
ATOM     11  C   UNL     1       9.276  14.793  19.652  0.00  0.00    +0.000 C 
ATOM     12  C   UNL     1       7.822  15.018  19.216  0.00  0.00    +0.000 C 
ATOM     13  O   UNL     1       7.907  16.138  18.369  0.00  0.00    +0.000 OA
ATOM     14  C   UNL     1       8.926  16.814  18.943  0.00  0.00    +0.000 C 
ATOM     15  N   UNL     1       9.016  18.061  18.410  0.00  0.00    +0.000 N 
ATOM     16  N   UNL     1       9.685  16.227  19.808  0.00  0.00    +0.000 NA
ATOM     17  C   UNL     1      10.280  14.127  18.664  0.00  0.00    +0.000 C 
ATOM     18  C   UNL     1      10.997  14.982  17.564  0.00  0.00    +0.000 C 
ATOM     19  O   UNL     1      12.293  14.458  17.967  0.00  0.00    +0.000 OA
ATOM     20  C   UNL     1      11.737  14.136  19.271  0.00  0.00    +0.000 C 
ATOM     21  H   UNL     1       8.374  18.168  17.628  0.00  0.00    +0.000 HD
ATOM     22  H   UNL     1       9.959  18.303  18.133  0.00  0.00    +0.000 HD
ENDROOT
BRANCH   8  23
ATOM     23  C   UNL     1       7.801  13.879  24.435  0.00  0.00    +0.000 A 
ATOM     24  C   UNL     1       8.545  13.742  25.627  0.00  0.00    +0.000 A 
ATOM     25  C   UNL     1       8.063  14.248  26.825  0.00  0.00    +0.000 A 
ATOM     26  N   UNL     1       6.905  14.913  26.934  0.00  0.00    +0.000 NA
ATOM     27  C   UNL     1       6.177  15.036  25.803  0.00  0.00    +0.000 A 
ATOM     28 CL   UNL     1       4.736  15.953  26.072  0.00  0.00    +0.000 Cl
ATOM     29  C   UNL     1       6.544  14.523  24.551  0.00  0.00    +0.000 A 
ATOM     30 CL   UNL     1       5.419  14.649  23.234  0.00  0.00    +0.000 Cl
ENDBRANCH   8  23
TORSDOF 1
ENDMDL
MODEL 9
REMARK VINA RESULT:      -6.6      5.366      9.641
REMARK  Name = 
REMARK  3 active torsions:
REMARK  status: ('A' for Active; 'I' for Inactive)
REMARK    1  A    between atoms: C_1  and  C_2
REMARK    2  A    between atoms: C_2  and  C_3
REMARK    3  A    between atoms: C_8  and  C_9
REMARK                            x       y       z     vdW  Elec       q    Type
REMARK                         _______ _______ _______ _____ _____    ______ ____
ROOT
ATOM      1  C   UNL     1      -0.339  17.766  19.094  0.00  0.00    +0.000 C 
ATOM      2  C   UNL     1       0.088  16.425  19.731  0.00  0.00    +0.000 C 
ATOM      3  C   UNL     1      -0.576  16.408  21.117  0.00  0.00    +0.000 C 
ATOM      4  O   UNL     1      -0.530  15.387  18.949  0.00  0.00    +0.000 OA
ATOM      5  C   UNL     1       0.045  14.145  18.938  0.00  0.00    +0.000 A 
ATOM      6  C   UNL     1      -0.760  13.165  18.377  0.00  0.00    +0.000 A 
ATOM      7  C   UNL     1      -0.338  11.838  18.360  0.00  0.00    +0.000 A 
ATOM      8  C   UNL     1       0.945  11.455  18.790  0.00  0.00    +0.000 A 
ATOM      9  C   UNL     1       1.771  12.486  19.307  0.00  0.00    +0.000 A 
ATOM     10  C   UNL     1       1.313  13.814  19.447  0.00  0.00    +0.000 A 
ATOM     11  C   UNL     1       2.033  14.831  20.318  0.00  0.00    +0.000 C 
ATOM     12  C   UNL     1       1.674  14.466  21.764  0.00  0.00    +0.000 C 
ATOM     13  O   UNL     1       2.621  15.177  22.523  0.00  0.00    +0.000 OA
ATOM     14  C   UNL     1       3.683  15.154  21.689  0.00  0.00    +0.000 C 
ATOM     15  N   UNL     1       4.795  15.588  22.338  0.00  0.00    +0.000 N 
ATOM     16  N   UNL     1       3.525  14.820  20.451  0.00  0.00    +0.000 NA
ATOM     17  C   UNL     1       1.626  16.225  19.752  0.00  0.00    +0.000 C 
ATOM     18  C   UNL     1       2.512  17.486  20.034  0.00  0.00    +0.000 C 
ATOM     19  O   UNL     1       2.535  17.816  18.618  0.00  0.00    +0.000 OA
ATOM     20  C   UNL     1       2.227  16.430  18.308  0.00  0.00    +0.000 C 
ATOM     21  H   UNL     1       4.560  15.936  23.266  0.00  0.00    +0.000 HD
ATOM     22  H   UNL     1       5.309  16.286  21.815  0.00  0.00    +0.000 HD
ENDROOT
BRANCH   8  23
ATOM     23  C   UNL     1       1.347  10.013  18.832  0.00  0.00    +0.000 A 
ATOM     24  C   UNL     1       2.123   9.501  17.770  0.00  0.00    +0.000 A 
ATOM     25  C   UNL     1       2.603   8.201  17.807  0.00  0.00    +0.000 A 
ATOM     26  N   UNL     1       2.400   7.366  18.835  0.00  0.00    +0.000 NA
ATOM     27  C   UNL     1       1.646   7.840  19.850  0.00  0.00    +0.000 A 
ATOM     28 CL   UNL     1       1.503   6.685  21.129  0.00  0.00    +0.000 Cl
ATOM     29  C   UNL     1       1.070   9.117  19.896  0.00  0.00    +0.000 A 
ATOM     30 CL   UNL     1       0.009   9.510  21.213  0.00  0.00    +0.000 Cl
ENDBRANCH   8  23
TORSDOF 1
ENDMDL
