MODEL 1
REMARK VINA RESULT:      -8.1      0.000      0.000
REMARK  Name = 
REMARK  5 active torsions:
REMARK  status: ('A' for Active; 'I' for Inactive)
REMARK    1  A    between atoms: C_2  and  C_3
REMARK    2  A    between atoms: C_2  and  C_9
REMARK    3  A    between atoms: C_18  and  N_19
REMARK    4  A    between atoms: N_19  and  C_20
REMARK    5  A    between atoms: C_31  and  N_32
REMARK                            x       y       z     vdW  Elec       q    Type
REMARK                         _______ _______ _______ _____ _____    ______ ____
ROOT
ATOM      1  C   UNL     1       0.064  10.968  18.675  0.00  0.00    +0.000 A 
ATOM      2  N   UNL     1       0.841  10.261  17.791  0.00  0.00    +0.000 N 
ATOM      3  C   UNL     1       1.414   9.180  18.403  0.00  0.00    +0.000 A 
ATOM      4  C   UNL     1       2.186   8.162  17.835  0.00  0.00    +0.000 A 
ATOM      5  C   UNL     1       2.596   7.128  18.673  0.00  0.00    +0.000 A 
ATOM      6 CL   UNL     1       3.546   5.848  18.019  0.00  0.00    +0.000 Cl
ATOM      7  C   UNL     1       2.240   7.112  20.018  0.00  0.00    +0.000 A 
ATOM      8  C   UNL     1       1.486   8.162  20.569  0.00  0.00    +0.000 A 
ATOM      9  C   UNL     1       1.075   9.244  19.759  0.00  0.00    +0.000 A 
ATOM     10  C   UNL     1       0.334  10.463  19.943  0.00  0.00    +0.000 A 
ATOM     11  H   UNL     1       0.911  10.452  16.804  0.00  0.00    +0.000 HD
ENDROOT
BRANCH   1  13
ATOM     12  O   UNL     1      -0.414  13.209  18.151  0.00  0.00    +0.000 OA
ATOM     13  C   UNL     1      -0.808  12.054  18.269  0.00  0.00    +0.000 C 
BRANCH  13  14
ATOM     14  C   UNL     1      -2.251  11.751  18.009  0.00  0.00    +0.000 A 
ATOM     15  C   UNL     1      -2.626  11.211  16.775  0.00  0.00    +0.000 A 
ATOM     16  C   UNL     1      -3.970  10.931  16.513  0.00  0.00    +0.000 A 
ATOM     17  C   UNL     1      -4.944  11.192  17.480  0.00  0.00    +0.000 A 
ATOM     18  C   UNL     1      -4.578  11.736  18.709  0.00  0.00    +0.000 A 
ATOM     19  C   UNL     1      -3.237  12.024  18.972  0.00  0.00    +0.000 A 
ENDBRANCH  13  14
ENDBRANCH   1  13
BRANCH  10  20
ATOM     20  N   UNL     1      -0.171  11.049  21.073  0.00  0.00    +0.000 N 
ATOM     21  H   UNL     1      -1.115  10.714  21.320  0.00  0.00    +0.000 HD
BRANCH  20  22
ATOM     22  C   UNL     1      -0.015  12.373  21.580  0.00  0.00    +0.000 A 
ATOM     23  N   UNL     1       1.084  13.096  21.259  0.00  0.00    +0.000 NA
ATOM     24  C   UNL     1       1.276  14.327  21.785  0.00  0.00    +0.000 A 
ATOM     25  N   UNL     1       2.461  14.965  21.560  0.00  0.00    +0.000 N 
ATOM     26  C   UNL     1       2.768  16.268  22.157  0.00  0.00    +0.000 C 
ATOM     27  C   UNL     1       2.892  17.343  21.065  0.00  0.00    +0.000 C 
ATOM     28  O   UNL     1       3.812  16.949  20.033  0.00  0.00    +0.000 OA
ATOM     29  C   UNL     1       3.377  15.723  19.419  0.00  0.00    +0.000 C 
ATOM     30  C   UNL     1       3.314  14.576  20.437  0.00  0.00    +0.000 C 
ATOM     31  N   UNL     1       0.374  14.915  22.582  0.00  0.00    +0.000 NA
ATOM     32  C   UNL     1      -0.720  14.206  22.905  0.00  0.00    +0.000 A 
ATOM     33  C   UNL     1      -0.933  12.925  22.456  0.00  0.00    +0.000 A 
BRANCH  33  34
ATOM     34  N   UNL     1      -2.106  12.236  22.908  0.00  0.00    +0.000 N 
ATOM     35  O   UNL     1      -1.954  11.112  23.400  0.00  0.00    +0.000 OA
ATOM     36  O   UNL     1      -3.198  12.798  22.737  0.00  0.00    +0.000 OA
ENDBRANCH  33  34
ENDBRANCH  20  22
ENDBRANCH  10  20
TORSDOF 5
ENDMDL
MODEL 2
REMARK VINA RESULT:      -8.0      3.304      6.801
REMARK  Name = 
REMARK  5 active torsions:
REMARK  status: ('A' for Active; 'I' for Inactive)
REMARK    1  A    between atoms: C_2  and  C_3
REMARK    2  A    between atoms: C_2  and  C_9
REMARK    3  A    between atoms: C_18  and  N_19
REMARK    4  A    between atoms: N_19  and  C_20
REMARK    5  A    between atoms: C_31  and  N_32
REMARK                            x       y       z     vdW  Elec       q    Type
REMARK                         _______ _______ _______ _____ _____    ______ ____
ROOT
ATOM      1  C   UNL     1      -0.681  11.995  20.206  0.00  0.00    +0.000 A 
ATOM      2  N   UNL     1      -1.730  12.459  19.453  0.00  0.00    +0.000 N 
ATOM      3  C   UNL     1      -1.967  11.634  18.388  0.00  0.00    +0.000 A 
ATOM      4  C   UNL     1      -3.000  11.697  17.447  0.00  0.00    +0.000 A 
ATOM      5  C   UNL     1      -3.056  10.686  16.492  0.00  0.00    +0.000 A 
ATOM      6 CL   UNL     1      -4.312  10.717  15.313  0.00  0.00    +0.000 Cl
ATOM      7  C   UNL     1      -2.124   9.652  16.487  0.00  0.00    +0.000 A 
ATOM      8  C   UNL     1      -1.080   9.628  17.428  0.00  0.00    +0.000 A 
ATOM      9  C   UNL     1      -0.971  10.652  18.396  0.00  0.00    +0.000 A 
ATOM     10  C   UNL     1      -0.077  10.977  19.475  0.00  0.00    +0.000 A 
ATOM     11  H   UNL     1      -2.311  13.247  19.696  0.00  0.00    +0.000 HD
ENDROOT
BRANCH   1  13
ATOM     12  O   UNL     1       0.846  12.745  21.830  0.00  0.00    +0.000 OA
ATOM     13  C   UNL     1      -0.318  12.560  21.493  0.00  0.00    +0.000 C 
BRANCH  13  14
ATOM     14  C   UNL     1      -1.414  12.907  22.452  0.00  0.00    +0.000 A 
ATOM     15  C   UNL     1      -1.570  14.235  22.864  0.00  0.00    +0.000 A 
ATOM     16  C   UNL     1      -2.581  14.574  23.767  0.00  0.00    +0.000 A 
ATOM     17  C   UNL     1      -3.438  13.589  24.265  0.00  0.00    +0.000 A 
ATOM     18  C   UNL     1      -3.284  12.264  23.865  0.00  0.00    +0.000 A 
ATOM     19  C   UNL     1      -2.270  11.920  22.969  0.00  0.00    +0.000 A 
ENDBRANCH  13  14
ENDBRANCH   1  13
BRANCH  10  20
ATOM     20  N   UNL     1       1.094  10.396  19.881  0.00  0.00    +0.000 N 
ATOM     21  H   UNL     1       1.934  10.909  19.570  0.00  0.00    +0.000 HD
BRANCH  20  22
ATOM     22  C   UNL     1       1.441   9.022  20.042  0.00  0.00    +0.000 A 
ATOM     23  N   UNL     1       2.141   8.382  19.075  0.00  0.00    +0.000 NA
ATOM     24  C   UNL     1       2.419   7.063  19.185  0.00  0.00    +0.000 A 
ATOM     25  N   UNL     1       2.993   6.418  18.128  0.00  0.00    +0.000 N 
ATOM     26  C   UNL     1       3.258   4.977  18.148  0.00  0.00    +0.000 C 
ATOM     27  C   UNL     1       4.770   4.707  18.114  0.00  0.00    +0.000 C 
ATOM     28  O   UNL     1       5.409   5.398  17.026  0.00  0.00    +0.000 OA
ATOM     29  C   UNL     1       5.201   6.816  17.144  0.00  0.00    +0.000 C 
ATOM     30  C   UNL     1       3.708   7.170  17.097  0.00  0.00    +0.000 C 
ATOM     31  N   UNL     1       2.085   6.348  20.267  0.00  0.00    +0.000 NA
ATOM     32  C   UNL     1       1.392   6.974  21.232  0.00  0.00    +0.000 A 
ATOM     33  C   UNL     1       1.021   8.294  21.141  0.00  0.00    +0.000 A 
BRANCH  33  34
ATOM     34  N   UNL     1       0.232   8.849  22.201  0.00  0.00    +0.000 N 
ATOM     35  O   UNL     1       0.784   9.646  22.968  0.00  0.00    +0.000 OA
ATOM     36  O   UNL     1      -0.941   8.459  22.302  0.00  0.00    +0.000 OA
ENDBRANCH  33  34
ENDBRANCH  20  22
ENDBRANCH  10  20
TORSDOF 5
ENDMDL
MODEL 3
REMARK VINA RESULT:      -7.9      3.311      7.117
REMARK  Name = 
REMARK  5 active torsions:
REMARK  status: ('A' for Active; 'I' for Inactive)
REMARK    1  A    between atoms: C_2  and  C_3
REMARK    2  A    between atoms: C_2  and  C_9
REMARK    3  A    between atoms: C_18  and  N_19
REMARK    4  A    between atoms: N_19  and  C_20
REMARK    5  A    between atoms: C_31  and  N_32
REMARK                            x       y       z     vdW  Elec       q    Type
REMARK                         _______ _______ _______ _____ _____    ______ ____
ROOT
ATOM      1  C   UNL     1       0.561  11.678  19.882  0.00  0.00    +0.000 A 
ATOM      2  N   UNL     1       1.570  12.458  20.389  0.00  0.00    +0.000 N 
ATOM      3  C   UNL     1       1.426  13.759  19.992  0.00  0.00    +0.000 A 
ATOM      4  C   UNL     1       2.178  14.876  20.369  0.00  0.00    +0.000 A 
ATOM      5  C   UNL     1       1.779  16.113  19.870  0.00  0.00    +0.000 A 
ATOM      6 CL   UNL     1       2.670  17.520  20.309  0.00  0.00    +0.000 Cl
ATOM      7  C   UNL     1       0.669  16.225  19.037  0.00  0.00    +0.000 A 
ATOM      8  C   UNL     1      -0.053  15.082  18.652  0.00  0.00    +0.000 A 
ATOM      9  C   UNL     1       0.338  13.805  19.114  0.00  0.00    +0.000 A 
ATOM     10  C   UNL     1      -0.114  12.450  18.943  0.00  0.00    +0.000 A 
ATOM     11  H   UNL     1       2.272  12.143  21.041  0.00  0.00    +0.000 HD
ENDROOT
BRANCH   1  13
ATOM     12  O   UNL     1      -0.455   9.975  21.147  0.00  0.00    +0.000 OA
ATOM     13  C   UNL     1       0.351  10.298  20.281  0.00  0.00    +0.000 C 
BRANCH  13  14
ATOM     14  C   UNL     1       1.171   9.233  19.622  0.00  0.00    +0.000 A 
ATOM     15  C   UNL     1       1.530   8.095  20.351  0.00  0.00    +0.000 A 
ATOM     16  C   UNL     1       2.305   7.097  19.753  0.00  0.00    +0.000 A 
ATOM     17  C   UNL     1       2.726   7.232  18.428  0.00  0.00    +0.000 A 
ATOM     18  C   UNL     1       2.378   8.366  17.698  0.00  0.00    +0.000 A 
ATOM     19  C   UNL     1       1.610   9.369  18.294  0.00  0.00    +0.000 A 
ENDBRANCH  13  14
ENDBRANCH   1  13
BRANCH  10  20
ATOM     20  N   UNL     1      -1.091  11.921  18.143  0.00  0.00    +0.000 N 
ATOM     21  H   UNL     1      -0.889  12.014  17.136  0.00  0.00    +0.000 HD
BRANCH  20  22
ATOM     22  C   UNL     1      -2.506  11.871  18.317  0.00  0.00    +0.000 A 
ATOM     23  N   UNL     1      -3.065  12.337  19.459  0.00  0.00    +0.000 NA
ATOM     24  C   UNL     1      -4.398  12.237  19.663  0.00  0.00    +0.000 A 
ATOM     25  N   UNL     1      -4.907  12.579  20.882  0.00  0.00    +0.000 N 
ATOM     26  C   UNL     1      -6.330  12.428  21.201  0.00  0.00    +0.000 C 
ATOM     27  C   UNL     1      -6.979  13.802  21.428  0.00  0.00    +0.000 C 
ATOM     28  O   UNL     1      -6.250  14.581  22.393  0.00  0.00    +0.000 OA
ATOM     29  C   UNL     1      -4.896  14.783  21.950  0.00  0.00    +0.000 C 
ATOM     30  C   UNL     1      -4.155  13.449  21.786  0.00  0.00    +0.000 C 
ATOM     31  N   UNL     1      -5.230  11.743  18.738  0.00  0.00    +0.000 NA
ATOM     32  C   UNL     1      -4.685  11.278  17.601  0.00  0.00    +0.000 A 
ATOM     33  C   UNL     1      -3.331  11.292  17.369  0.00  0.00    +0.000 A 
BRANCH  33  34
ATOM     34  N   UNL     1      -2.849  10.718  16.147  0.00  0.00    +0.000 N 
ATOM     35  O   UNL     1      -3.247  11.213  15.087  0.00  0.00    +0.000 OA
ATOM     36  O   UNL     1      -2.097   9.736  16.237  0.00  0.00    +0.000 OA
ENDBRANCH  33  34
ENDBRANCH  20  22
ENDBRANCH  10  20
TORSDOF 5
ENDMDL
MODEL 4
REMARK VINA RESULT:      -7.8      2.560      3.638
REMARK  Name = 
REMARK  5 active torsions:
REMARK  status: ('A' for Active; 'I' for Inactive)
REMARK    1  A    between atoms: C_2  and  C_3
REMARK    2  A    between atoms: C_2  and  C_9
REMARK    3  A    between atoms: C_18  and  N_19
REMARK    4  A    between atoms: N_19  and  C_20
REMARK    5  A    between atoms: C_31  and  N_32
REMARK                            x       y       z     vdW  Elec       q    Type
REMARK                         _______ _______ _______ _____ _____    ______ ____
ROOT
ATOM      1  C   UNL     1       0.090  11.080  18.671  0.00  0.00    +0.000 A 
ATOM      2  N   UNL     1       0.557  10.190  17.737  0.00  0.00    +0.000 N 
ATOM      3  C   UNL     1       1.218   9.154  18.340  0.00  0.00    +0.000 A 
ATOM      4  C   UNL     1       1.751   8.000  17.757  0.00  0.00    +0.000 A 
ATOM      5  C   UNL     1       2.319   7.058  18.610  0.00  0.00    +0.000 A 
ATOM      6 CL   UNL     1       2.985   5.617  17.940  0.00  0.00    +0.000 Cl
ATOM      7  C   UNL     1       2.344   7.260  19.987  0.00  0.00    +0.000 A 
ATOM      8  C   UNL     1       1.825   8.442  20.544  0.00  0.00    +0.000 A 
ATOM      9  C   UNL     1       1.266   9.436  19.709  0.00  0.00    +0.000 A 
ATOM     10  C   UNL     1       0.669  10.733  19.887  0.00  0.00    +0.000 A 
ATOM     11  H   UNL     1       0.365  10.235  16.748  0.00  0.00    +0.000 HD
ENDROOT
BRANCH   1  13
ATOM     12  O   UNL     1      -0.443  13.350  18.362  0.00  0.00    +0.000 OA
ATOM     13  C   UNL     1      -0.801  12.178  18.342  0.00  0.00    +0.000 C 
BRANCH  13  14
ATOM     14  C   UNL     1      -2.220  11.860  17.987  0.00  0.00    +0.000 A 
ATOM     15  C   UNL     1      -3.225  12.053  18.941  0.00  0.00    +0.000 A 
ATOM     16  C   UNL     1      -4.554  11.751  18.629  0.00  0.00    +0.000 A 
ATOM     17  C   UNL     1      -4.884  11.254  17.366  0.00  0.00    +0.000 A 
ATOM     18  C   UNL     1      -3.888  11.054  16.413  0.00  0.00    +0.000 A 
ATOM     19  C   UNL     1      -2.558  11.347  16.723  0.00  0.00    +0.000 A 
ENDBRANCH  13  14
ENDBRANCH   1  13
BRANCH  10  20
ATOM     20  N   UNL     1       0.524  11.513  21.003  0.00  0.00    +0.000 N 
ATOM     21  H   UNL     1       1.361  11.521  21.606  0.00  0.00    +0.000 HD
BRANCH  20  22
ATOM     22  C   UNL     1      -0.620  11.766  21.815  0.00  0.00    +0.000 A 
ATOM     23  N   UNL     1      -1.281  12.943  21.707  0.00  0.00    +0.000 NA
ATOM     24  C   UNL     1      -2.327  13.222  22.517  0.00  0.00    +0.000 A 
ATOM     25  N   UNL     1      -2.875  14.471  22.483  0.00  0.00    +0.000 N 
ATOM     26  C   UNL     1      -3.962  14.868  23.382  0.00  0.00    +0.000 C 
ATOM     27  C   UNL     1      -5.245  15.148  22.583  0.00  0.00    +0.000 C 
ATOM     28  O   UNL     1      -5.012  16.078  21.511  0.00  0.00    +0.000 OA
ATOM     29  C   UNL     1      -4.017  15.561  20.610  0.00  0.00    +0.000 C 
ATOM     30  C   UNL     1      -2.676  15.340  21.323  0.00  0.00    +0.000 C 
ATOM     31  N   UNL     1      -2.801  12.340  23.406  0.00  0.00    +0.000 NA
ATOM     32  C   UNL     1      -2.152  11.169  23.521  0.00  0.00    +0.000 A 
ATOM     33  C   UNL     1      -1.042  10.860  22.773  0.00  0.00    +0.000 A 
BRANCH  33  34
ATOM     34  N   UNL     1      -0.390   9.607  23.016  0.00  0.00    +0.000 N 
ATOM     35  O   UNL     1      -0.921   8.589  22.557  0.00  0.00    +0.000 OA
ATOM     36  O   UNL     1       0.640   9.625  23.705  0.00  0.00    +0.000 OA
ENDBRANCH  33  34
ENDBRANCH  20  22
ENDBRANCH  10  20
TORSDOF 5
ENDMDL
MODEL 5
REMARK VINA RESULT:      -7.7      2.622      4.954
REMARK  Name = 
REMARK  5 active torsions:
REMARK  status: ('A' for Active; 'I' for Inactive)
REMARK    1  A    between atoms: C_2  and  C_3
REMARK    2  A    between atoms: C_2  and  C_9
REMARK    3  A    between atoms: C_18  and  N_19
REMARK    4  A    between atoms: N_19  and  C_20
REMARK    5  A    between atoms: C_31  and  N_32
REMARK                            x       y       z     vdW  Elec       q    Type
REMARK                         _______ _______ _______ _____ _____    ______ ____
ROOT
ATOM      1  C   UNL     1      -0.552  10.312  18.597  0.00  0.00    +0.000 A 
ATOM      2  N   UNL     1      -0.777   9.670  17.405  0.00  0.00    +0.000 N 
ATOM      3  C   UNL     1      -1.951  10.088  16.841  0.00  0.00    +0.000 A 
ATOM      4  C   UNL     1      -2.488   9.757  15.593  0.00  0.00    +0.000 A 
ATOM      5  C   UNL     1      -3.679  10.378  15.224  0.00  0.00    +0.000 A 
ATOM      6 CL   UNL     1      -4.377  10.007  13.695  0.00  0.00    +0.000 Cl
ATOM      7  C   UNL     1      -4.297  11.298  16.067  0.00  0.00    +0.000 A 
ATOM      8  C   UNL     1      -3.750  11.592  17.327  0.00  0.00    +0.000 A 
ATOM      9  C   UNL     1      -2.559  10.960  17.751  0.00  0.00    +0.000 A 
ATOM     10  C   UNL     1      -1.725  10.983  18.923  0.00  0.00    +0.000 A 
ATOM     11  H   UNL     1      -0.127   9.045  16.953  0.00  0.00    +0.000 HD
ENDROOT
BRANCH   1  13
ATOM     12  O   UNL     1       1.127  11.111  20.037  0.00  0.00    +0.000 OA
ATOM     13  C   UNL     1       0.698  10.207  19.329  0.00  0.00    +0.000 C 
BRANCH  13  14
ATOM     14  C   UNL     1       1.501   8.952  19.189  0.00  0.00    +0.000 A 
ATOM     15  C   UNL     1       1.525   8.032  20.243  0.00  0.00    +0.000 A 
ATOM     16  C   UNL     1       2.279   6.860  20.132  0.00  0.00    +0.000 A 
ATOM     17  C   UNL     1       3.014   6.604  18.972  0.00  0.00    +0.000 A 
ATOM     18  C   UNL     1       3.001   7.519  17.922  0.00  0.00    +0.000 A 
ATOM     19  C   UNL     1       2.255   8.694  18.031  0.00  0.00    +0.000 A 
ENDBRANCH  13  14
ENDBRANCH   1  13
BRANCH  10  20
ATOM     20  N   UNL     1      -1.886  11.607  20.131  0.00  0.00    +0.000 N 
ATOM     21  H   UNL     1      -2.454  11.063  20.799  0.00  0.00    +0.000 HD
BRANCH  20  22
ATOM     22  C   UNL     1      -2.018  12.991  20.449  0.00  0.00    +0.000 A 
ATOM     23  N   UNL     1      -0.982  13.837  20.235  0.00  0.00    +0.000 NA
ATOM     24  C   UNL     1      -1.071  15.138  20.593  0.00  0.00    +0.000 A 
ATOM     25  N   UNL     1       0.039  15.926  20.501  0.00  0.00    +0.000 N 
ATOM     26  C   UNL     1       0.038  17.325  20.938  0.00  0.00    +0.000 C 
ATOM     27  C   UNL     1       0.244  18.263  19.738  0.00  0.00    +0.000 C 
ATOM     28  O   UNL     1       1.404  17.898  18.971  0.00  0.00    +0.000 OA
ATOM     29  C   UNL     1       1.275  16.552  18.481  0.00  0.00    +0.000 C 
ATOM     30  C   UNL     1       1.153  15.545  19.633  0.00  0.00    +0.000 C 
ATOM     31  N   UNL     1      -2.190  15.666  21.104  0.00  0.00    +0.000 NA
ATOM     32  C   UNL     1      -3.223  14.835  21.320  0.00  0.00    +0.000 A 
ATOM     33  C   UNL     1      -3.165  13.492  21.040  0.00  0.00    +0.000 A 
BRANCH  33  34
ATOM     34  N   UNL     1      -4.304  12.683  21.363  0.00  0.00    +0.000 N 
ATOM     35  O   UNL     1      -4.453  12.351  22.544  0.00  0.00    +0.000 OA
ATOM     36  O   UNL     1      -5.040  12.338  20.427  0.00  0.00    +0.000 OA
ENDBRANCH  33  34
ENDBRANCH  20  22
ENDBRANCH  10  20
TORSDOF 5
ENDMDL
MODEL 6
REMARK VINA RESULT:      -7.7      2.223      4.767
REMARK  Name = 
REMARK  5 active torsions:
REMARK  status: ('A' for Active; 'I' for Inactive)
REMARK    1  A    between atoms: C_2  and  C_3
REMARK    2  A    between atoms: C_2  and  C_9
REMARK    3  A    between atoms: C_18  and  N_19
REMARK    4  A    between atoms: N_19  and  C_20
REMARK    5  A    between atoms: C_31  and  N_32
REMARK                            x       y       z     vdW  Elec       q    Type
REMARK                         _______ _______ _______ _____ _____    ______ ____
ROOT
ATOM      1  C   UNL     1       0.156  10.434  18.522  0.00  0.00    +0.000 A 
ATOM      2  N   UNL     1      -0.872  10.020  17.712  0.00  0.00    +0.000 N 
ATOM      3  C   UNL     1      -2.040  10.647  18.048  0.00  0.00    +0.000 A 
ATOM      4  C   UNL     1      -3.283  10.580  17.410  0.00  0.00    +0.000 A 
ATOM      5  C   UNL     1      -4.305  11.377  17.917  0.00  0.00    +0.000 A 
ATOM      6 CL   UNL     1      -5.853  11.333  17.164  0.00  0.00    +0.000 Cl
ATOM      7  C   UNL     1      -4.087  12.212  19.010  0.00  0.00    +0.000 A 
ATOM      8  C   UNL     1      -2.836  12.240  19.649  0.00  0.00    +0.000 A 
ATOM      9  C   UNL     1      -1.781  11.423  19.183  0.00  0.00    +0.000 A 
ATOM     10  C   UNL     1      -0.416  11.168  19.556  0.00  0.00    +0.000 A 
ATOM     11  H   UNL     1      -0.770   9.408  16.916  0.00  0.00    +0.000 HD
ENDROOT
BRANCH   1  13
ATOM     12  O   UNL     1       2.352  10.862  17.799  0.00  0.00    +0.000 OA
ATOM     13  C   UNL     1       1.543  10.079  18.285  0.00  0.00    +0.000 C 
BRANCH  13  14
ATOM     14  C   UNL     1       1.992   8.693  18.627  0.00  0.00    +0.000 A 
ATOM     15  C   UNL     1       1.621   8.136  19.856  0.00  0.00    +0.000 A 
ATOM     16  C   UNL     1       2.040   6.847  20.195  0.00  0.00    +0.000 A 
ATOM     17  C   UNL     1       2.834   6.110  19.313  0.00  0.00    +0.000 A 
ATOM     18  C   UNL     1       3.213   6.661  18.091  0.00  0.00    +0.000 A 
ATOM     19  C   UNL     1       2.802   7.952  17.750  0.00  0.00    +0.000 A 
ENDBRANCH  13  14
ENDBRANCH   1  13
BRANCH  10  20
ATOM     20  N   UNL     1       0.324  11.605  20.623  0.00  0.00    +0.000 N 
ATOM     21  H   UNL     1       0.591  10.848  21.272  0.00  0.00    +0.000 HD
BRANCH  20  22
ATOM     22  C   UNL     1       0.261  12.826  21.356  0.00  0.00    +0.000 A 
ATOM     23  N   UNL     1       1.047  13.871  21.001  0.00  0.00    +0.000 NA
ATOM     24  C   UNL     1       1.045  15.011  21.727  0.00  0.00    +0.000 A 
ATOM     25  N   UNL     1       1.955  15.985  21.431  0.00  0.00    +0.000 N 
ATOM     26  C   UNL     1       2.060  17.216  22.219  0.00  0.00    +0.000 C 
ATOM     27  C   UNL     1       1.666  18.434  21.369  0.00  0.00    +0.000 C 
ATOM     28  O   UNL     1       2.395  18.476  20.130  0.00  0.00    +0.000 OA
ATOM     29  C   UNL     1       2.145  17.285  19.364  0.00  0.00    +0.000 C 
ATOM     30  C   UNL     1       2.599  16.027  20.118  0.00  0.00    +0.000 C 
ATOM     31  N   UNL     1       0.232  15.193  22.775  0.00  0.00    +0.000 NA
ATOM     32  C   UNL     1      -0.552  14.163  23.135  0.00  0.00    +0.000 A 
ATOM     33  C   UNL     1      -0.541  12.958  22.476  0.00  0.00    +0.000 A 
BRANCH  33  34
ATOM     34  N   UNL     1      -1.374  11.905  22.978  0.00  0.00    +0.000 N 
ATOM     35  O   UNL     1      -2.584  12.136  23.086  0.00  0.00    +0.000 OA
ATOM     36  O   UNL     1      -0.818  10.847  23.310  0.00  0.00    +0.000 OA
ENDBRANCH  33  34
ENDBRANCH  20  22
ENDBRANCH  10  20
TORSDOF 5
ENDMDL
MODEL 7
REMARK VINA RESULT:      -7.7      3.604      5.963
REMARK  Name = 
REMARK  5 active torsions:
REMARK  status: ('A' for Active; 'I' for Inactive)
REMARK    1  A    between atoms: C_2  and  C_3
REMARK    2  A    between atoms: C_2  and  C_9
REMARK    3  A    between atoms: C_18  and  N_19
REMARK    4  A    between atoms: N_19  and  C_20
REMARK    5  A    between atoms: C_31  and  N_32
REMARK                            x       y       z     vdW  Elec       q    Type
REMARK                         _______ _______ _______ _____ _____    ______ ____
ROOT
ATOM      1  C   UNL     1      -3.192  12.344  19.575  0.00  0.00    +0.000 A 
ATOM      2  N   UNL     1      -4.049  12.325  18.503  0.00  0.00    +0.000 N 
ATOM      3  C   UNL     1      -3.565  11.521  17.507  0.00  0.00    +0.000 A 
ATOM      4  C   UNL     1      -4.177  11.157  16.303  0.00  0.00    +0.000 A 
ATOM      5  C   UNL     1      -3.494  10.261  15.485  0.00  0.00    +0.000 A 
ATOM      6 CL   UNL     1      -4.208   9.779  13.994  0.00  0.00    +0.000 Cl
ATOM      7  C   UNL     1      -2.257   9.747  15.862  0.00  0.00    +0.000 A 
ATOM      8  C   UNL     1      -1.652  10.151  17.065  0.00  0.00    +0.000 A 
ATOM      9  C   UNL     1      -2.300  11.080  17.910  0.00  0.00    +0.000 A 
ATOM     10  C   UNL     1      -2.016  11.725  19.164  0.00  0.00    +0.000 A 
ATOM     11  H   UNL     1      -4.956  12.766  18.480  0.00  0.00    +0.000 HD
ENDROOT
BRANCH   1  13
ATOM     12  O   UNL     1      -2.739  13.670  21.464  0.00  0.00    +0.000 OA
ATOM     13  C   UNL     1      -3.526  12.963  20.845  0.00  0.00    +0.000 C 
BRANCH  13  14
ATOM     14  C   UNL     1      -4.880  12.703  21.429  0.00  0.00    +0.000 A 
ATOM     15  C   UNL     1      -5.869  12.116  20.633  0.00  0.00    +0.000 A 
ATOM     16  C   UNL     1      -7.141  11.877  21.160  0.00  0.00    +0.000 A 
ATOM     17  C   UNL     1      -7.432  12.225  22.481  0.00  0.00    +0.000 A 
ATOM     18  C   UNL     1      -6.454  12.817  23.277  0.00  0.00    +0.000 A 
ATOM     19  C   UNL     1      -5.184  13.064  22.753  0.00  0.00    +0.000 A 
ENDBRANCH  13  14
ENDBRANCH   1  13
BRANCH  10  20
ATOM     20  N   UNL     1      -0.898  11.707  19.954  0.00  0.00    +0.000 N 
ATOM     21  H   UNL     1      -0.238  12.472  19.745  0.00  0.00    +0.000 HD
BRANCH  20  22
ATOM     22  C   UNL     1      -0.162  10.612  20.493  0.00  0.00    +0.000 A 
ATOM     23  N   UNL     1       0.457   9.737  19.664  0.00  0.00    +0.000 NA
ATOM     24  C   UNL     1       1.103   8.658  20.160  0.00  0.00    +0.000 A 
ATOM     25  N   UNL     1       1.587   7.721  19.293  0.00  0.00    +0.000 N 
ATOM     26  C   UNL     1       2.234   6.491  19.759  0.00  0.00    +0.000 C 
ATOM     27  C   UNL     1       3.716   6.478  19.356  0.00  0.00    +0.000 C 
ATOM     28  O   UNL     1       3.888   6.724  17.950  0.00  0.00    +0.000 OA
ATOM     29  C   UNL     1       3.330   8.001  17.595  0.00  0.00    +0.000 C 
ATOM     30  C   UNL     1       1.825   8.058  17.890  0.00  0.00    +0.000 C 
ATOM     31  N   UNL     1       1.223   8.436  21.475  0.00  0.00    +0.000 NA
ATOM     32  C   UNL     1       0.613   9.297  22.305  0.00  0.00    +0.000 A 
ATOM     33  C   UNL     1      -0.115  10.371  21.855  0.00  0.00    +0.000 A 
BRANCH  33  34
ATOM     34  N   UNL     1      -0.774  11.196  22.825  0.00  0.00    +0.000 N 
ATOM     35  O   UNL     1      -0.337  12.340  22.994  0.00  0.00    +0.000 OA
ATOM     36  O   UNL     1      -1.713  10.690  23.458  0.00  0.00    +0.000 OA
ENDBRANCH  33  34
ENDBRANCH  20  22
ENDBRANCH  10  20
TORSDOF 5
ENDMDL
MODEL 8
REMARK VINA RESULT:      -7.7      2.302      4.795
REMARK  Name = 
REMARK  5 active torsions:
REMARK  status: ('A' for Active; 'I' for Inactive)
REMARK    1  A    between atoms: C_2  and  C_3
REMARK    2  A    between atoms: C_2  and  C_9
REMARK    3  A    between atoms: C_18  and  N_19
REMARK    4  A    between atoms: N_19  and  C_20
REMARK    5  A    between atoms: C_31  and  N_32
REMARK                            x       y       z     vdW  Elec       q    Type
REMARK                         _______ _______ _______ _____ _____    ______ ____
ROOT
ATOM      1  C   UNL     1       0.295  10.294  18.430  0.00  0.00    +0.000 A 
ATOM      2  N   UNL     1      -0.768   9.894  17.659  0.00  0.00    +0.000 N 
ATOM      3  C   UNL     1      -1.912  10.545  18.031  0.00  0.00    +0.000 A 
ATOM      4  C   UNL     1      -3.177  10.497  17.437  0.00  0.00    +0.000 A 
ATOM      5  C   UNL     1      -4.166  11.317  17.974  0.00  0.00    +0.000 A 
ATOM      6 CL   UNL     1      -5.740  11.297  17.275  0.00  0.00    +0.000 Cl
ATOM      7  C   UNL     1      -3.895  12.155  19.052  0.00  0.00    +0.000 A 
ATOM      8  C   UNL     1      -2.621  12.163  19.647  0.00  0.00    +0.000 A 
ATOM      9  C   UNL     1      -1.598  11.324  19.150  0.00  0.00    +0.000 A 
ATOM     10  C   UNL     1      -0.226  11.045  19.478  0.00  0.00    +0.000 A 
ATOM     11  H   UNL     1      -0.705   9.275  16.865  0.00  0.00    +0.000 HD
ENDROOT
BRANCH   1  13
ATOM     12  O   UNL     1       2.466  10.667  17.605  0.00  0.00    +0.000 OA
ATOM     13  C   UNL     1       1.667   9.912  18.147  0.00  0.00    +0.000 C 
BRANCH  13  14
ATOM     14  C   UNL     1       2.110   8.530  18.513  0.00  0.00    +0.000 A 
ATOM     15  C   UNL     1       1.759   8.005  19.762  0.00  0.00    +0.000 A 
ATOM     16  C   UNL     1       2.174   6.720  20.122  0.00  0.00    +0.000 A 
ATOM     17  C   UNL     1       2.943   5.956  19.241  0.00  0.00    +0.000 A 
ATOM     18  C   UNL     1       3.302   6.475  17.999  0.00  0.00    +0.000 A 
ATOM     19  C   UNL     1       2.895   7.761  17.638  0.00  0.00    +0.000 A 
ENDBRANCH  13  14
ENDBRANCH   1  13
BRANCH  10  20
ATOM     20  N   UNL     1       0.558  11.475  20.515  0.00  0.00    +0.000 N 
ATOM     21  H   UNL     1       0.486  10.881  21.356  0.00  0.00    +0.000 HD
BRANCH  20  22
ATOM     22  C   UNL     1       0.911  12.794  20.926  0.00  0.00    +0.000 A 
ATOM     23  N   UNL     1       1.972  13.419  20.360  0.00  0.00    +0.000 NA
ATOM     24  C   UNL     1       2.356  14.643  20.786  0.00  0.00    +0.000 A 
ATOM     25  N   UNL     1       3.514  15.178  20.300  0.00  0.00    +0.000 N 
ATOM     26  C   UNL     1       4.032  16.467  20.768  0.00  0.00    +0.000 C 
ATOM     27  C   UNL     1       4.008  17.501  19.631  0.00  0.00    +0.000 C 
ATOM     28  O   UNL     1       4.666  17.008  18.451  0.00  0.00    +0.000 OA
ATOM     29  C   UNL     1       4.025  15.807  17.988  0.00  0.00    +0.000 C 
ATOM     30  C   UNL     1       4.088  14.694  19.044  0.00  0.00    +0.000 C 
ATOM     31  N   UNL     1       1.682  15.321  21.723  0.00  0.00    +0.000 NA
ATOM     32  C   UNL     1       0.629  14.710  22.290  0.00  0.00    +0.000 A 
ATOM     33  C   UNL     1       0.235  13.440  21.946  0.00  0.00    +0.000 A 
BRANCH  33  34
ATOM     34  N   UNL     1      -0.868  12.859  22.654  0.00  0.00    +0.000 N 
ATOM     35  O   UNL     1      -0.707  11.732  23.136  0.00  0.00    +0.000 OA
ATOM     36  O   UNL     1      -1.922  13.510  22.699  0.00  0.00    +0.000 OA
ENDBRANCH  33  34
ENDBRANCH  20  22
ENDBRANCH  10  20
TORSDOF 5
ENDMDL
MODEL 9
REMARK VINA RESULT:      -7.7      3.252      6.580
REMARK  Name = 
REMARK  5 active torsions:
REMARK  status: ('A' for Active; 'I' for Inactive)
REMARK    1  A    between atoms: C_2  and  C_3
REMARK    2  A    between atoms: C_2  and  C_9
REMARK    3  A    between atoms: C_18  and  N_19
REMARK    4  A    between atoms: N_19  and  C_20
REMARK    5  A    between atoms: C_31  and  N_32
REMARK                            x       y       z     vdW  Elec       q    Type
REMARK                         _______ _______ _______ _____ _____    ______ ____
ROOT
ATOM      1  C   UNL     1      -0.457  10.339  18.624  0.00  0.00    +0.000 A 
ATOM      2  N   UNL     1      -0.723   9.718  17.430  0.00  0.00    +0.000 N 
ATOM      3  C   UNL     1      -1.922  10.135  16.920  0.00  0.00    +0.000 A 
ATOM      4  C   UNL     1      -2.504   9.823  15.687  0.00  0.00    +0.000 A 
ATOM      5  C   UNL     1      -3.712  10.440  15.376  0.00  0.00    +0.000 A 
ATOM      6 CL   UNL     1      -4.466  10.091  13.868  0.00  0.00    +0.000 Cl
ATOM      7  C   UNL     1      -4.306  11.338  16.259  0.00  0.00    +0.000 A 
ATOM      8  C   UNL     1      -3.713  11.613  17.503  0.00  0.00    +0.000 A 
ATOM      9  C   UNL     1      -2.501  10.985  17.869  0.00  0.00    +0.000 A 
ATOM     10  C   UNL     1      -1.623  10.993  19.008  0.00  0.00    +0.000 A 
ATOM     11  H   UNL     1      -0.086   9.107  16.942  0.00  0.00    +0.000 HD
ENDROOT
BRANCH   1  13
ATOM     12  O   UNL     1       1.282  11.138  19.991  0.00  0.00    +0.000 OA
ATOM     13  C   UNL     1       0.820  10.232  19.306  0.00  0.00    +0.000 C 
BRANCH  13  14
ATOM     14  C   UNL     1       1.611   8.972  19.142  0.00  0.00    +0.000 A 
ATOM     15  C   UNL     1       2.344   8.771  17.967  0.00  0.00    +0.000 A 
ATOM     16  C   UNL     1       3.079   7.595  17.794  0.00  0.00    +0.000 A 
ATOM     17  C   UNL     1       3.084   6.615  18.790  0.00  0.00    +0.000 A 
ATOM     18  C   UNL     1       2.352   6.806  19.959  0.00  0.00    +0.000 A 
ATOM     19  C   UNL     1       1.609   7.976  20.133  0.00  0.00    +0.000 A 
ENDBRANCH  13  14
ENDBRANCH   1  13
BRANCH  10  20
ATOM     20  N   UNL     1      -1.743  11.593  20.233  0.00  0.00    +0.000 N 
ATOM     21  H   UNL     1      -1.882  10.923  21.005  0.00  0.00    +0.000 HD
BRANCH  20  22
ATOM     22  C   UNL     1      -2.338  12.835  20.603  0.00  0.00    +0.000 A 
ATOM     23  N   UNL     1      -3.582  12.858  21.139  0.00  0.00    +0.000 NA
ATOM     24  C   UNL     1      -4.183  14.032  21.433  0.00  0.00    +0.000 A 
ATOM     25  N   UNL     1      -5.488  14.025  21.831  0.00  0.00    +0.000 N 
ATOM     26  C   UNL     1      -6.227  15.263  22.097  0.00  0.00    +0.000 C 
ATOM     27  C   UNL     1      -6.600  15.357  23.585  0.00  0.00    +0.000 C 
ATOM     28  O   UNL     1      -7.275  14.172  24.040  0.00  0.00    +0.000 OA
ATOM     29  C   UNL     1      -6.438  13.017  23.852  0.00  0.00    +0.000 C 
ATOM     30  C   UNL     1      -6.095  12.808  22.370  0.00  0.00    +0.000 C 
ATOM     31  N   UNL     1      -3.568  15.212  21.278  0.00  0.00    +0.000 NA
ATOM     32  C   UNL     1      -2.333  15.200  20.748  0.00  0.00    +0.000 A 
ATOM     33  C   UNL     1      -1.702  14.041  20.366  0.00  0.00    +0.000 A 
BRANCH  33  34
ATOM     34  N   UNL     1      -0.409  14.145  19.756  0.00  0.00    +0.000 N 
ATOM     35  O   UNL     1      -0.339  13.982  18.533  0.00  0.00    +0.000 OA
ATOM     36  O   UNL     1       0.559  14.352  20.504  0.00  0.00    +0.000 OA
ENDBRANCH  33  34
ENDBRANCH  20  22
ENDBRANCH  10  20
TORSDOF 5
ENDMDL
