MODEL 1
REMARK VINA RESULT:      -8.5      0.000      0.000
REMARK  Name = 
REMARK  6 active torsions:
REMARK  status: ('A' for Active; 'I' for Inactive)
REMARK    1  A    between atoms: C_2  and  O_3
REMARK    2  A    between atoms: C_2  and  C_10
REMARK    3  A    between atoms: O_3  and  C_4
REMARK    4  A    between atoms: C_13  and  O_14
REMARK    5  A    between atoms: O_14  and  C_15
REMARK    6  A    between atoms: C_15  and  C_16
REMARK                            x       y       z     vdW  Elec       q    Type
REMARK                         _______ _______ _______ _____ _____    ______ ____
ROOT
ATOM      1  C   UNL     1       5.809   5.509  17.428  0.00  0.00    +0.000 A 
ATOM      2  C   UNL     1       6.700   5.162  18.450  0.00  0.00    +0.000 A 
ATOM      3  C   UNL     1       7.672   6.066  18.880  0.00  0.00    +0.000 A 
ATOM      4  C   UNL     1       7.782   7.317  18.275  0.00  0.00    +0.000 A 
ATOM      5  C   UNL     1       6.886   7.676  17.266  0.00  0.00    +0.000 A 
ATOM      6  C   UNL     1       5.905   6.775  16.836  0.00  0.00    +0.000 A 
ENDROOT
BRANCH   1   8
ATOM      7  O   UNL     1       5.035   3.390  16.659  0.00  0.00    +0.000 OA
ATOM      8  C   UNL     1       4.768   4.513  17.059  0.00  0.00    +0.000 C 
BRANCH   8   9
ATOM      9  O   UNL     1       3.516   5.049  17.307  0.00  0.00    +0.000 OA
BRANCH   9  10
ATOM     10  C   UNL     1       2.606   4.592  18.288  0.00  0.00    +0.000 A 
ATOM     11  C   UNL     1       2.550   5.393  19.434  0.00  0.00    +0.000 A 
ATOM     12  C   UNL     1       1.738   5.016  20.503  0.00  0.00    +0.000 A 
ATOM     13  C   UNL     1       0.983   3.847  20.421  0.00  0.00    +0.000 A 
ATOM     14  C   UNL     1       1.027   3.063  19.266  0.00  0.00    +0.000 A 
ATOM     15  C   UNL     1       1.841   3.436  18.192  0.00  0.00    +0.000 A 
ENDBRANCH   9  10
ENDBRANCH   8   9
ENDBRANCH   1   8
BRANCH   4  16
ATOM     16  O   UNL     1       8.718   8.263  18.593  0.00  0.00    +0.000 OA
BRANCH  16  17
ATOM     17  C   UNL     1       8.416   9.590  18.162  0.00  0.00    +0.000 C 
BRANCH  17  18
ATOM     18  C   UNL     1       9.426  10.535  18.755  0.00  0.00    +0.000 A 
ATOM     19  C   UNL     1       9.459  10.783  20.133  0.00  0.00    +0.000 A 
ATOM     20  C   UNL     1      10.412  11.651  20.668  0.00  0.00    +0.000 A 
ATOM     21  C   UNL     1      11.333  12.280  19.831  0.00  0.00    +0.000 A 
ATOM     22  C   UNL     1      11.301  12.048  18.457  0.00  0.00    +0.000 A 
ATOM     23  C   UNL     1      10.348  11.183  17.921  0.00  0.00    +0.000 A 
ENDBRANCH  17  18
ENDBRANCH  16  17
ENDBRANCH   4  16
TORSDOF 6
ENDMDL
MODEL 2
REMARK VINA RESULT:      -8.3      0.234      1.030
REMARK  Name = 
REMARK  6 active torsions:
REMARK  status: ('A' for Active; 'I' for Inactive)
REMARK    1  A    between atoms: C_2  and  O_3
REMARK    2  A    between atoms: C_2  and  C_10
REMARK    3  A    between atoms: O_3  and  C_4
REMARK    4  A    between atoms: C_13  and  O_14
REMARK    5  A    between atoms: O_14  and  C_15
REMARK    6  A    between atoms: C_15  and  C_16
REMARK                            x       y       z     vdW  Elec       q    Type
REMARK                         _______ _______ _______ _____ _____    ______ ____
ROOT
ATOM      1  C   UNL     1       5.728   5.440  17.470  0.00  0.00    +0.000 A 
ATOM      2  C   UNL     1       6.710   5.055  18.389  0.00  0.00    +0.000 A 
ATOM      3  C   UNL     1       7.690   5.959  18.799  0.00  0.00    +0.000 A 
ATOM      4  C   UNL     1       7.717   7.250  18.273  0.00  0.00    +0.000 A 
ATOM      5  C   UNL     1       6.730   7.646  17.368  0.00  0.00    +0.000 A 
ATOM      6  C   UNL     1       5.740   6.744  16.959  0.00  0.00    +0.000 A 
ENDROOT
BRANCH   1   8
ATOM      7  O   UNL     1       4.952   3.325  16.691  0.00  0.00    +0.000 OA
ATOM      8  C   UNL     1       4.686   4.437  17.120  0.00  0.00    +0.000 C 
BRANCH   8   9
ATOM      9  O   UNL     1       3.437   4.954  17.422  0.00  0.00    +0.000 OA
BRANCH   9  10
ATOM     10  C   UNL     1       2.528   4.410  18.357  0.00  0.00    +0.000 A 
ATOM     11  C   UNL     1       2.484   5.093  19.578  0.00  0.00    +0.000 A 
ATOM     12  C   UNL     1       1.674   4.619  20.608  0.00  0.00    +0.000 A 
ATOM     13  C   UNL     1       0.906   3.472  20.414  0.00  0.00    +0.000 A 
ATOM     14  C   UNL     1       0.937   2.807  19.186  0.00  0.00    +0.000 A 
ATOM     15  C   UNL     1       1.749   3.277  18.151  0.00  0.00    +0.000 A 
ENDBRANCH   9  10
ENDBRANCH   8   9
ENDBRANCH   1   8
BRANCH   4  16
ATOM     16  O   UNL     1       8.651   8.203  18.578  0.00  0.00    +0.000 OA
BRANCH  16  17
ATOM     17  C   UNL     1       8.413   9.492  18.014  0.00  0.00    +0.000 C 
BRANCH  17  18
ATOM     18  C   UNL     1       9.331  10.487  18.675  0.00  0.00    +0.000 A 
ATOM     19  C   UNL     1      10.175  11.305  17.913  0.00  0.00    +0.000 A 
ATOM     20  C   UNL     1      11.008  12.232  18.542  0.00  0.00    +0.000 A 
ATOM     21  C   UNL     1      11.006  12.345  19.931  0.00  0.00    +0.000 A 
ATOM     22  C   UNL     1      10.177  11.528  20.697  0.00  0.00    +0.000 A 
ATOM     23  C   UNL     1       9.346  10.599  20.072  0.00  0.00    +0.000 A 
ENDBRANCH  17  18
ENDBRANCH  16  17
ENDBRANCH   4  16
TORSDOF 6
ENDMDL
MODEL 3
REMARK VINA RESULT:      -8.3      0.695      1.888
REMARK  Name = 
REMARK  6 active torsions:
REMARK  status: ('A' for Active; 'I' for Inactive)
REMARK    1  A    between atoms: C_2  and  O_3
REMARK    2  A    between atoms: C_2  and  C_10
REMARK    3  A    between atoms: O_3  and  C_4
REMARK    4  A    between atoms: C_13  and  O_14
REMARK    5  A    between atoms: O_14  and  C_15
REMARK    6  A    between atoms: C_15  and  C_16
REMARK                            x       y       z     vdW  Elec       q    Type
REMARK                         _______ _______ _______ _____ _____    ______ ____
ROOT
ATOM      1  C   UNL     1       5.939   5.275  17.679  0.00  0.00    +0.000 A 
ATOM      2  C   UNL     1       5.859   6.498  17.003  0.00  0.00    +0.000 A 
ATOM      3  C   UNL     1       6.762   7.523  17.283  0.00  0.00    +0.000 A 
ATOM      4  C   UNL     1       7.739   7.349  18.263  0.00  0.00    +0.000 A 
ATOM      5  C   UNL     1       7.835   6.126  18.929  0.00  0.00    +0.000 A 
ATOM      6  C   UNL     1       6.936   5.091  18.647  0.00  0.00    +0.000 A 
ENDROOT
BRANCH   1   8
ATOM      7  O   UNL     1       4.627   4.022  16.135  0.00  0.00    +0.000 OA
ATOM      8  C   UNL     1       4.974   4.212  17.290  0.00  0.00    +0.000 C 
BRANCH   8   9
ATOM      9  O   UNL     1       4.621   3.483  18.413  0.00  0.00    +0.000 OA
BRANCH   9  10
ATOM     10  C   UNL     1       3.367   3.531  19.062  0.00  0.00    +0.000 A 
ATOM     11  C   UNL     1       2.434   2.610  18.575  0.00  0.00    +0.000 A 
ATOM     12  C   UNL     1       1.138   2.599  19.089  0.00  0.00    +0.000 A 
ATOM     13  C   UNL     1       0.782   3.502  20.089  0.00  0.00    +0.000 A 
ATOM     14  C   UNL     1       1.724   4.405  20.587  0.00  0.00    +0.000 A 
ATOM     15  C   UNL     1       3.024   4.421  20.074  0.00  0.00    +0.000 A 
ENDBRANCH   9  10
ENDBRANCH   8   9
ENDBRANCH   1   8
BRANCH   4  16
ATOM     16  O   UNL     1       8.651   8.297  18.641  0.00  0.00    +0.000 OA
BRANCH  16  17
ATOM     17  C   UNL     1       8.441   9.598  18.094  0.00  0.00    +0.000 C 
BRANCH  17  18
ATOM     18  C   UNL     1       9.442  10.546  18.698  0.00  0.00    +0.000 A 
ATOM     19  C   UNL     1      10.379  11.212  17.897  0.00  0.00    +0.000 A 
ATOM     20  C   UNL     1      11.290  12.098  18.472  0.00  0.00    +0.000 A 
ATOM     21  C   UNL     1      11.276  12.322  19.848  0.00  0.00    +0.000 A 
ATOM     22  C   UNL     1      10.355  11.655  20.654  0.00  0.00    +0.000 A 
ATOM     23  C   UNL     1       9.445  10.767  20.082  0.00  0.00    +0.000 A 
ENDBRANCH  17  18
ENDBRANCH  16  17
ENDBRANCH   4  16
TORSDOF 6
ENDMDL
MODEL 4
REMARK VINA RESULT:      -8.3      0.244      1.436
REMARK  Name = 
REMARK  6 active torsions:
REMARK  status: ('A' for Active; 'I' for Inactive)
REMARK    1  A    between atoms: C_2  and  O_3
REMARK    2  A    between atoms: C_2  and  C_10
REMARK    3  A    between atoms: O_3  and  C_4
REMARK    4  A    between atoms: C_13  and  O_14
REMARK    5  A    between atoms: O_14  and  C_15
REMARK    6  A    between atoms: C_15  and  C_16
REMARK                            x       y       z     vdW  Elec       q    Type
REMARK                         _______ _______ _______ _____ _____    ______ ____
ROOT
ATOM      1  C   UNL     1       5.766   5.409  17.479  0.00  0.00    +0.000 A 
ATOM      2  C   UNL     1       5.774   6.626  16.787  0.00  0.00    +0.000 A 
ATOM      3  C   UNL     1       6.728   7.600  17.079  0.00  0.00    +0.000 A 
ATOM      4  C   UNL     1       7.670   7.381  18.084  0.00  0.00    +0.000 A 
ATOM      5  C   UNL     1       7.679   6.163  18.766  0.00  0.00    +0.000 A 
ATOM      6  C   UNL     1       6.727   5.179  18.472  0.00  0.00    +0.000 A 
ENDROOT
BRANCH   1   8
ATOM      7  O   UNL     1       5.044   3.322  16.584  0.00  0.00    +0.000 OA
ATOM      8  C   UNL     1       4.750   4.399  17.077  0.00  0.00    +0.000 C 
BRANCH   8   9
ATOM      9  O   UNL     1       3.490   4.863  17.414  0.00  0.00    +0.000 OA
BRANCH   9  10
ATOM     10  C   UNL     1       2.735   4.448  18.535  0.00  0.00    +0.000 A 
ATOM     11  C   UNL     1       1.834   3.411  18.267  0.00  0.00    +0.000 A 
ATOM     12  C   UNL     1       0.985   2.955  19.274  0.00  0.00    +0.000 A 
ATOM     13  C   UNL     1       1.044   3.528  20.544  0.00  0.00    +0.000 A 
ATOM     14  C   UNL     1       1.961   4.547  20.811  0.00  0.00    +0.000 A 
ATOM     15  C   UNL     1       2.812   5.010  19.804  0.00  0.00    +0.000 A 
ENDBRANCH   9  10
ENDBRANCH   8   9
ENDBRANCH   1   8
BRANCH   4  16
ATOM     16  O   UNL     1       8.626   8.279  18.474  0.00  0.00    +0.000 OA
BRANCH  16  17
ATOM     17  C   UNL     1       8.382   9.634  18.097  0.00  0.00    +0.000 C 
BRANCH  17  18
ATOM     18  C   UNL     1       9.430  10.511  18.727  0.00  0.00    +0.000 A 
ATOM     19  C   UNL     1       9.410  10.785  20.101  0.00  0.00    +0.000 A 
ATOM     20  C   UNL     1      10.399  11.587  20.671  0.00  0.00    +0.000 A 
ATOM     21  C   UNL     1      11.409  12.125  19.874  0.00  0.00    +0.000 A 
ATOM     22  C   UNL     1      11.431  11.866  18.505  0.00  0.00    +0.000 A 
ATOM     23  C   UNL     1      10.443  11.067  17.933  0.00  0.00    +0.000 A 
ENDBRANCH  17  18
ENDBRANCH  16  17
ENDBRANCH   4  16
TORSDOF 6
ENDMDL
MODEL 5
REMARK VINA RESULT:      -8.2      0.703      1.605
REMARK  Name = 
REMARK  6 active torsions:
REMARK  status: ('A' for Active; 'I' for Inactive)
REMARK    1  A    between atoms: C_2  and  O_3
REMARK    2  A    between atoms: C_2  and  C_10
REMARK    3  A    between atoms: O_3  and  C_4
REMARK    4  A    between atoms: C_13  and  O_14
REMARK    5  A    between atoms: O_14  and  C_15
REMARK    6  A    between atoms: C_15  and  C_16
REMARK                            x       y       z     vdW  Elec       q    Type
REMARK                         _______ _______ _______ _____ _____    ______ ____
ROOT
ATOM      1  C   UNL     1       5.986   5.370  17.189  0.00  0.00    +0.000 A 
ATOM      2  C   UNL     1       6.919   4.992  18.161  0.00  0.00    +0.000 A 
ATOM      3  C   UNL     1       7.807   5.928  18.692  0.00  0.00    +0.000 A 
ATOM      4  C   UNL     1       7.791   7.246  18.238  0.00  0.00    +0.000 A 
ATOM      5  C   UNL     1       6.852   7.633  17.280  0.00  0.00    +0.000 A 
ATOM      6  C   UNL     1       5.954   6.699  16.749  0.00  0.00    +0.000 A 
ENDROOT
BRANCH   1   8
ATOM      7  O   UNL     1       4.705   4.223  15.538  0.00  0.00    +0.000 OA
ATOM      8  C   UNL     1       5.038   4.328  16.708  0.00  0.00    +0.000 C 
BRANCH   8   9
ATOM      9  O   UNL     1       4.683   3.511  17.768  0.00  0.00    +0.000 OA
BRANCH   9  10
ATOM     10  C   UNL     1       3.468   3.581  18.487  0.00  0.00    +0.000 A 
ATOM     11  C   UNL     1       2.579   2.536  18.212  0.00  0.00    +0.000 A 
ATOM     12  C   UNL     1       1.319   2.524  18.809  0.00  0.00    +0.000 A 
ATOM     13  C   UNL     1       0.955   3.549  19.681  0.00  0.00    +0.000 A 
ATOM     14  C   UNL     1       1.855   4.577  19.968  0.00  0.00    +0.000 A 
ATOM     15  C   UNL     1       3.118   4.595  19.371  0.00  0.00    +0.000 A 
ENDBRANCH   9  10
ENDBRANCH   8   9
ENDBRANCH   1   8
BRANCH   4  16
ATOM     16  O   UNL     1       8.638   8.233  18.663  0.00  0.00    +0.000 OA
BRANCH  16  17
ATOM     17  C   UNL     1       8.409   9.521  18.092  0.00  0.00    +0.000 C 
BRANCH  17  18
ATOM     18  C   UNL     1       9.370  10.503  18.708  0.00  0.00    +0.000 A 
ATOM     19  C   UNL     1      10.268  11.227  17.914  0.00  0.00    +0.000 A 
ATOM     20  C   UNL     1      11.141  12.144  18.501  0.00  0.00    +0.000 A 
ATOM     21  C   UNL     1      11.127  12.340  19.881  0.00  0.00    +0.000 A 
ATOM     22  C   UNL     1      10.245  11.615  20.680  0.00  0.00    +0.000 A 
ATOM     23  C   UNL     1       9.373  10.697  20.097  0.00  0.00    +0.000 A 
ENDBRANCH  17  18
ENDBRANCH  16  17
ENDBRANCH   4  16
TORSDOF 6
ENDMDL
MODEL 6
REMARK VINA RESULT:      -8.2      4.316      8.037
REMARK  Name = 
REMARK  6 active torsions:
REMARK  status: ('A' for Active; 'I' for Inactive)
REMARK    1  A    between atoms: C_2  and  O_3
REMARK    2  A    between atoms: C_2  and  C_10
REMARK    3  A    between atoms: O_3  and  C_4
REMARK    4  A    between atoms: C_13  and  O_14
REMARK    5  A    between atoms: O_14  and  C_15
REMARK    6  A    between atoms: C_15  and  C_16
REMARK                            x       y       z     vdW  Elec       q    Type
REMARK                         _______ _______ _______ _____ _____    ______ ____
ROOT
ATOM      1  C   UNL     1       6.205   5.492  17.403  0.00  0.00    +0.000 A 
ATOM      2  C   UNL     1       5.974   4.894  18.648  0.00  0.00    +0.000 A 
ATOM      3  C   UNL     1       4.865   5.257  19.412  0.00  0.00    +0.000 A 
ATOM      4  C   UNL     1       3.989   6.240  18.954  0.00  0.00    +0.000 A 
ATOM      5  C   UNL     1       4.205   6.829  17.707  0.00  0.00    +0.000 A 
ATOM      6  C   UNL     1       5.313   6.463  16.932  0.00  0.00    +0.000 A 
ENDROOT
BRANCH   1   8
ATOM      7  O   UNL     1       8.169   4.187  17.049  0.00  0.00    +0.000 OA
ATOM      8  C   UNL     1       7.380   5.017  16.623  0.00  0.00    +0.000 C 
BRANCH   8   9
ATOM      9  O   UNL     1       7.366   5.610  15.372  0.00  0.00    +0.000 OA
BRANCH   9  10
ATOM     10  C   UNL     1       7.039   4.962  14.160  0.00  0.00    +0.000 A 
ATOM     11  C   UNL     1       5.914   4.135  14.237  0.00  0.00    +0.000 A 
ATOM     12  C   UNL     1       5.524   3.390  13.126  0.00  0.00    +0.000 A 
ATOM     13  C   UNL     1       6.254   3.478  11.941  0.00  0.00    +0.000 A 
ATOM     14  C   UNL     1       7.364   4.322  11.863  0.00  0.00    +0.000 A 
ATOM     15  C   UNL     1       7.760   5.070  12.975  0.00  0.00    +0.000 A 
ENDBRANCH   9  10
ENDBRANCH   8   9
ENDBRANCH   1   8
BRANCH   4  16
ATOM     16  O   UNL     1       2.893   6.696  19.636  0.00  0.00    +0.000 OA
BRANCH  16  17
ATOM     17  C   UNL     1       1.633   6.256  19.131  0.00  0.00    +0.000 C 
BRANCH  17  18
ATOM     18  C   UNL     1       1.519   4.769  19.336  0.00  0.00    +0.000 A 
ATOM     19  C   UNL     1       1.517   3.889  18.246  0.00  0.00    +0.000 A 
ATOM     20  C   UNL     1       1.425   2.512  18.456  0.00  0.00    +0.000 A 
ATOM     21  C   UNL     1       1.331   2.007  19.752  0.00  0.00    +0.000 A 
ATOM     22  C   UNL     1       1.322   2.876  20.842  0.00  0.00    +0.000 A 
ATOM     23  C   UNL     1       1.411   4.252  20.635  0.00  0.00    +0.000 A 
ENDBRANCH  17  18
ENDBRANCH  16  17
ENDBRANCH   4  16
TORSDOF 6
ENDMDL
MODEL 7
REMARK VINA RESULT:      -8.0      0.680      1.517
REMARK  Name = 
REMARK  6 active torsions:
REMARK  status: ('A' for Active; 'I' for Inactive)
REMARK    1  A    between atoms: C_2  and  O_3
REMARK    2  A    between atoms: C_2  and  C_10
REMARK    3  A    between atoms: O_3  and  C_4
REMARK    4  A    between atoms: C_13  and  O_14
REMARK    5  A    between atoms: O_14  and  C_15
REMARK    6  A    between atoms: C_15  and  C_16
REMARK                            x       y       z     vdW  Elec       q    Type
REMARK                         _______ _______ _______ _____ _____    ______ ____
ROOT
ATOM      1  C   UNL     1       6.054   5.492  17.219  0.00  0.00    +0.000 A 
ATOM      2  C   UNL     1       6.895   5.133  18.279  0.00  0.00    +0.000 A 
ATOM      3  C   UNL     1       7.785   6.060  18.821  0.00  0.00    +0.000 A 
ATOM      4  C   UNL     1       7.865   7.348  18.294  0.00  0.00    +0.000 A 
ATOM      5  C   UNL     1       7.018   7.717  17.248  0.00  0.00    +0.000 A 
ATOM      6  C   UNL     1       6.117   6.794  16.704  0.00  0.00    +0.000 A 
ENDROOT
BRANCH   1   8
ATOM      7  O   UNL     1       5.451   3.409  16.231  0.00  0.00    +0.000 OA
ATOM      8  C   UNL     1       5.095   4.466  16.727  0.00  0.00    +0.000 C 
BRANCH   8   9
ATOM      9  O   UNL     1       3.803   4.889  16.988  0.00  0.00    +0.000 OA
BRANCH   9  10
ATOM     10  C   UNL     1       3.217   4.996  18.270  0.00  0.00    +0.000 A 
ATOM     11  C   UNL     1       3.074   3.776  18.939  0.00  0.00    +0.000 A 
ATOM     12  C   UNL     1       2.452   3.739  20.186  0.00  0.00    +0.000 A 
ATOM     13  C   UNL     1       1.982   4.918  20.761  0.00  0.00    +0.000 A 
ATOM     14  C   UNL     1       2.147   6.136  20.099  0.00  0.00    +0.000 A 
ATOM     15  C   UNL     1       2.769   6.179  18.847  0.00  0.00    +0.000 A 
ENDBRANCH   9  10
ENDBRANCH   8   9
ENDBRANCH   1   8
BRANCH   4  16
ATOM     16  O   UNL     1       8.724   8.321  18.726  0.00  0.00    +0.000 OA
BRANCH  16  17
ATOM     17  C   UNL     1       8.462   9.632  18.227  0.00  0.00    +0.000 C 
BRANCH  17  18
ATOM     18  C   UNL     1       9.463  10.587  18.820  0.00  0.00    +0.000 A 
ATOM     19  C   UNL     1      10.426  11.212  18.018  0.00  0.00    +0.000 A 
ATOM     20  C   UNL     1      11.337  12.107  18.583  0.00  0.00    +0.000 A 
ATOM     21  C   UNL     1      11.295  12.378  19.950  0.00  0.00    +0.000 A 
ATOM     22  C   UNL     1      10.347  11.751  20.758  0.00  0.00    +0.000 A 
ATOM     23  C   UNL     1       9.438  10.856  20.196  0.00  0.00    +0.000 A 
ENDBRANCH  17  18
ENDBRANCH  16  17
ENDBRANCH   4  16
TORSDOF 6
ENDMDL
MODEL 8
REMARK VINA RESULT:      -8.0      4.307      8.052
REMARK  Name = 
REMARK  6 active torsions:
REMARK  status: ('A' for Active; 'I' for Inactive)
REMARK    1  A    between atoms: C_2  and  O_3
REMARK    2  A    between atoms: C_2  and  C_10
REMARK    3  A    between atoms: O_3  and  C_4
REMARK    4  A    between atoms: C_13  and  O_14
REMARK    5  A    between atoms: O_14  and  C_15
REMARK    6  A    between atoms: C_15  and  C_16
REMARK                            x       y       z     vdW  Elec       q    Type
REMARK                         _______ _______ _______ _____ _____    ______ ____
ROOT
ATOM      1  C   UNL     1       6.015   5.596  17.440  0.00  0.00    +0.000 A 
ATOM      2  C   UNL     1       5.781   5.238  18.773  0.00  0.00    +0.000 A 
ATOM      3  C   UNL     1       4.597   5.613  19.409  0.00  0.00    +0.000 A 
ATOM      4  C   UNL     1       3.646   6.374  18.730  0.00  0.00    +0.000 A 
ATOM      5  C   UNL     1       3.867   6.720  17.395  0.00  0.00    +0.000 A 
ATOM      6  C   UNL     1       5.049   6.340  16.750  0.00  0.00    +0.000 A 
ENDROOT
BRANCH   1   8
ATOM      7  O   UNL     1       8.047   4.352  17.373  0.00  0.00    +0.000 OA
ATOM      8  C   UNL     1       7.276   5.116  16.814  0.00  0.00    +0.000 C 
BRANCH   8   9
ATOM      9  O   UNL     1       7.366   5.620  15.527  0.00  0.00    +0.000 OA
BRANCH   9  10
ATOM     10  C   UNL     1       7.062   4.909  14.344  0.00  0.00    +0.000 A 
ATOM     11  C   UNL     1       7.815   5.299  13.231  0.00  0.00    +0.000 A 
ATOM     12  C   UNL     1       7.567   4.718  11.988  0.00  0.00    +0.000 A 
ATOM     13  C   UNL     1       6.573   3.748  11.863  0.00  0.00    +0.000 A 
ATOM     14  C   UNL     1       5.839   3.348  12.981  0.00  0.00    +0.000 A 
ATOM     15  C   UNL     1       6.083   3.928  14.229  0.00  0.00    +0.000 A 
ENDBRANCH   9  10
ENDBRANCH   8   9
ENDBRANCH   1   8
BRANCH   4  16
ATOM     16  O   UNL     1       2.471   6.824  19.267  0.00  0.00    +0.000 OA
BRANCH  16  17
ATOM     17  C   UNL     1       2.056   6.167  20.464  0.00  0.00    +0.000 C 
BRANCH  17  18
ATOM     18  C   UNL     1       1.754   4.726  20.149  0.00  0.00    +0.000 A 
ATOM     19  C   UNL     1       1.378   4.335  18.858  0.00  0.00    +0.000 A 
ATOM     20  C   UNL     1       1.116   2.992  18.580  0.00  0.00    +0.000 A 
ATOM     21  C   UNL     1       1.222   2.036  19.589  0.00  0.00    +0.000 A 
ATOM     22  C   UNL     1       1.584   2.418  20.879  0.00  0.00    +0.000 A 
ATOM     23  C   UNL     1       1.844   3.759  21.159  0.00  0.00    +0.000 A 
ENDBRANCH  17  18
ENDBRANCH  16  17
ENDBRANCH   4  16
TORSDOF 6
ENDMDL
MODEL 9
REMARK VINA RESULT:      -7.9      1.072      1.249
REMARK  Name = 
REMARK  6 active torsions:
REMARK  status: ('A' for Active; 'I' for Inactive)
REMARK    1  A    between atoms: C_2  and  O_3
REMARK    2  A    between atoms: C_2  and  C_10
REMARK    3  A    between atoms: O_3  and  C_4
REMARK    4  A    between atoms: C_13  and  O_14
REMARK    5  A    between atoms: O_14  and  C_15
REMARK    6  A    between atoms: C_15  and  C_16
REMARK                            x       y       z     vdW  Elec       q    Type
REMARK                         _______ _______ _______ _____ _____    ______ ____
ROOT
ATOM      1  C   UNL     1       6.479   5.187  17.165  0.00  0.00    +0.000 A 
ATOM      2  C   UNL     1       7.291   4.916  18.273  0.00  0.00    +0.000 A 
ATOM      3  C   UNL     1       8.025   5.935  18.880  0.00  0.00    +0.000 A 
ATOM      4  C   UNL     1       7.977   7.232  18.371  0.00  0.00    +0.000 A 
ATOM      5  C   UNL     1       7.156   7.513  17.277  0.00  0.00    +0.000 A 
ATOM      6  C   UNL     1       6.413   6.495  16.668  0.00  0.00    +0.000 A 
ENDROOT
BRANCH   1   8
ATOM      7  O   UNL     1       5.844   3.639  15.467  0.00  0.00    +0.000 OA
ATOM      8  C   UNL     1       5.688   4.060  16.603  0.00  0.00    +0.000 C 
BRANCH   8   9
ATOM      9  O   UNL     1       4.839   3.568  17.581  0.00  0.00    +0.000 OA
BRANCH   9  10
ATOM     10  C   UNL     1       3.890   4.327  18.303  0.00  0.00    +0.000 A 
ATOM     11  C   UNL     1       3.766   3.960  19.647  0.00  0.00    +0.000 A 
ATOM     12  C   UNL     1       2.818   4.589  20.452  0.00  0.00    +0.000 A 
ATOM     13  C   UNL     1       2.005   5.586  19.915  0.00  0.00    +0.000 A 
ATOM     14  C   UNL     1       2.148   5.963  18.578  0.00  0.00    +0.000 A 
ATOM     15  C   UNL     1       3.096   5.334  17.766  0.00  0.00    +0.000 A 
ENDBRANCH   9  10
ENDBRANCH   8   9
ENDBRANCH   1   8
BRANCH   4  16
ATOM     16  O   UNL     1       8.681   8.296  18.866  0.00  0.00    +0.000 OA
BRANCH  16  17
ATOM     17  C   UNL     1       8.473   9.535  18.188  0.00  0.00    +0.000 C 
BRANCH  17  18
ATOM     18  C   UNL     1       9.402  10.568  18.767  0.00  0.00    +0.000 A 
ATOM     19  C   UNL     1       9.458  10.795  20.148  0.00  0.00    +0.000 A 
ATOM     20  C   UNL     1      10.337  11.746  20.668  0.00  0.00    +0.000 A 
ATOM     21  C   UNL     1      11.160  12.478  19.814  0.00  0.00    +0.000 A 
ATOM     22  C   UNL     1      11.103  12.267  18.438  0.00  0.00    +0.000 A 
ATOM     23  C   UNL     1      10.224  11.320  17.916  0.00  0.00    +0.000 A 
ENDBRANCH  17  18
ENDBRANCH  16  17
ENDBRANCH   4  16
TORSDOF 6
ENDMDL
