MODEL 1
REMARK VINA RESULT:      -5.8      0.000      0.000
REMARK  Name = 
REMARK  11 active torsions:
REMARK  status: ('A' for Active; 'I' for Inactive)
REMARK    1  A    between atoms: C_1  and  C_2
REMARK    2  A    between atoms: C_2  and  C_3
REMARK    3  A    between atoms: C_3  and  C_4
REMARK    4  A    between atoms: C_4  and  S_5
REMARK    5  A    between atoms: S_5  and  C_6
REMARK    6  A    between atoms: C_8  and  C_9
REMARK    7  A    between atoms: N_16  and  S_17
REMARK    8  A    between atoms: S_17  and  C_20
REMARK    9  A    between atoms: C_25  and  C_26
REMARK   10  A    between atoms: C_28  and  C_29
REMARK   11  A    between atoms: C_29  and  O_31
REMARK                            x       y       z     vdW  Elec       q    Type
REMARK                         _______ _______ _______ _____ _____    ______ ____
ROOT
ATOM      1  C   UNL     1       0.305  10.016  19.105  0.00  0.00    +0.000 C 
ATOM      2  C   UNL     1       1.300  11.168  18.911  0.00  0.00    +0.000 C 
ATOM      3  C   UNL     1       1.099  12.329  19.918  0.00  0.00    +0.000 C 
ATOM      4  N   UNL     1      -0.346  12.831  19.917  0.00  0.00    +0.000 NA
ATOM      5  C   UNL     1      -1.350  11.697  20.068  0.00  0.00    +0.000 C 
ATOM      6  C   UNL     1      -1.121  10.560  19.073  0.00  0.00    +0.000 C 
ENDROOT
BRANCH   3   7
ATOM      7  C   UNL     1       2.102  13.416  19.580  0.00  0.00    +0.000 A 
ATOM      8  C   UNL     1       3.060  13.833  20.517  0.00  0.00    +0.000 A 
ATOM      9  C   UNL     1       4.025  14.774  20.172  0.00  0.00    +0.000 A 
ATOM     10  C   UNL     1       4.017  15.341  18.901  0.00  0.00    +0.000 A 
ATOM     11 CL   UNL     1       5.218  16.494  18.476  0.00  0.00    +0.000 Cl
ATOM     12  C   UNL     1       3.046  14.971  17.973  0.00  0.00    +0.000 A 
ATOM     13  C   UNL     1       2.089  14.014  18.309  0.00  0.00    +0.000 A 
ENDBRANCH   3   7
BRANCH   4  14
ATOM     14  S   UNL     1      -0.620  13.977  21.274  0.00  0.00    +0.000 S 
ATOM     15  O   UNL     1      -2.049  14.011  21.515  0.00  0.00    +0.000 OA
ATOM     16  O   UNL     1       0.283  13.603  22.331  0.00  0.00    +0.000 OA
BRANCH  14  17
ATOM     17  C   UNL     1      -0.175  15.619  20.689  0.00  0.00    +0.000 A 
ATOM     18  C   UNL     1      -0.614  15.949  19.392  0.00  0.00    +0.000 A 
ATOM     19  C   UNL     1      -0.243  17.153  18.790  0.00  0.00    +0.000 A 
ATOM     20  C   UNL     1       0.546  18.057  19.488  0.00  0.00    +0.000 A 
ATOM     21  C   UNL     1       0.987  17.743  20.773  0.00  0.00    +0.000 A 
ATOM     22  C   UNL     1       0.680  16.507  21.382  0.00  0.00    +0.000 A 
ATOM     23  C   UNL     1       1.303  16.262  22.728  0.00  0.00    +0.000 C 
ENDBRANCH  14  17
ENDBRANCH   4  14
BRANCH   6  24
ATOM     24  C   UNL     1      -1.545  10.957  17.672  0.00  0.00    +0.000 C 
ATOM     25  O   UNL     1      -1.831  10.142  16.810  0.00  0.00    +0.000 OA
BRANCH  24  26
ATOM     26  O   UNL     1      -1.550  12.285  17.422  0.00  0.00    +0.000 OA
ATOM     27  H   UNL     1      -2.456  12.672  17.343  0.00  0.00    +0.000 HD
ENDBRANCH  24  26
ENDBRANCH   6  24
BRANCH   1  28
ATOM     28  S   UNL     1       0.744   9.187  20.704  0.00  0.00    +0.000 S 
BRANCH  28  29
ATOM     29  C   UNL     1       1.864   7.846  20.175  0.00  0.00    +0.000 C 
BRANCH  29  30
ATOM     30  C   UNL     1       1.423   6.572  20.901  0.00  0.00    +0.000 C 
BRANCH  30  32
ATOM     31  C   UNL     1       1.042   4.139  20.399  0.00  0.00    +0.000 C 
ATOM     32  C   UNL     1       2.010   5.307  20.273  0.00  0.00    +0.000 C 
ENDBRANCH  30  32
ENDBRANCH  29  30
ENDBRANCH  28  29
ENDBRANCH   1  28
TORSDOF 9
ENDMDL
MODEL 2
REMARK VINA RESULT:      -5.8      0.715      1.184
REMARK  Name = 
REMARK  11 active torsions:
REMARK  status: ('A' for Active; 'I' for Inactive)
REMARK    1  A    between atoms: C_1  and  C_2
REMARK    2  A    between atoms: C_2  and  C_3
REMARK    3  A    between atoms: C_3  and  C_4
REMARK    4  A    between atoms: C_4  and  S_5
REMARK    5  A    between atoms: S_5  and  C_6
REMARK    6  A    between atoms: C_8  and  C_9
REMARK    7  A    between atoms: N_16  and  S_17
REMARK    8  A    between atoms: S_17  and  C_20
REMARK    9  A    between atoms: C_25  and  C_26
REMARK   10  A    between atoms: C_28  and  C_29
REMARK   11  A    between atoms: C_29  and  O_31
REMARK                            x       y       z     vdW  Elec       q    Type
REMARK                         _______ _______ _______ _____ _____    ______ ____
ROOT
ATOM      1  C   UNL     1       0.385  10.150  19.531  0.00  0.00    +0.000 C 
ATOM      2  C   UNL     1       1.423  11.241  19.235  0.00  0.00    +0.000 C 
ATOM      3  C   UNL     1       1.237  12.516  20.097  0.00  0.00    +0.000 C 
ATOM      4  N   UNL     1      -0.190  13.058  20.000  0.00  0.00    +0.000 NA
ATOM      5  C   UNL     1      -1.235  11.980  20.250  0.00  0.00    +0.000 C 
ATOM      6  C   UNL     1      -1.021  10.730  19.398  0.00  0.00    +0.000 C 
ENDROOT
BRANCH   3   7
ATOM      7  C   UNL     1       2.284  13.526  19.665  0.00  0.00    +0.000 A 
ATOM      8  C   UNL     1       2.298  14.042  18.360  0.00  0.00    +0.000 A 
ATOM      9  C   UNL     1       3.212  15.025  17.997  0.00  0.00    +0.000 A 
ATOM     10  C   UNL     1       4.152  15.471  18.921  0.00  0.00    +0.000 A 
ATOM     11 CL   UNL     1       5.273  16.694  18.471  0.00  0.00    +0.000 Cl
ATOM     12  C   UNL     1       4.182  14.938  20.208  0.00  0.00    +0.000 A 
ATOM     13  C   UNL     1       3.253  13.966  20.581  0.00  0.00    +0.000 A 
ENDBRANCH   3   7
BRANCH   4  14
ATOM     14  S   UNL     1      -0.457  14.360  21.209  0.00  0.00    +0.000 S 
ATOM     15  O   UNL     1      -1.890  14.471  21.399  0.00  0.00    +0.000 OA
ATOM     16  O   UNL     1       0.401  14.077  22.329  0.00  0.00    +0.000 OA
BRANCH  14  17
ATOM     17  C   UNL     1       0.065  15.909  20.457  0.00  0.00    +0.000 A 
ATOM     18  C   UNL     1      -0.375  16.131  19.138  0.00  0.00    +0.000 A 
ATOM     19  C   UNL     1       0.050  17.246  18.414  0.00  0.00    +0.000 A 
ATOM     20  C   UNL     1       0.896  18.171  19.009  0.00  0.00    +0.000 A 
ATOM     21  C   UNL     1       1.339  17.964  20.315  0.00  0.00    +0.000 A 
ATOM     22  C   UNL     1       0.976  16.814  21.048  0.00  0.00    +0.000 A 
ATOM     23  C   UNL     1       1.606  16.671  22.407  0.00  0.00    +0.000 C 
ENDBRANCH  14  17
ENDBRANCH   4  14
BRANCH   6  24
ATOM     24  C   UNL     1      -1.397  10.978  17.949  0.00  0.00    +0.000 C 
ATOM     25  O   UNL     1      -1.544  10.076  17.140  0.00  0.00    +0.000 OA
BRANCH  24  26
ATOM     26  O   UNL     1      -1.524  12.275  17.597  0.00  0.00    +0.000 OA
ATOM     27  H   UNL     1      -1.911  12.407  16.696  0.00  0.00    +0.000 HD
ENDBRANCH  24  26
ENDBRANCH   6  24
BRANCH   1  28
ATOM     28  S   UNL     1       0.758   9.496  21.225  0.00  0.00    +0.000 S 
BRANCH  28  29
ATOM     29  C   UNL     1       1.104   7.731  20.916  0.00  0.00    +0.000 C 
BRANCH  29  30
ATOM     30  C   UNL     1       2.097   7.660  19.751  0.00  0.00    +0.000 C 
BRANCH  30  32
ATOM     31  C   UNL     1       2.438   5.769  18.131  0.00  0.00    +0.000 C 
ATOM     32  C   UNL     1       2.669   6.255  19.555  0.00  0.00    +0.000 C 
ENDBRANCH  30  32
ENDBRANCH  29  30
ENDBRANCH  28  29
ENDBRANCH   1  28
TORSDOF 9
ENDMDL
MODEL 3
REMARK VINA RESULT:      -5.4      2.023      2.940
REMARK  Name = 
REMARK  11 active torsions:
REMARK  status: ('A' for Active; 'I' for Inactive)
REMARK    1  A    between atoms: C_1  and  C_2
REMARK    2  A    between atoms: C_2  and  C_3
REMARK    3  A    between atoms: C_3  and  C_4
REMARK    4  A    between atoms: C_4  and  S_5
REMARK    5  A    between atoms: S_5  and  C_6
REMARK    6  A    between atoms: C_8  and  C_9
REMARK    7  A    between atoms: N_16  and  S_17
REMARK    8  A    between atoms: S_17  and  C_20
REMARK    9  A    between atoms: C_25  and  C_26
REMARK   10  A    between atoms: C_28  and  C_29
REMARK   11  A    between atoms: C_29  and  O_31
REMARK                            x       y       z     vdW  Elec       q    Type
REMARK                         _______ _______ _______ _____ _____    ______ ____
ROOT
ATOM      1  C   UNL     1       0.375  10.018  18.992  0.00  0.00    +0.000 C 
ATOM      2  C   UNL     1       1.317  11.220  18.842  0.00  0.00    +0.000 C 
ATOM      3  C   UNL     1       1.060  12.336  19.887  0.00  0.00    +0.000 C 
ATOM      4  N   UNL     1      -0.406  12.770  19.898  0.00  0.00    +0.000 NA
ATOM      5  C   UNL     1      -1.357  11.586  20.006  0.00  0.00    +0.000 C 
ATOM      6  C   UNL     1      -1.074  10.497  18.973  0.00  0.00    +0.000 C 
ENDROOT
BRANCH   3   7
ATOM      7  C   UNL     1       2.014  13.479  19.591  0.00  0.00    +0.000 A 
ATOM      8  C   UNL     1       2.979  13.877  20.529  0.00  0.00    +0.000 A 
ATOM      9  C   UNL     1       3.899  14.873  20.218  0.00  0.00    +0.000 A 
ATOM     10  C   UNL     1       3.837  15.512  18.984  0.00  0.00    +0.000 A 
ATOM     11 CL   UNL     1       4.983  16.734  18.600  0.00  0.00    +0.000 Cl
ATOM     12  C   UNL     1       2.857  15.161  18.058  0.00  0.00    +0.000 A 
ATOM     13  C   UNL     1       1.945  14.149  18.359  0.00  0.00    +0.000 A 
ENDBRANCH   3   7
BRANCH   4  14
ATOM     14  S   UNL     1      -0.736  13.855  21.293  0.00  0.00    +0.000 S 
ATOM     15  O   UNL     1      -0.058  13.284  22.440  0.00  0.00    +0.000 OA
ATOM     16  O   UNL     1      -0.429  15.195  20.865  0.00  0.00    +0.000 OA
BRANCH  14  17
ATOM     17  C   UNL     1      -2.495  13.752  21.651  0.00  0.00    +0.000 A 
ATOM     18  C   UNL     1      -3.307  14.717  21.025  0.00  0.00    +0.000 A 
ATOM     19  C   UNL     1      -4.672  14.803  21.307  0.00  0.00    +0.000 A 
ATOM     20  C   UNL     1      -5.249  13.906  22.194  0.00  0.00    +0.000 A 
ATOM     21  C   UNL     1      -4.457  12.945  22.821  0.00  0.00    +0.000 A 
ATOM     22  C   UNL     1      -3.064  12.875  22.603  0.00  0.00    +0.000 A 
ATOM     23  C   UNL     1      -2.319  11.855  23.419  0.00  0.00    +0.000 C 
ENDBRANCH  14  17
ENDBRANCH   4  14
BRANCH   6  24
ATOM     24  C   UNL     1      -1.512  10.923  17.585  0.00  0.00    +0.000 C 
ATOM     25  O   UNL     1      -1.803  10.125  16.708  0.00  0.00    +0.000 OA
BRANCH  24  26
ATOM     26  O   UNL     1      -1.524  12.255  17.364  0.00  0.00    +0.000 OA
ATOM     27  H   UNL     1      -1.374  12.795  18.179  0.00  0.00    +0.000 HD
ENDBRANCH  24  26
ENDBRANCH   6  24
BRANCH   1  28
ATOM     28  S   UNL     1       0.849   9.155  20.563  0.00  0.00    +0.000 S 
BRANCH  28  29
ATOM     29  C   UNL     1       1.841   7.741  19.970  0.00  0.00    +0.000 C 
BRANCH  29  30
ATOM     30  C   UNL     1       2.250   8.047  18.526  0.00  0.00    +0.000 C 
BRANCH  30  32
ATOM     31  C   UNL     1       2.544   5.579  18.149  0.00  0.00    +0.000 C 
ATOM     32  C   UNL     1       3.146   6.961  17.930  0.00  0.00    +0.000 C 
ENDBRANCH  30  32
ENDBRANCH  29  30
ENDBRANCH  28  29
ENDBRANCH   1  28
TORSDOF 9
ENDMDL
MODEL 4
REMARK VINA RESULT:      -5.4      3.316      5.080
REMARK  Name = 
REMARK  11 active torsions:
REMARK  status: ('A' for Active; 'I' for Inactive)
REMARK    1  A    between atoms: C_1  and  C_2
REMARK    2  A    between atoms: C_2  and  C_3
REMARK    3  A    between atoms: C_3  and  C_4
REMARK    4  A    between atoms: C_4  and  S_5
REMARK    5  A    between atoms: S_5  and  C_6
REMARK    6  A    between atoms: C_8  and  C_9
REMARK    7  A    between atoms: N_16  and  S_17
REMARK    8  A    between atoms: S_17  and  C_20
REMARK    9  A    between atoms: C_25  and  C_26
REMARK   10  A    between atoms: C_28  and  C_29
REMARK   11  A    between atoms: C_29  and  O_31
REMARK                            x       y       z     vdW  Elec       q    Type
REMARK                         _______ _______ _______ _____ _____    ______ ____
ROOT
ATOM      1  C   UNL     1       0.438   9.323  20.471  0.00  0.00    +0.000 C 
ATOM      2  C   UNL     1      -0.914   9.754  19.886  0.00  0.00    +0.000 C 
ATOM      3  C   UNL     1      -0.867  11.136  19.186  0.00  0.00    +0.000 C 
ATOM      4  N   UNL     1      -0.283  12.212  20.103  0.00  0.00    +0.000 NA
ATOM      5  C   UNL     1       1.039  11.786  20.724  0.00  0.00    +0.000 C 
ATOM      6  C   UNL     1       0.969  10.415  21.396  0.00  0.00    +0.000 C 
ENDROOT
BRANCH   3   7
ATOM      7  C   UNL     1      -2.270  11.463  18.709  0.00  0.00    +0.000 A 
ATOM      8  C   UNL     1      -2.673  11.174  17.396  0.00  0.00    +0.000 A 
ATOM      9  C   UNL     1      -3.983  11.405  16.990  0.00  0.00    +0.000 A 
ATOM     10  C   UNL     1      -4.894  11.968  17.879  0.00  0.00    +0.000 A 
ATOM     11 CL   UNL     1      -6.514  12.241  17.378  0.00  0.00    +0.000 Cl
ATOM     12  C   UNL     1      -4.500  12.302  19.173  0.00  0.00    +0.000 A 
ATOM     13  C   UNL     1      -3.191  12.054  19.588  0.00  0.00    +0.000 A 
ENDBRANCH   3   7
BRANCH   4  14
ATOM     14  S   UNL     1       0.016  13.731  19.189  0.00  0.00    +0.000 S 
ATOM     15  O   UNL     1       1.411  14.072  19.383  0.00  0.00    +0.000 OA
ATOM     16  O   UNL     1      -0.501  13.531  17.860  0.00  0.00    +0.000 OA
BRANCH  14  17
ATOM     17  C   UNL     1      -0.931  15.035  19.987  0.00  0.00    +0.000 A 
ATOM     18  C   UNL     1      -1.674  14.650  21.119  0.00  0.00    +0.000 A 
ATOM     19  C   UNL     1      -2.528  15.549  21.761  0.00  0.00    +0.000 A 
ATOM     20  C   UNL     1      -2.628  16.853  21.299  0.00  0.00    +0.000 A 
ATOM     21  C   UNL     1      -1.898  17.248  20.179  0.00  0.00    +0.000 A 
ATOM     22  C   UNL     1      -1.075  16.344  19.473  0.00  0.00    +0.000 A 
ATOM     23  C   UNL     1      -0.424  16.879  18.227  0.00  0.00    +0.000 C 
ENDBRANCH  14  17
ENDBRANCH   4  14
BRANCH   6  24
ATOM     24  C   UNL     1       0.197  10.477  22.701  0.00  0.00    +0.000 C 
ATOM     25  O   UNL     1       0.250   9.597  23.544  0.00  0.00    +0.000 OA
BRANCH  24  26
ATOM     26  O   UNL     1      -0.593  11.562  22.856  0.00  0.00    +0.000 OA
ATOM     27  H   UNL     1      -0.305  12.344  22.323  0.00  0.00    +0.000 HD
ENDBRANCH  24  26
ENDBRANCH   6  24
BRANCH   1  28
ATOM     28  S   UNL     1       1.556   8.962  19.036  0.00  0.00    +0.000 S 
BRANCH  28  29
ATOM     29  C   UNL     1       2.326   7.375  19.506  0.00  0.00    +0.000 C 
BRANCH  29  30
ATOM     30  C   UNL     1       2.738   6.668  18.211  0.00  0.00    +0.000 C 
BRANCH  30  32
ATOM     31  C   UNL     1       3.278   4.335  17.451  0.00  0.00    +0.000 C 
ATOM     32  C   UNL     1       2.260   5.217  18.160  0.00  0.00    +0.000 C 
ENDBRANCH  30  32
ENDBRANCH  29  30
ENDBRANCH  28  29
ENDBRANCH   1  28
TORSDOF 9
ENDMDL
MODEL 5
REMARK VINA RESULT:      -5.3      3.130      4.985
REMARK  Name = 
REMARK  11 active torsions:
REMARK  status: ('A' for Active; 'I' for Inactive)
REMARK    1  A    between atoms: C_1  and  C_2
REMARK    2  A    between atoms: C_2  and  C_3
REMARK    3  A    between atoms: C_3  and  C_4
REMARK    4  A    between atoms: C_4  and  S_5
REMARK    5  A    between atoms: S_5  and  C_6
REMARK    6  A    between atoms: C_8  and  C_9
REMARK    7  A    between atoms: N_16  and  S_17
REMARK    8  A    between atoms: S_17  and  C_20
REMARK    9  A    between atoms: C_25  and  C_26
REMARK   10  A    between atoms: C_28  and  C_29
REMARK   11  A    between atoms: C_29  and  O_31
REMARK                            x       y       z     vdW  Elec       q    Type
REMARK                         _______ _______ _______ _____ _____    ______ ____
ROOT
ATOM      1  C   UNL     1       0.542   9.631  19.729  0.00  0.00    +0.000 C 
ATOM      2  C   UNL     1      -0.892   9.975  19.303  0.00  0.00    +0.000 C 
ATOM      3  C   UNL     1      -1.095  11.480  18.992  0.00  0.00    +0.000 C 
ATOM      4  N   UNL     1      -0.627  12.363  20.149  0.00  0.00    +0.000 NA
ATOM      5  C   UNL     1       0.779  12.008  20.612  0.00  0.00    +0.000 C 
ATOM      6  C   UNL     1       0.956  10.518  20.899  0.00  0.00    +0.000 C 
ENDROOT
BRANCH   3   7
ATOM      7  C   UNL     1      -2.558  11.689  18.643  0.00  0.00    +0.000 A 
ATOM      8  C   UNL     1      -3.028  11.473  17.339  0.00  0.00    +0.000 A 
ATOM      9  C   UNL     1      -4.383  11.591  17.046  0.00  0.00    +0.000 A 
ATOM     10  C   UNL     1      -5.277  11.969  18.044  0.00  0.00    +0.000 A 
ATOM     11 CL   UNL     1      -6.950  12.102  17.680  0.00  0.00    +0.000 Cl
ATOM     12  C   UNL     1      -4.821  12.230  19.334  0.00  0.00    +0.000 A 
ATOM     13  C   UNL     1      -3.465  12.094  19.635  0.00  0.00    +0.000 A 
ENDBRANCH   3   7
BRANCH   4  14
ATOM     14  S   UNL     1      -0.614  14.093  19.663  0.00  0.00    +0.000 S 
ATOM     15  O   UNL     1      -0.411  14.126  18.228  0.00  0.00    +0.000 OA
ATOM     16  O   UNL     1      -1.784  14.701  20.242  0.00  0.00    +0.000 OA
BRANCH  14  17
ATOM     17  C   UNL     1       0.848  14.846  20.390  0.00  0.00    +0.000 A 
ATOM     18  C   UNL     1       1.964  14.968  19.540  0.00  0.00    +0.000 A 
ATOM     19  C   UNL     1       3.187  15.440  20.019  0.00  0.00    +0.000 A 
ATOM     20  C   UNL     1       3.303  15.828  21.346  0.00  0.00    +0.000 A 
ATOM     21  C   UNL     1       2.206  15.714  22.199  0.00  0.00    +0.000 A 
ATOM     22  C   UNL     1       0.976  15.180  21.758  0.00  0.00    +0.000 A 
ATOM     23  C   UNL     1      -0.090  15.023  22.808  0.00  0.00    +0.000 C 
ENDBRANCH  14  17
ENDBRANCH   4  14
BRANCH   6  24
ATOM     24  C   UNL     1       0.263  10.117  22.188  0.00  0.00    +0.000 C 
ATOM     25  O   UNL     1       0.184   8.959  22.564  0.00  0.00    +0.000 OA
BRANCH  24  26
ATOM     26  O   UNL     1      -0.302  11.129  22.881  0.00  0.00    +0.000 OA
ATOM     27  H   UNL     1       0.189  11.370  23.706  0.00  0.00    +0.000 HD
ENDBRANCH  24  26
ENDBRANCH   6  24
BRANCH   1  28
ATOM     28  S   UNL     1       1.613   9.836  18.229  0.00  0.00    +0.000 S 
BRANCH  28  29
ATOM     29  C   UNL     1       2.427   8.209  18.082  0.00  0.00    +0.000 C 
BRANCH  29  30
ATOM     30  C   UNL     1       2.233   7.481  19.415  0.00  0.00    +0.000 C 
BRANCH  30  32
ATOM     31  C   UNL     1       2.188   5.235  18.288  0.00  0.00    +0.000 C 
ATOM     32  C   UNL     1       2.814   6.066  19.399  0.00  0.00    +0.000 C 
ENDBRANCH  30  32
ENDBRANCH  29  30
ENDBRANCH  28  29
ENDBRANCH   1  28
TORSDOF 9
ENDMDL
MODEL 6
REMARK VINA RESULT:      -5.3      3.009      4.987
REMARK  Name = 
REMARK  11 active torsions:
REMARK  status: ('A' for Active; 'I' for Inactive)
REMARK    1  A    between atoms: C_1  and  C_2
REMARK    2  A    between atoms: C_2  and  C_3
REMARK    3  A    between atoms: C_3  and  C_4
REMARK    4  A    between atoms: C_4  and  S_5
REMARK    5  A    between atoms: S_5  and  C_6
REMARK    6  A    between atoms: C_8  and  C_9
REMARK    7  A    between atoms: N_16  and  S_17
REMARK    8  A    between atoms: S_17  and  C_20
REMARK    9  A    between atoms: C_25  and  C_26
REMARK   10  A    between atoms: C_28  and  C_29
REMARK   11  A    between atoms: C_29  and  O_31
REMARK                            x       y       z     vdW  Elec       q    Type
REMARK                         _______ _______ _______ _____ _____    ______ ____
ROOT
ATOM      1  C   UNL     1       0.517   9.489  19.986  0.00  0.00    +0.000 C 
ATOM      2  C   UNL     1      -0.884   9.841  19.465  0.00  0.00    +0.000 C 
ATOM      3  C   UNL     1      -1.032  11.330  19.061  0.00  0.00    +0.000 C 
ATOM      4  N   UNL     1      -0.603  12.266  20.191  0.00  0.00    +0.000 NA
ATOM      5  C   UNL     1       0.768  11.907  20.748  0.00  0.00    +0.000 C 
ATOM      6  C   UNL     1       0.892  10.432  21.126  0.00  0.00    +0.000 C 
ENDROOT
BRANCH   3   7
ATOM      7  C   UNL     1      -2.469  11.551  18.623  0.00  0.00    +0.000 A 
ATOM      8  C   UNL     1      -3.438  12.011  19.528  0.00  0.00    +0.000 A 
ATOM      9  C   UNL     1      -4.733  12.286  19.099  0.00  0.00    +0.000 A 
ATOM     10  C   UNL     1      -5.084  12.062  17.771  0.00  0.00    +0.000 A 
ATOM     11 CL   UNL     1      -6.681  12.414  17.243  0.00  0.00    +0.000 Cl
ATOM     12  C   UNL     1      -4.147  11.564  16.869  0.00  0.00    +0.000 A 
ATOM     13  C   UNL     1      -2.842  11.306  17.292  0.00  0.00    +0.000 A 
ENDBRANCH   3   7
BRANCH   4  14
ATOM     14  S   UNL     1      -0.521  13.965  19.612  0.00  0.00    +0.000 S 
ATOM     15  O   UNL     1      -0.550  13.918  18.163  0.00  0.00    +0.000 OA
ATOM     16  O   UNL     1      -1.526  14.704  20.331  0.00  0.00    +0.000 OA
BRANCH  14  17
ATOM     17  C   UNL     1       1.098  14.609  20.057  0.00  0.00    +0.000 A 
ATOM     18  C   UNL     1       1.125  15.508  21.141  0.00  0.00    +0.000 A 
ATOM     19  C   UNL     1       2.306  16.153  21.513  0.00  0.00    +0.000 A 
ATOM     20  C   UNL     1       3.482  15.886  20.827  0.00  0.00    +0.000 A 
ATOM     21  C   UNL     1       3.470  14.998  19.752  0.00  0.00    +0.000 A 
ATOM     22  C   UNL     1       2.279  14.380  19.314  0.00  0.00    +0.000 A 
ATOM     23  C   UNL     1       2.393  13.524  18.082  0.00  0.00    +0.000 C 
ENDBRANCH  14  17
ENDBRANCH   4  14
BRANCH   6  24
ATOM     24  C   UNL     1       0.122  10.120  22.396  0.00  0.00    +0.000 C 
ATOM     25  O   UNL     1      -0.055   8.982  22.800  0.00  0.00    +0.000 OA
BRANCH  24  26
ATOM     26  O   UNL     1      -0.394  11.190  23.039  0.00  0.00    +0.000 OA
ATOM     27  H   UNL     1      -0.013  12.054  22.743  0.00  0.00    +0.000 HD
ENDBRANCH  24  26
ENDBRANCH   6  24
BRANCH   1  28
ATOM     28  S   UNL     1       1.670   9.586  18.537  0.00  0.00    +0.000 S 
BRANCH  28  29
ATOM     29  C   UNL     1       2.245   7.862  18.356  0.00  0.00    +0.000 C 
BRANCH  29  30
ATOM     30  C   UNL     1       2.215   7.225  19.749  0.00  0.00    +0.000 C 
BRANCH  30  32
ATOM     31  C   UNL     1       2.067   4.933  20.768  0.00  0.00    +0.000 C 
ATOM     32  C   UNL     1       2.792   5.809  19.755  0.00  0.00    +0.000 C 
ENDBRANCH  30  32
ENDBRANCH  29  30
ENDBRANCH  28  29
ENDBRANCH   1  28
TORSDOF 9
ENDMDL
MODEL 7
REMARK VINA RESULT:      -5.3      3.122      7.525
REMARK  Name = 
REMARK  11 active torsions:
REMARK  status: ('A' for Active; 'I' for Inactive)
REMARK    1  A    between atoms: C_1  and  C_2
REMARK    2  A    between atoms: C_2  and  C_3
REMARK    3  A    between atoms: C_3  and  C_4
REMARK    4  A    between atoms: C_4  and  S_5
REMARK    5  A    between atoms: S_5  and  C_6
REMARK    6  A    between atoms: C_8  and  C_9
REMARK    7  A    between atoms: N_16  and  S_17
REMARK    8  A    between atoms: S_17  and  C_20
REMARK    9  A    between atoms: C_25  and  C_26
REMARK   10  A    between atoms: C_28  and  C_29
REMARK   11  A    between atoms: C_29  and  O_31
REMARK                            x       y       z     vdW  Elec       q    Type
REMARK                         _______ _______ _______ _____ _____    ______ ____
ROOT
ATOM      1  C   UNL     1       1.213  14.974  19.968  0.00  0.00    +0.000 C 
ATOM      2  C   UNL     1      -0.125  14.415  19.464  0.00  0.00    +0.000 C 
ATOM      3  C   UNL     1      -0.430  12.988  19.986  0.00  0.00    +0.000 C 
ATOM      4  N   UNL     1       0.723  12.025  19.700  0.00  0.00    +0.000 NA
ATOM      5  C   UNL     1       2.064  12.581  20.157  0.00  0.00    +0.000 C 
ATOM      6  C   UNL     1       2.334  13.992  19.639  0.00  0.00    +0.000 C 
ENDROOT
BRANCH   3   7
ATOM      7  C   UNL     1      -1.743  12.539  19.371  0.00  0.00    +0.000 A 
ATOM      8  C   UNL     1      -1.784  11.974  18.087  0.00  0.00    +0.000 A 
ATOM      9  C   UNL     1      -2.979  11.493  17.563  0.00  0.00    +0.000 A 
ATOM     10  C   UNL     1      -4.155  11.612  18.298  0.00  0.00    +0.000 A 
ATOM     11 CL   UNL     1      -5.627  11.007  17.652  0.00  0.00    +0.000 Cl
ATOM     12  C   UNL     1      -4.141  12.211  19.556  0.00  0.00    +0.000 A 
ATOM     13  C   UNL     1      -2.939  12.676  20.092  0.00  0.00    +0.000 A 
ENDBRANCH   3   7
BRANCH   4  14
ATOM     14  S   UNL     1       0.469  10.462  20.549  0.00  0.00    +0.000 S 
ATOM     15  O   UNL     1       1.088  10.585  21.854  0.00  0.00    +0.000 OA
ATOM     16  O   UNL     1      -0.931  10.146  20.440  0.00  0.00    +0.000 OA
BRANCH  14  17
ATOM     17  C   UNL     1       1.414   9.210  19.667  0.00  0.00    +0.000 A 
ATOM     18  C   UNL     1       1.818   9.553  18.362  0.00  0.00    +0.000 A 
ATOM     19  C   UNL     1       2.465   8.627  17.542  0.00  0.00    +0.000 A 
ATOM     20  C   UNL     1       2.746   7.357  18.025  0.00  0.00    +0.000 A 
ATOM     21  C   UNL     1       2.352   7.005  19.316  0.00  0.00    +0.000 A 
ATOM     22  C   UNL     1       1.640   7.899  20.144  0.00  0.00    +0.000 A 
ATOM     23  C   UNL     1       1.191   7.354  21.472  0.00  0.00    +0.000 C 
ENDBRANCH  14  17
ENDBRANCH   4  14
BRANCH   6  24
ATOM     24  C   UNL     1       2.665  13.985  18.158  0.00  0.00    +0.000 C 
ATOM     25  O   UNL     1       3.063  14.974  17.564  0.00  0.00    +0.000 OA
BRANCH  24  26
ATOM     26  O   UNL     1       2.453  12.812  17.523  0.00  0.00    +0.000 OA
ATOM     27  H   UNL     1       1.972  12.906  16.664  0.00  0.00    +0.000 HD
ENDBRANCH  24  26
ENDBRANCH   6  24
BRANCH   1  28
ATOM     28  S   UNL     1       1.015  15.290  21.784  0.00  0.00    +0.000 S 
BRANCH  28  29
ATOM     29  C   UNL     1      -0.034  16.783  21.828  0.00  0.00    +0.000 C 
BRANCH  29  30
ATOM     30  C   UNL     1      -1.168  16.514  22.822  0.00  0.00    +0.000 C 
BRANCH  30  32
ATOM     31  C   UNL     1      -2.938  16.178  21.071  0.00  0.00    +0.000 C 
ATOM     32  C   UNL     1      -2.221  15.557  22.262  0.00  0.00    +0.000 C 
ENDBRANCH  30  32
ENDBRANCH  29  30
ENDBRANCH  28  29
ENDBRANCH   1  28
TORSDOF 9
ENDMDL
MODEL 8
REMARK VINA RESULT:      -5.2      4.014      6.099
REMARK  Name = 
REMARK  11 active torsions:
REMARK  status: ('A' for Active; 'I' for Inactive)
REMARK    1  A    between atoms: C_1  and  C_2
REMARK    2  A    between atoms: C_2  and  C_3
REMARK    3  A    between atoms: C_3  and  C_4
REMARK    4  A    between atoms: C_4  and  S_5
REMARK    5  A    between atoms: S_5  and  C_6
REMARK    6  A    between atoms: C_8  and  C_9
REMARK    7  A    between atoms: N_16  and  S_17
REMARK    8  A    between atoms: S_17  and  C_20
REMARK    9  A    between atoms: C_25  and  C_26
REMARK   10  A    between atoms: C_28  and  C_29
REMARK   11  A    between atoms: C_29  and  O_31
REMARK                            x       y       z     vdW  Elec       q    Type
REMARK                         _______ _______ _______ _____ _____    ______ ____
ROOT
ATOM      1  C   UNL     1      -0.457  10.247  19.978  0.00  0.00    +0.000 C 
ATOM      2  C   UNL     1      -1.739  10.844  20.575  0.00  0.00    +0.000 C 
ATOM      3  C   UNL     1      -1.669  12.381  20.767  0.00  0.00    +0.000 C 
ATOM      4  N   UNL     1      -0.433  12.792  21.568  0.00  0.00    +0.000 NA
ATOM      5  C   UNL     1       0.844  12.176  21.014  0.00  0.00    +0.000 C 
ATOM      6  C   UNL     1       0.744  10.664  20.822  0.00  0.00    +0.000 C 
ENDROOT
BRANCH   3   7
ATOM      7  C   UNL     1      -2.968  12.828  21.412  0.00  0.00    +0.000 A 
ATOM      8  C   UNL     1      -3.295  12.445  22.722  0.00  0.00    +0.000 A 
ATOM      9  C   UNL     1      -4.449  12.924  23.332  0.00  0.00    +0.000 A 
ATOM     10  C   UNL     1      -5.312  13.756  22.625  0.00  0.00    +0.000 A 
ATOM     11 CL   UNL     1      -6.731  14.354  23.387  0.00  0.00    +0.000 Cl
ATOM     12  C   UNL     1      -5.026  14.111  21.308  0.00  0.00    +0.000 A 
ATOM     13  C   UNL     1      -3.859  13.648  20.700  0.00  0.00    +0.000 A 
ENDBRANCH   3   7
BRANCH   4  14
ATOM     14  S   UNL     1      -0.226  14.578  21.542  0.00  0.00    +0.000 S 
ATOM     15  O   UNL     1       1.143  14.849  21.935  0.00  0.00    +0.000 OA
ATOM     16  O   UNL     1      -0.718  15.040  20.271  0.00  0.00    +0.000 OA
BRANCH  14  17
ATOM     17  C   UNL     1      -1.262  15.259  22.845  0.00  0.00    +0.000 A 
ATOM     18  C   UNL     1      -1.159  14.632  24.102  0.00  0.00    +0.000 A 
ATOM     19  C   UNL     1      -1.987  15.004  25.162  0.00  0.00    +0.000 A 
ATOM     20  C   UNL     1      -2.908  16.027  24.991  0.00  0.00    +0.000 A 
ATOM     21  C   UNL     1      -3.020  16.657  23.751  0.00  0.00    +0.000 A 
ATOM     22  C   UNL     1      -2.240  16.259  22.644  0.00  0.00    +0.000 A 
ATOM     23  C   UNL     1      -2.535  16.957  21.344  0.00  0.00    +0.000 C 
ENDBRANCH  14  17
ENDBRANCH   4  14
BRANCH   6  24
ATOM     24  C   UNL     1       0.783   9.934  22.152  0.00  0.00    +0.000 C 
ATOM     25  O   UNL     1       1.368   8.874  22.308  0.00  0.00    +0.000 OA
BRANCH  24  26
ATOM     26  O   UNL     1       0.089  10.517  23.154  0.00  0.00    +0.000 OA
ATOM     27  H   UNL     1       0.056   9.977  23.981  0.00  0.00    +0.000 HD
ENDBRANCH  24  26
ENDBRANCH   6  24
BRANCH   1  28
ATOM     28  S   UNL     1      -0.361  10.826  18.219  0.00  0.00    +0.000 S 
BRANCH  28  29
ATOM     29  C   UNL     1      -1.859  10.102  17.468  0.00  0.00    +0.000 C 
BRANCH  29  30
ATOM     30  C   UNL     1      -2.791  11.261  17.104  0.00  0.00    +0.000 C 
BRANCH  30  32
ATOM     31  C   UNL     1      -2.927  10.161  14.849  0.00  0.00    +0.000 C 
ATOM     32  C   UNL     1      -3.693  10.935  15.913  0.00  0.00    +0.000 C 
ENDBRANCH  30  32
ENDBRANCH  29  30
ENDBRANCH  28  29
ENDBRANCH   1  28
TORSDOF 9
ENDMDL
MODEL 9
REMARK VINA RESULT:      -5.2      3.162      5.227
REMARK  Name = 
REMARK  11 active torsions:
REMARK  status: ('A' for Active; 'I' for Inactive)
REMARK    1  A    between atoms: C_1  and  C_2
REMARK    2  A    between atoms: C_2  and  C_3
REMARK    3  A    between atoms: C_3  and  C_4
REMARK    4  A    between atoms: C_4  and  S_5
REMARK    5  A    between atoms: S_5  and  C_6
REMARK    6  A    between atoms: C_8  and  C_9
REMARK    7  A    between atoms: N_16  and  S_17
REMARK    8  A    between atoms: S_17  and  C_20
REMARK    9  A    between atoms: C_25  and  C_26
REMARK   10  A    between atoms: C_28  and  C_29
REMARK   11  A    between atoms: C_29  and  O_31
REMARK                            x       y       z     vdW  Elec       q    Type
REMARK                         _______ _______ _______ _____ _____    ______ ____
ROOT
ATOM      1  C   UNL     1       0.283   9.470  20.345  0.00  0.00    +0.000 C 
ATOM      2  C   UNL     1      -1.084   9.878  19.777  0.00  0.00    +0.000 C 
ATOM      3  C   UNL     1      -1.111  11.326  19.225  0.00  0.00    +0.000 C 
ATOM      4  N   UNL     1      -0.611  12.334  20.261  0.00  0.00    +0.000 NA
ATOM      5  C   UNL     1       0.725  11.925  20.866  0.00  0.00    +0.000 C 
ATOM      6  C   UNL     1       0.729  10.490  21.390  0.00  0.00    +0.000 C 
ENDROOT
BRANCH   3   7
ATOM      7  C   UNL     1      -2.524  11.616  18.752  0.00  0.00    +0.000 A 
ATOM      8  C   UNL     1      -2.912  11.352  17.430  0.00  0.00    +0.000 A 
ATOM      9  C   UNL     1      -4.229  11.547  17.026  0.00  0.00    +0.000 A 
ATOM     10  C   UNL     1      -5.162  12.050  17.927  0.00  0.00    +0.000 A 
ATOM     11 CL   UNL     1      -6.790  12.279  17.428  0.00  0.00    +0.000 Cl
ATOM     12  C   UNL     1      -4.784  12.361  19.232  0.00  0.00    +0.000 A 
ATOM     13  C   UNL     1      -3.468  12.147  19.645  0.00  0.00    +0.000 A 
ENDBRANCH   3   7
BRANCH   4  14
ATOM     14  S   UNL     1      -0.392  13.954  19.516  0.00  0.00    +0.000 S 
ATOM     15  O   UNL     1      -0.432  13.767  18.079  0.00  0.00    +0.000 OA
ATOM     16  O   UNL     1      -1.328  14.842  20.156  0.00  0.00    +0.000 OA
BRANCH  14  17
ATOM     17  C   UNL     1       1.278  14.502  19.899  0.00  0.00    +0.000 A 
ATOM     18  C   UNL     1       1.384  15.511  20.876  0.00  0.00    +0.000 A 
ATOM     19  C   UNL     1       2.617  16.090  21.183  0.00  0.00    +0.000 A 
ATOM     20  C   UNL     1       3.764  15.647  20.541  0.00  0.00    +0.000 A 
ATOM     21  C   UNL     1       3.674  14.648  19.572  0.00  0.00    +0.000 A 
ATOM     22  C   UNL     1       2.433  14.089  19.197  0.00  0.00    +0.000 A 
ATOM     23  C   UNL     1       2.471  13.094  18.070  0.00  0.00    +0.000 C 
ENDBRANCH  14  17
ENDBRANCH   4  14
BRANCH   6  24
ATOM     24  C   UNL     1      -0.067  10.368  22.676  0.00  0.00    +0.000 C 
ATOM     25  O   UNL     1      -0.219   9.309  23.263  0.00  0.00    +0.000 OA
BRANCH  24  26
ATOM     26  O   UNL     1      -0.636  11.512  23.116  0.00  0.00    +0.000 OA
ATOM     27  H   UNL     1      -1.486  11.372  23.602  0.00  0.00    +0.000 HD
ENDBRANCH  24  26
ENDBRANCH   6  24
BRANCH   1  28
ATOM     28  S   UNL     1       1.444   9.329  18.907  0.00  0.00    +0.000 S 
BRANCH  28  29
ATOM     29  C   UNL     1       2.248   7.714  19.187  0.00  0.00    +0.000 C 
BRANCH  29  30
ATOM     30  C   UNL     1       2.660   7.168  17.816  0.00  0.00    +0.000 C 
BRANCH  30  32
ATOM     31  C   UNL     1       3.920   5.040  17.370  0.00  0.00    +0.000 C 
ATOM     32  C   UNL     1       4.026   6.482  17.847  0.00  0.00    +0.000 C 
ENDBRANCH  30  32
ENDBRANCH  29  30
ENDBRANCH  28  29
ENDBRANCH   1  28
TORSDOF 9
ENDMDL
