MODEL 1
REMARK VINA RESULT:      -6.0      0.000      0.000
REMARK  Name = 
REMARK  3 active torsions:
REMARK  status: ('A' for Active; 'I' for Inactive)
REMARK    1  A    between atoms: C_1  and  C_2
REMARK    2  A    between atoms: C_8  and  O_9
REMARK    3  A    between atoms: C_13  and  C_14
REMARK                            x       y       z     vdW  Elec       q    Type
REMARK                         _______ _______ _______ _____ _____    ______ ____
ROOT
ATOM      1  C   UNL     1      -2.839  10.419  15.109  0.00  0.00    +0.000 C 
ATOM      2  C   UNL     1      -3.192  10.974  16.457  0.00  0.00    +0.000 A 
ATOM      3  N   UNL     1      -2.196  11.386  17.259  0.00  0.00    +0.000 NA
ATOM      4  C   UNL     1      -2.470  11.891  18.492  0.00  0.00    +0.000 A 
ATOM      5  N   UNL     1      -1.415  12.305  19.303  0.00  0.00    +0.000 N 
ATOM      6  C   UNL     1      -0.216  12.772  18.613  0.00  0.00    +0.000 C 
ATOM      7  C   UNL     1       0.413  13.799  19.546  0.00  0.00    +0.000 C 
ATOM      8  C   UNL     1       0.638  13.253  20.963  0.00  0.00    +0.000 C 
ATOM      9  C   UNL     1      -0.304  12.145  21.467  0.00  0.00    +0.000 C 
ATOM     10  C   UNL     1      -1.081  11.383  20.387  0.00  0.00    +0.000 C 
ATOM     11  C   UNL     1      -3.833  12.010  18.874  0.00  0.00    +0.000 A 
ATOM     12  C   UNL     1      -4.551  12.500  20.051  0.00  0.00    +0.000 A 
ATOM     13  C   UNL     1      -5.912  12.257  19.968  0.00  0.00    +0.000 A 
ATOM     14  S   UNL     1      -6.365  11.571  18.483  0.00  0.00    +0.000 S 
ATOM     15  C   UNL     1      -4.746  11.509  17.958  0.00  0.00    +0.000 A 
ATOM     16  N   UNL     1      -4.490  11.001  16.750  0.00  0.00    +0.000 NA
ENDROOT
BRANCH  12  17
ATOM     17  C   UNL     1      -4.014  13.184  21.286  0.00  0.00    +0.000 A 
ATOM     18  C   UNL     1      -3.937  12.633  22.546  0.00  0.00    +0.000 A 
ATOM     19  C   UNL     1      -3.463  13.568  23.523  0.00  0.00    +0.000 A 
ATOM     20  C   UNL     1      -3.171  14.791  22.966  0.00  0.00    +0.000 A 
ATOM     21  S   UNL     1      -3.367  14.776  21.269  0.00  0.00    +0.000 S 
ENDBRANCH  12  17
BRANCH   8  22
ATOM     22  O   UNL     1       1.993  12.815  21.078  0.00  0.00    +0.000 OA
ATOM     23  H   UNL     1       1.991  11.906  21.422  0.00  0.00    +0.000 HD
ENDBRANCH   8  22
TORSDOF 2
ENDMDL
MODEL 2
REMARK VINA RESULT:      -5.8      2.383      4.164
REMARK  Name = 
REMARK  3 active torsions:
REMARK  status: ('A' for Active; 'I' for Inactive)
REMARK    1  A    between atoms: C_1  and  C_2
REMARK    2  A    between atoms: C_8  and  O_9
REMARK    3  A    between atoms: C_13  and  C_14
REMARK                            x       y       z     vdW  Elec       q    Type
REMARK                         _______ _______ _______ _____ _____    ______ ____
ROOT
ATOM      1  C   UNL     1      -7.548  12.939  18.546  0.00  0.00    +0.000 C 
ATOM      2  C   UNL     1      -6.106  12.528  18.539  0.00  0.00    +0.000 A 
ATOM      3  N   UNL     1      -5.366  12.774  19.634  0.00  0.00    +0.000 NA
ATOM      4  C   UNL     1      -4.053  12.423  19.669  0.00  0.00    +0.000 A 
ATOM      5  N   UNL     1      -3.310  12.697  20.816  0.00  0.00    +0.000 N 
ATOM      6  C   UNL     1      -4.053  12.731  22.072  0.00  0.00    +0.000 C 
ATOM      7  C   UNL     1      -3.059  12.297  23.142  0.00  0.00    +0.000 C 
ATOM      8  C   UNL     1      -1.764  13.122  23.119  0.00  0.00    +0.000 C 
ATOM      9  C   UNL     1      -1.322  13.731  21.777  0.00  0.00    +0.000 C 
ATOM     10  C   UNL     1      -2.407  13.842  20.699  0.00  0.00    +0.000 C 
ATOM     11  C   UNL     1      -3.512  11.751  18.540  0.00  0.00    +0.000 A 
ATOM     12  C   UNL     1      -2.208  11.196  18.177  0.00  0.00    +0.000 A 
ATOM     13  C   UNL     1      -2.177  10.758  16.864  0.00  0.00    +0.000 A 
ATOM     14  S   UNL     1      -3.686  10.882  16.096  0.00  0.00    +0.000 S 
ATOM     15  C   UNL     1      -4.385  11.600  17.473  0.00  0.00    +0.000 A 
ATOM     16  N   UNL     1      -5.674  11.950  17.421  0.00  0.00    +0.000 NA
ENDROOT
BRANCH  12  17
ATOM     17  C   UNL     1      -0.955  11.068  19.010  0.00  0.00    +0.000 A 
ATOM     18  C   UNL     1      -0.731  10.133  19.996  0.00  0.00    +0.000 A 
ATOM     19  C   UNL     1       0.521  10.332  20.664  0.00  0.00    +0.000 A 
ATOM     20  C   UNL     1       1.219  11.396  20.143  0.00  0.00    +0.000 A 
ATOM     21  S   UNL     1       0.419  12.080  18.798  0.00  0.00    +0.000 S 
ENDBRANCH  12  17
BRANCH   8  22
ATOM     22  O   UNL     1      -1.858  14.153  24.102  0.00  0.00    +0.000 OA
ATOM     23  H   UNL     1      -1.257  14.874  23.847  0.00  0.00    +0.000 HD
ENDBRANCH   8  22
TORSDOF 2
ENDMDL
MODEL 3
REMARK VINA RESULT:      -5.7      2.537      3.567
REMARK  Name = 
REMARK  3 active torsions:
REMARK  status: ('A' for Active; 'I' for Inactive)
REMARK    1  A    between atoms: C_1  and  C_2
REMARK    2  A    between atoms: C_8  and  O_9
REMARK    3  A    between atoms: C_13  and  C_14
REMARK                            x       y       z     vdW  Elec       q    Type
REMARK                         _______ _______ _______ _____ _____    ______ ____
ROOT
ATOM      1  C   UNL     1      -1.876  11.454  17.673  0.00  0.00    +0.000 C 
ATOM      2  C   UNL     1      -3.043  11.750  18.568  0.00  0.00    +0.000 A 
ATOM      3  N   UNL     1      -2.815  12.410  19.717  0.00  0.00    +0.000 NA
ATOM      4  C   UNL     1      -3.843  12.695  20.561  0.00  0.00    +0.000 A 
ATOM      5  N   UNL     1      -3.574  13.375  21.747  0.00  0.00    +0.000 N 
ATOM      6  C   UNL     1      -2.423  14.273  21.729  0.00  0.00    +0.000 C 
ATOM      7  C   UNL     1      -2.752  15.375  22.727  0.00  0.00    +0.000 C 
ATOM      8  C   UNL     1      -3.142  14.828  24.108  0.00  0.00    +0.000 C 
ATOM      9  C   UNL     1      -3.785  13.432  24.175  0.00  0.00    +0.000 C 
ATOM     10  C   UNL     1      -3.580  12.538  22.946  0.00  0.00    +0.000 C 
ATOM     11  C   UNL     1      -5.154  12.316  20.166  0.00  0.00    +0.000 A 
ATOM     12  C   UNL     1      -6.496  12.441  20.735  0.00  0.00    +0.000 A 
ATOM     13  C   UNL     1      -7.442  11.760  19.988  0.00  0.00    +0.000 A 
ATOM     14  S   UNL     1      -6.796  11.080  18.574  0.00  0.00    +0.000 S 
ATOM     15  C   UNL     1      -5.227  11.610  18.974  0.00  0.00    +0.000 A 
ATOM     16  N   UNL     1      -4.225  11.314  18.141  0.00  0.00    +0.000 NA
ENDROOT
BRANCH  12  17
ATOM     17  C   UNL     1      -6.945  13.167  21.981  0.00  0.00    +0.000 A 
ATOM     18  C   UNL     1      -6.868  14.525  22.197  0.00  0.00    +0.000 A 
ATOM     19  C   UNL     1      -7.293  14.893  23.516  0.00  0.00    +0.000 A 
ATOM     20  C   UNL     1      -7.707  13.804  24.246  0.00  0.00    +0.000 A 
ATOM     21  S   UNL     1      -7.678  12.371  23.317  0.00  0.00    +0.000 S 
ENDBRANCH  12  17
BRANCH   8  22
ATOM     22  O   UNL     1      -1.994  14.866  24.958  0.00  0.00    +0.000 OA
ATOM     23  H   UNL     1      -1.211  15.030  24.406  0.00  0.00    +0.000 HD
ENDBRANCH   8  22
TORSDOF 2
ENDMDL
MODEL 4
REMARK VINA RESULT:      -5.5      2.331      4.295
REMARK  Name = 
REMARK  3 active torsions:
REMARK  status: ('A' for Active; 'I' for Inactive)
REMARK    1  A    between atoms: C_1  and  C_2
REMARK    2  A    between atoms: C_8  and  O_9
REMARK    3  A    between atoms: C_13  and  C_14
REMARK                            x       y       z     vdW  Elec       q    Type
REMARK                         _______ _______ _______ _____ _____    ______ ____
ROOT
ATOM      1  C   UNL     1      -7.610  12.685  19.535  0.00  0.00    +0.000 C 
ATOM      2  C   UNL     1      -6.162  12.411  19.252  0.00  0.00    +0.000 A 
ATOM      3  N   UNL     1      -5.261  12.683  20.211  0.00  0.00    +0.000 NA
ATOM      4  C   UNL     1      -3.938  12.456  19.995  0.00  0.00    +0.000 A 
ATOM      5  N   UNL     1      -3.027  12.754  21.007  0.00  0.00    +0.000 N 
ATOM      6  C   UNL     1      -3.532  12.668  22.374  0.00  0.00    +0.000 C 
ATOM      7  C   UNL     1      -2.328  12.288  23.227  0.00  0.00    +0.000 C 
ATOM      8  C   UNL     1      -1.134  13.231  23.022  0.00  0.00    +0.000 C 
ATOM      9  C   UNL     1      -0.994  13.931  21.659  0.00  0.00    +0.000 C 
ATOM     10  C   UNL     1      -2.261  13.982  20.797  0.00  0.00    +0.000 C 
ATOM     11  C   UNL     1      -3.555  11.883  18.753  0.00  0.00    +0.000 A 
ATOM     12  C   UNL     1      -2.294  11.468  18.136  0.00  0.00    +0.000 A 
ATOM     13  C   UNL     1      -2.463  11.087  16.816  0.00  0.00    +0.000 A 
ATOM     14  S   UNL     1      -4.090  11.099  16.333  0.00  0.00    +0.000 S 
ATOM     15  C   UNL     1      -4.589  11.693  17.850  0.00  0.00    +0.000 A 
ATOM     16  N   UNL     1      -5.891  11.921  18.044  0.00  0.00    +0.000 NA
ENDROOT
BRANCH  12  17
ATOM     17  C   UNL     1      -0.905  11.426  18.727  0.00  0.00    +0.000 A 
ATOM     18  C   UNL     1       0.115  12.310  18.456  0.00  0.00    +0.000 A 
ATOM     19  C   UNL     1       1.340  11.947  19.107  0.00  0.00    +0.000 A 
ATOM     20  C   UNL     1       1.199  10.814  19.874  0.00  0.00    +0.000 A 
ATOM     21  S   UNL     1      -0.415  10.257  19.889  0.00  0.00    +0.000 S 
ENDBRANCH  12  17
BRANCH   8  22
ATOM     22  O   UNL     1      -1.137  14.209  24.062  0.00  0.00    +0.000 OA
ATOM     23  H   UNL     1      -0.482  14.893  23.840  0.00  0.00    +0.000 HD
ENDBRANCH   8  22
TORSDOF 2
ENDMDL
MODEL 5
REMARK VINA RESULT:      -5.5      1.171      1.341
REMARK  Name = 
REMARK  3 active torsions:
REMARK  status: ('A' for Active; 'I' for Inactive)
REMARK    1  A    between atoms: C_1  and  C_2
REMARK    2  A    between atoms: C_8  and  O_9
REMARK    3  A    between atoms: C_13  and  C_14
REMARK                            x       y       z     vdW  Elec       q    Type
REMARK                         _______ _______ _______ _____ _____    ______ ____
ROOT
ATOM      1  C   UNL     1      -3.545  10.764  15.970  0.00  0.00    +0.000 C 
ATOM      2  C   UNL     1      -3.795  11.302  17.348  0.00  0.00    +0.000 A 
ATOM      3  N   UNL     1      -2.747  11.758  18.055  0.00  0.00    +0.000 NA
ATOM      4  C   UNL     1      -2.926  12.250  19.310  0.00  0.00    +0.000 A 
ATOM      5  N   UNL     1      -1.819  12.709  20.021  0.00  0.00    +0.000 N 
ATOM      6  C   UNL     1      -0.712  13.230  19.224  0.00  0.00    +0.000 C 
ATOM      7  C   UNL     1      -0.043  14.282  20.099  0.00  0.00    +0.000 C 
ATOM      8  C   UNL     1       0.337  13.747  21.486  0.00  0.00    +0.000 C 
ATOM      9  C   UNL     1      -0.504  12.598  22.071  0.00  0.00    +0.000 C 
ATOM     10  C   UNL     1      -1.345  11.802  21.065  0.00  0.00    +0.000 C 
ATOM     11  C   UNL     1      -4.251  12.308  19.819  0.00  0.00    +0.000 A 
ATOM     12  C   UNL     1      -4.877  12.765  21.061  0.00  0.00    +0.000 A 
ATOM     13  C   UNL     1      -6.227  12.462  21.104  0.00  0.00    +0.000 A 
ATOM     14  S   UNL     1      -6.787  11.758  19.665  0.00  0.00    +0.000 S 
ATOM     15  C   UNL     1      -5.223  11.768  18.991  0.00  0.00    +0.000 A 
ATOM     16  N   UNL     1      -5.060  11.272  17.761  0.00  0.00    +0.000 NA
ENDROOT
BRANCH  12  17
ATOM     17  C   UNL     1      -4.257  13.472  22.243  0.00  0.00    +0.000 A 
ATOM     18  C   UNL     1      -3.770  14.759  22.250  0.00  0.00    +0.000 A 
ATOM     19  C   UNL     1      -3.163  15.107  23.502  0.00  0.00    +0.000 A 
ATOM     20  C   UNL     1      -3.236  14.078  24.412  0.00  0.00    +0.000 A 
ATOM     21  S   UNL     1      -4.116  12.750  23.797  0.00  0.00    +0.000 S 
ENDBRANCH  12  17
BRANCH   8  22
ATOM     22  O   UNL     1       1.714  13.369  21.472  0.00  0.00    +0.000 OA
ATOM     23  H   UNL     1       1.765  12.399  21.515  0.00  0.00    +0.000 HD
ENDBRANCH   8  22
TORSDOF 2
ENDMDL
MODEL 6
REMARK VINA RESULT:      -5.4      2.020      4.716
REMARK  Name = 
REMARK  3 active torsions:
REMARK  status: ('A' for Active; 'I' for Inactive)
REMARK    1  A    between atoms: C_1  and  C_2
REMARK    2  A    between atoms: C_8  and  O_9
REMARK    3  A    between atoms: C_13  and  C_14
REMARK                            x       y       z     vdW  Elec       q    Type
REMARK                         _______ _______ _______ _____ _____    ______ ____
ROOT
ATOM      1  C   UNL     1      -5.026  13.622  23.837  0.00  0.00    +0.000 C 
ATOM      2  C   UNL     1      -4.920  13.063  22.450  0.00  0.00    +0.000 A 
ATOM      3  N   UNL     1      -3.695  12.831  21.946  0.00  0.00    +0.000 NA
ATOM      4  C   UNL     1      -3.552  12.330  20.690  0.00  0.00    +0.000 A 
ATOM      5  N   UNL     1      -2.270  12.106  20.194  0.00  0.00    +0.000 N 
ATOM      6  C   UNL     1      -1.239  11.804  21.183  0.00  0.00    +0.000 C 
ATOM      7  C   UNL     1      -0.234  10.914  20.461  0.00  0.00    +0.000 C 
ATOM      8  C   UNL     1       0.271  11.531  19.150  0.00  0.00    +0.000 C 
ATOM      9  C   UNL     1      -0.664  12.499  18.402  0.00  0.00    +0.000 C 
ATOM     10  C   UNL     1      -1.807  13.102  19.228  0.00  0.00    +0.000 C 
ATOM     11  C   UNL     1      -4.730  12.019  19.959  0.00  0.00    +0.000 A 
ATOM     12  C   UNL     1      -5.027  11.463  18.638  0.00  0.00    +0.000 A 
ATOM     13  C   UNL     1      -6.381  11.495  18.354  0.00  0.00    +0.000 A 
ATOM     14  S   UNL     1      -7.312  12.057  19.657  0.00  0.00    +0.000 S 
ATOM     15  C   UNL     1      -5.919  12.347  20.594  0.00  0.00    +0.000 A 
ATOM     16  N   UNL     1      -6.073  12.849  21.822  0.00  0.00    +0.000 NA
ENDROOT
BRANCH  12  17
ATOM     17  C   UNL     1      -4.083  10.907  17.598  0.00  0.00    +0.000 A 
ATOM     18  C   UNL     1      -3.157   9.908  17.798  0.00  0.00    +0.000 A 
ATOM     19  C   UNL     1      -2.351   9.669  16.637  0.00  0.00    +0.000 A 
ATOM     20  C   UNL     1      -2.713  10.477  15.584  0.00  0.00    +0.000 A 
ATOM     21  S   UNL     1      -4.074  11.437  15.962  0.00  0.00    +0.000 S 
ENDBRANCH  12  17
BRANCH   8  22
ATOM     22  O   UNL     1       1.523  12.172  19.395  0.00  0.00    +0.000 OA
ATOM     23  H   UNL     1       1.347  13.076  19.708  0.00  0.00    +0.000 HD
ENDBRANCH   8  22
TORSDOF 2
ENDMDL
MODEL 7
REMARK VINA RESULT:      -5.3      2.975      4.564
REMARK  Name = 
REMARK  3 active torsions:
REMARK  status: ('A' for Active; 'I' for Inactive)
REMARK    1  A    between atoms: C_1  and  C_2
REMARK    2  A    between atoms: C_8  and  O_9
REMARK    3  A    between atoms: C_13  and  C_14
REMARK                            x       y       z     vdW  Elec       q    Type
REMARK                         _______ _______ _______ _____ _____    ______ ____
ROOT
ATOM      1  C   UNL     1      -2.586  10.396  16.299  0.00  0.00    +0.000 C 
ATOM      2  C   UNL     1      -2.399  10.978  17.669  0.00  0.00    +0.000 A 
ATOM      3  N   UNL     1      -3.474  11.478  18.302  0.00  0.00    +0.000 NA
ATOM      4  C   UNL     1      -3.350  12.020  19.543  0.00  0.00    +0.000 A 
ATOM      5  N   UNL     1      -4.481  12.535  20.172  0.00  0.00    +0.000 N 
ATOM      6  C   UNL     1      -5.756  11.925  19.806  0.00  0.00    +0.000 C 
ATOM      7  C   UNL     1      -6.640  12.062  21.040  0.00  0.00    +0.000 C 
ATOM      8  C   UNL     1      -6.723  13.506  21.553  0.00  0.00    +0.000 C 
ATOM      9  C   UNL     1      -5.526  14.436  21.285  0.00  0.00    +0.000 C 
ATOM     10  C   UNL     1      -4.569  13.995  20.171  0.00  0.00    +0.000 C 
ATOM     11  C   UNL     1      -2.068  11.995  20.156  0.00  0.00    +0.000 A 
ATOM     12  C   UNL     1      -1.511  12.429  21.437  0.00  0.00    +0.000 A 
ATOM     13  C   UNL     1      -0.134  12.292  21.478  0.00  0.00    +0.000 A 
ATOM     14  S   UNL     1       0.493  11.555  20.084  0.00  0.00    +0.000 S 
ATOM     15  C   UNL     1      -1.050  11.482  19.366  0.00  0.00    +0.000 A 
ATOM     16  N   UNL     1      -1.156  10.957  18.142  0.00  0.00    +0.000 NA
ENDROOT
BRANCH  12  17
ATOM     17  C   UNL     1      -2.217  12.996  22.646  0.00  0.00    +0.000 A 
ATOM     18  C   UNL     1      -3.165  12.349  23.406  0.00  0.00    +0.000 A 
ATOM     19  C   UNL     1      -3.711  13.188  24.432  0.00  0.00    +0.000 A 
ATOM     20  C   UNL     1      -3.136  14.438  24.433  0.00  0.00    +0.000 A 
ATOM     21  S   UNL     1      -1.883  14.560  23.279  0.00  0.00    +0.000 S 
ENDBRANCH  12  17
BRANCH   8  22
ATOM     22  O   UNL     1      -7.916  14.106  21.047  0.00  0.00    +0.000 OA
ATOM     23  H   UNL     1      -8.055  13.789  20.139  0.00  0.00    +0.000 HD
ENDBRANCH   8  22
TORSDOF 2
ENDMDL
MODEL 8
REMARK VINA RESULT:      -5.3      2.422      3.980
REMARK  Name = 
REMARK  3 active torsions:
REMARK  status: ('A' for Active; 'I' for Inactive)
REMARK    1  A    between atoms: C_1  and  C_2
REMARK    2  A    between atoms: C_8  and  O_9
REMARK    3  A    between atoms: C_13  and  C_14
REMARK                            x       y       z     vdW  Elec       q    Type
REMARK                         _______ _______ _______ _____ _____    ______ ____
ROOT
ATOM      1  C   UNL     1       0.932  11.805  19.411  0.00  0.00    +0.000 C 
ATOM      2  C   UNL     1      -0.551  11.978  19.555  0.00  0.00    +0.000 A 
ATOM      3  N   UNL     1      -1.022  12.549  20.678  0.00  0.00    +0.000 NA
ATOM      4  C   UNL     1      -2.360  12.721  20.852  0.00  0.00    +0.000 A 
ATOM      5  N   UNL     1      -2.817  13.310  22.029  0.00  0.00    +0.000 N 
ATOM      6  C   UNL     1      -1.906  14.251  22.676  0.00  0.00    +0.000 C 
ATOM      7  C   UNL     1      -2.802  15.252  23.395  0.00  0.00    +0.000 C 
ATOM      8  C   UNL     1      -3.821  14.577  24.323  0.00  0.00    +0.000 C 
ATOM      9  C   UNL     1      -4.290  13.155  23.966  0.00  0.00    +0.000 C 
ATOM     10  C   UNL     1      -3.393  12.376  22.996  0.00  0.00    +0.000 C 
ATOM     11  C   UNL     1      -3.225  12.324  19.798  0.00  0.00    +0.000 A 
ATOM     12  C   UNL     1      -4.670  12.347  19.565  0.00  0.00    +0.000 A 
ATOM     13  C   UNL     1      -5.017  11.694  18.395  0.00  0.00    +0.000 A 
ATOM     14  S   UNL     1      -3.667  11.161  17.516  0.00  0.00    +0.000 S 
ATOM     15  C   UNL     1      -2.599  11.717  18.720  0.00  0.00    +0.000 A 
ATOM     16  N   UNL     1      -1.288  11.533  18.540  0.00  0.00    +0.000 NA
ENDROOT
BRANCH  12  17
ATOM     17  C   UNL     1      -5.768  12.948  20.410  0.00  0.00    +0.000 A 
ATOM     18  C   UNL     1      -6.759  12.250  21.063  0.00  0.00    +0.000 A 
ATOM     19  C   UNL     1      -7.703  13.115  21.707  0.00  0.00    +0.000 A 
ATOM     20  C   UNL     1      -7.380  14.442  21.544  0.00  0.00    +0.000 A 
ATOM     21  S   UNL     1      -5.901  14.636  20.713  0.00  0.00    +0.000 S 
ENDBRANCH  12  17
BRANCH   8  22
ATOM     22  O   UNL     1      -3.308  14.589  25.656  0.00  0.00    +0.000 OA
ATOM     23  H   UNL     1      -2.584  13.942  25.710  0.00  0.00    +0.000 HD
ENDBRANCH   8  22
TORSDOF 2
ENDMDL
MODEL 9
REMARK VINA RESULT:      -5.3     11.981     13.366
REMARK  Name = 
REMARK  3 active torsions:
REMARK  status: ('A' for Active; 'I' for Inactive)
REMARK    1  A    between atoms: C_1  and  C_2
REMARK    2  A    between atoms: C_8  and  O_9
REMARK    3  A    between atoms: C_13  and  C_14
REMARK                            x       y       z     vdW  Elec       q    Type
REMARK                         _______ _______ _______ _____ _____    ______ ____
ROOT
ATOM      1  C   UNL     1       7.824  11.745  24.311  0.00  0.00    +0.000 C 
ATOM      2  C   UNL     1       8.229  12.835  23.365  0.00  0.00    +0.000 A 
ATOM      3  N   UNL     1       8.863  12.493  22.230  0.00  0.00    +0.000 NA
ATOM      4  C   UNL     1       9.253  13.450  21.346  0.00  0.00    +0.000 A 
ATOM      5  N   UNL     1       9.914  13.065  20.181  0.00  0.00    +0.000 N 
ATOM      6  C   UNL     1       9.596  11.735  19.669  0.00  0.00    +0.000 C 
ATOM      7  C   UNL     1       9.783  11.827  18.160  0.00  0.00    +0.000 C 
ATOM      8  C   UNL     1      11.162  12.374  17.764  0.00  0.00    +0.000 C 
ATOM      9  C   UNL     1      11.867  13.328  18.745  0.00  0.00    +0.000 C 
ATOM     10  C   UNL     1      11.357  13.301  20.191  0.00  0.00    +0.000 C 
ATOM     11  C   UNL     1       8.926  14.801  21.639  0.00  0.00    +0.000 A 
ATOM     12  C   UNL     1       9.124  16.093  20.981  0.00  0.00    +0.000 A 
ATOM     13  C   UNL     1       8.724  17.150  21.780  0.00  0.00    +0.000 A 
ATOM     14  S   UNL     1       8.014  16.639  23.235  0.00  0.00    +0.000 S 
ATOM     15  C   UNL     1       8.304  15.003  22.862  0.00  0.00    +0.000 A 
ATOM     16  N   UNL     1       7.926  14.074  23.745  0.00  0.00    +0.000 NA
ENDROOT
BRANCH  12  17
ATOM     17  C   UNL     1       9.700  16.397  19.618  0.00  0.00    +0.000 A 
ATOM     18  C   UNL     1      10.902  17.021  19.369  0.00  0.00    +0.000 A 
ATOM     19  C   UNL     1      11.122  17.244  17.970  0.00  0.00    +0.000 A 
ATOM     20  C   UNL     1      10.091  16.754  17.202  0.00  0.00    +0.000 A 
ATOM     21  S   UNL     1       8.924  15.946  18.151  0.00  0.00    +0.000 S 
ENDBRANCH  12  17
BRANCH   8  22
ATOM     22  O   UNL     1      12.024  11.275  17.466  0.00  0.00    +0.000 OA
ATOM     23  H   UNL     1      11.475  10.525  17.181  0.00  0.00    +0.000 HD
ENDBRANCH   8  22
TORSDOF 2
ENDMDL
