MODEL 1
REMARK VINA RESULT:      -9.5      0.000      0.000
REMARK  Name = 
REMARK  6 active torsions:
REMARK  status: ('A' for Active; 'I' for Inactive)
REMARK    1  A    between atoms: C_1  and  O_2
REMARK    2  A    between atoms: O_2  and  C_3
REMARK    3  A    between atoms: C_6  and  C_7
REMARK    4  A    between atoms: C_7  and  N_8
REMARK    5  A    between atoms: N_16  and  S_17
REMARK    6  A    between atoms: S_17  and  C_20
REMARK                            x       y       z     vdW  Elec       q    Type
REMARK                         _______ _______ _______ _____ _____    ______ ____
ROOT
ATOM      1  N   UNL     1       3.060   4.701  20.264  0.00  0.00    +0.000 NA
ATOM      2  C   UNL     1       1.684   4.478  20.276  0.00  0.00    +0.000 C 
ATOM      3  C   UNL     1       1.609   4.082  18.800  0.00  0.00    +0.000 C 
ATOM      4  C   UNL     1       0.738   2.855  18.761  0.00  0.00    +0.000 C 
ATOM      5  C   UNL     1       1.627   1.671  18.688  0.00  0.00    +0.000 C 
ATOM      6  C   UNL     1       3.110   2.014  19.022  0.00  0.00    +0.000 C 
ATOM      7  C   UNL     1       3.593   3.196  20.126  0.00  0.00    +0.000 C 
ATOM      8  C   UNL     1       3.635   2.518  17.723  0.00  0.00    +0.000 C 
ATOM      9  N   UNL     1       3.202   3.913  17.779  0.00  0.00    +0.000 NA
ENDROOT
BRANCH   9  10
ATOM     10  S   UNL     1       4.868   4.925  17.318  0.00  0.00    +0.000 S 
ATOM     11  O   UNL     1       5.653   4.010  16.494  0.00  0.00    +0.000 OA
ATOM     12  O   UNL     1       4.354   6.135  16.706  0.00  0.00    +0.000 OA
BRANCH  10  13
ATOM     13  C   UNL     1       6.257   5.618  18.588  0.00  0.00    +0.000 C 
ATOM     14  C   UNL     1       7.704   5.128  18.333  0.00  0.00    +0.000 C 
ATOM     15  C   UNL     1       7.336   6.520  17.981  0.00  0.00    +0.000 C 
ENDBRANCH  10  13
ENDBRANCH   9  10
BRANCH   1  16
ATOM     16  C   UNL     1       3.063   5.986  19.300  0.00  0.00    +0.000 C 
BRANCH  16  20
ATOM     17  C   UNL     1       0.778  10.098  19.001  0.00  0.00    +0.000 A 
ATOM     18  C   UNL     1       0.865   9.528  20.222  0.00  0.00    +0.000 A 
ATOM     19  C   UNL     1       1.520   8.283  20.298  0.00  0.00    +0.000 A 
ATOM     20  C   UNL     1       2.289   7.566  19.273  0.00  0.00    +0.000 A 
ATOM     21  C   UNL     1       2.234   8.270  18.085  0.00  0.00    +0.000 A 
ATOM     22  C   UNL     1       1.424   9.456  17.934  0.00  0.00    +0.000 A 
BRANCH  17  24
ATOM     23  C   UNL     1      -1.360  11.049  19.092  0.00  0.00    +0.000 C 
ATOM     24  O   UNL     1       0.022  11.214  18.756  0.00  0.00    +0.000 OA
ENDBRANCH  17  24
ENDBRANCH  16  20
ENDBRANCH   1  16
TORSDOF 5
ENDMDL
MODEL 2
REMARK VINA RESULT:      -9.3      1.591      2.030
REMARK  Name = 
REMARK  6 active torsions:
REMARK  status: ('A' for Active; 'I' for Inactive)
REMARK    1  A    between atoms: C_1  and  O_2
REMARK    2  A    between atoms: O_2  and  C_3
REMARK    3  A    between atoms: C_6  and  C_7
REMARK    4  A    between atoms: C_7  and  N_8
REMARK    5  A    between atoms: N_16  and  S_17
REMARK    6  A    between atoms: S_17  and  C_20
REMARK                            x       y       z     vdW  Elec       q    Type
REMARK                         _______ _______ _______ _____ _____    ______ ____
ROOT
ATOM      1  N   UNL     1       2.842   4.860  20.391  0.00  0.00    +0.000 NA
ATOM      2  C   UNL     1       1.531   4.388  20.363  0.00  0.00    +0.000 C 
ATOM      3  C   UNL     1       1.502   4.188  18.846  0.00  0.00    +0.000 C 
ATOM      4  C   UNL     1       0.870   2.839  18.634  0.00  0.00    +0.000 C 
ATOM      5  C   UNL     1       1.959   1.859  18.406  0.00  0.00    +0.000 C 
ATOM      6  C   UNL     1       3.361   2.421  18.793  0.00  0.00    +0.000 C 
ATOM      7  C   UNL     1       3.640   3.511  20.052  0.00  0.00    +0.000 C 
ATOM      8  C   UNL     1       3.760   3.185  17.578  0.00  0.00    +0.000 C 
ATOM      9  N   UNL     1       3.079   4.456  17.822  0.00  0.00    +0.000 NA
ENDROOT
BRANCH   9  10
ATOM     10  S   UNL     1       4.522   5.810  17.514  0.00  0.00    +0.000 S 
ATOM     11  O   UNL     1       3.820   7.065  17.262  0.00  0.00    +0.000 OA
ATOM     12  O   UNL     1       5.330   5.701  18.714  0.00  0.00    +0.000 OA
BRANCH  10  13
ATOM     13  C   UNL     1       5.892   5.812  16.049  0.00  0.00    +0.000 C 
ATOM     14  C   UNL     1       6.706   4.504  15.889  0.00  0.00    +0.000 C 
ATOM     15  C   UNL     1       5.652   4.829  14.899  0.00  0.00    +0.000 C 
ENDBRANCH  10  13
ENDBRANCH   9  10
BRANCH   1  16
ATOM     16  C   UNL     1       2.591   6.242  19.612  0.00  0.00    +0.000 C 
BRANCH  16  20
ATOM     17  C   UNL     1       0.675  10.405  20.714  0.00  0.00    +0.000 A 
ATOM     18  C   UNL     1       0.932  10.170  19.409  0.00  0.00    +0.000 A 
ATOM     19  C   UNL     1       1.535   8.938  19.091  0.00  0.00    +0.000 A 
ATOM     20  C   UNL     1       1.783   7.769  19.945  0.00  0.00    +0.000 A 
ATOM     21  C   UNL     1       1.396   8.059  21.240  0.00  0.00    +0.000 A 
ATOM     22  C   UNL     1       0.940   9.374  21.627  0.00  0.00    +0.000 A 
BRANCH  17  24
ATOM     23  C   UNL     1      -0.654  11.528  22.281  0.00  0.00    +0.000 C 
ATOM     24  O   UNL     1       0.254  11.624  21.179  0.00  0.00    +0.000 OA
ENDBRANCH  17  24
ENDBRANCH  16  20
ENDBRANCH   1  16
TORSDOF 5
ENDMDL
MODEL 3
REMARK VINA RESULT:      -9.3      1.477      1.632
REMARK  Name = 
REMARK  6 active torsions:
REMARK  status: ('A' for Active; 'I' for Inactive)
REMARK    1  A    between atoms: C_1  and  O_2
REMARK    2  A    between atoms: O_2  and  C_3
REMARK    3  A    between atoms: C_6  and  C_7
REMARK    4  A    between atoms: C_7  and  N_8
REMARK    5  A    between atoms: N_16  and  S_17
REMARK    6  A    between atoms: S_17  and  C_20
REMARK                            x       y       z     vdW  Elec       q    Type
REMARK                         _______ _______ _______ _____ _____    ______ ____
ROOT
ATOM      1  N   UNL     1       3.174   4.967  20.099  0.00  0.00    +0.000 NA
ATOM      2  C   UNL     1       1.838   4.571  20.157  0.00  0.00    +0.000 C 
ATOM      3  C   UNL     1       1.731   4.270  18.661  0.00  0.00    +0.000 C 
ATOM      4  C   UNL     1       1.017   2.949  18.570  0.00  0.00    +0.000 C 
ATOM      5  C   UNL     1       2.039   1.894  18.369  0.00  0.00    +0.000 C 
ATOM      6  C   UNL     1       3.485   2.398  18.659  0.00  0.00    +0.000 C 
ATOM      7  C   UNL     1       3.879   3.553  19.825  0.00  0.00    +0.000 C 
ATOM      8  C   UNL     1       3.872   3.052  17.378  0.00  0.00    +0.000 C 
ATOM      9  N   UNL     1       3.275   4.374  17.558  0.00  0.00    +0.000 NA
ENDROOT
BRANCH   9  10
ATOM     10  S   UNL     1       4.777   5.617  17.098  0.00  0.00    +0.000 S 
ATOM     11  O   UNL     1       4.139   6.904  16.835  0.00  0.00    +0.000 OA
ATOM     12  O   UNL     1       5.654   5.504  18.247  0.00  0.00    +0.000 OA
BRANCH  10  13
ATOM     13  C   UNL     1       6.043   5.469  15.549  0.00  0.00    +0.000 C 
ATOM     14  C   UNL     1       6.732   4.093  15.374  0.00  0.00    +0.000 C 
ATOM     15  C   UNL     1       5.646   4.486  14.445  0.00  0.00    +0.000 C 
ENDBRANCH  10  13
ENDBRANCH   9  10
BRANCH   1  16
ATOM     16  C   UNL     1       2.966   6.304  19.235  0.00  0.00    +0.000 C 
BRANCH  16  20
ATOM     17  C   UNL     1       0.383  10.239  19.488  0.00  0.00    +0.000 A 
ATOM     18  C   UNL     1       0.616   9.578  20.642  0.00  0.00    +0.000 A 
ATOM     19  C   UNL     1       1.360   8.385  20.555  0.00  0.00    +0.000 A 
ATOM     20  C   UNL     1       2.085   7.817  19.411  0.00  0.00    +0.000 A 
ATOM     21  C   UNL     1       1.878   8.610  18.299  0.00  0.00    +0.000 A 
ATOM     22  C   UNL     1       0.977   9.739  18.319  0.00  0.00    +0.000 A 
BRANCH  17  24
ATOM     23  C   UNL     1      -0.516  12.091  20.604  0.00  0.00    +0.000 C 
ATOM     24  O   UNL     1      -0.467  11.310  19.405  0.00  0.00    +0.000 OA
ENDBRANCH  17  24
ENDBRANCH  16  20
ENDBRANCH   1  16
TORSDOF 5
ENDMDL
MODEL 4
REMARK VINA RESULT:      -9.3      0.540      1.157
REMARK  Name = 
REMARK  6 active torsions:
REMARK  status: ('A' for Active; 'I' for Inactive)
REMARK    1  A    between atoms: C_1  and  O_2
REMARK    2  A    between atoms: O_2  and  C_3
REMARK    3  A    between atoms: C_6  and  C_7
REMARK    4  A    between atoms: C_7  and  N_8
REMARK    5  A    between atoms: N_16  and  S_17
REMARK    6  A    between atoms: S_17  and  C_20
REMARK                            x       y       z     vdW  Elec       q    Type
REMARK                         _______ _______ _______ _____ _____    ______ ____
ROOT
ATOM      1  N   UNL     1       3.090   4.708  20.256  0.00  0.00    +0.000 NA
ATOM      2  C   UNL     1       1.711   4.502  20.261  0.00  0.00    +0.000 C 
ATOM      3  C   UNL     1       1.638   4.106  18.784  0.00  0.00    +0.000 C 
ATOM      4  C   UNL     1       0.752   2.891  18.742  0.00  0.00    +0.000 C 
ATOM      5  C   UNL     1       1.626   1.695  18.674  0.00  0.00    +0.000 C 
ATOM      6  C   UNL     1       3.112   2.019  19.015  0.00  0.00    +0.000 C 
ATOM      7  C   UNL     1       3.604   3.196  20.121  0.00  0.00    +0.000 C 
ATOM      8  C   UNL     1       3.649   2.516  17.718  0.00  0.00    +0.000 C 
ATOM      9  N   UNL     1       3.233   3.917  17.771  0.00  0.00    +0.000 NA
ENDROOT
BRANCH   9  10
ATOM     10  S   UNL     1       4.915   4.907  17.318  0.00  0.00    +0.000 S 
ATOM     11  O   UNL     1       5.691   3.983  16.495  0.00  0.00    +0.000 OA
ATOM     12  O   UNL     1       4.420   6.125  16.707  0.00  0.00    +0.000 OA
BRANCH  10  13
ATOM     13  C   UNL     1       6.309   5.579  18.595  0.00  0.00    +0.000 C 
ATOM     14  C   UNL     1       7.759   5.116  18.309  0.00  0.00    +0.000 C 
ATOM     15  C   UNL     1       7.369   6.513  18.005  0.00  0.00    +0.000 C 
ENDBRANCH  10  13
ENDBRANCH   9  10
BRANCH   1  16
ATOM     16  C   UNL     1       3.113   5.992  19.292  0.00  0.00    +0.000 C 
BRANCH  16  20
ATOM     17  C   UNL     1       0.956  10.181  19.159  0.00  0.00    +0.000 A 
ATOM     18  C   UNL     1       1.424   9.690  17.991  0.00  0.00    +0.000 A 
ATOM     19  C   UNL     1       2.096   8.454  18.044  0.00  0.00    +0.000 A 
ATOM     20  C   UNL     1       2.230   7.508  19.159  0.00  0.00    +0.000 A 
ATOM     21  C   UNL     1       1.635   8.043  20.286  0.00  0.00    +0.000 A 
ATOM     22  C   UNL     1       1.095   9.382  20.304  0.00  0.00    +0.000 A 
BRANCH  17  24
ATOM     23  C   UNL     1       1.424  12.475  19.137  0.00  0.00    +0.000 C 
ATOM     24  O   UNL     1       0.441  11.445  19.279  0.00  0.00    +0.000 OA
ENDBRANCH  17  24
ENDBRANCH  16  20
ENDBRANCH   1  16
TORSDOF 5
ENDMDL
MODEL 5
REMARK VINA RESULT:      -9.2      1.096      1.218
REMARK  Name = 
REMARK  6 active torsions:
REMARK  status: ('A' for Active; 'I' for Inactive)
REMARK    1  A    between atoms: C_1  and  O_2
REMARK    2  A    between atoms: O_2  and  C_3
REMARK    3  A    between atoms: C_6  and  C_7
REMARK    4  A    between atoms: C_7  and  N_8
REMARK    5  A    between atoms: N_16  and  S_17
REMARK    6  A    between atoms: S_17  and  C_20
REMARK                            x       y       z     vdW  Elec       q    Type
REMARK                         _______ _______ _______ _____ _____    ______ ____
ROOT
ATOM      1  N   UNL     1       3.569   5.217  19.714  0.00  0.00    +0.000 NA
ATOM      2  C   UNL     1       2.258   4.745  19.719  0.00  0.00    +0.000 C 
ATOM      3  C   UNL     1       2.185   4.561  18.202  0.00  0.00    +0.000 C 
ATOM      4  C   UNL     1       1.548   3.213  17.994  0.00  0.00    +0.000 C 
ATOM      5  C   UNL     1       2.631   2.237  17.724  0.00  0.00    +0.000 C 
ATOM      6  C   UNL     1       4.043   2.796  18.077  0.00  0.00    +0.000 C 
ATOM      7  C   UNL     1       4.357   3.873  19.338  0.00  0.00    +0.000 C 
ATOM      8  C   UNL     1       4.407   3.572  16.859  0.00  0.00    +0.000 C 
ATOM      9  N   UNL     1       3.733   4.841  17.136  0.00  0.00    +0.000 NA
ENDROOT
BRANCH   9  10
ATOM     10  S   UNL     1       5.166   6.199  16.801  0.00  0.00    +0.000 S 
ATOM     11  O   UNL     1       5.334   6.227  15.351  0.00  0.00    +0.000 OA
ATOM     12  O   UNL     1       4.651   7.384  17.458  0.00  0.00    +0.000 OA
BRANCH  10  13
ATOM     13  C   UNL     1       7.072   6.132  17.427  0.00  0.00    +0.000 C 
ATOM     14  C   UNL     1       7.280   5.696  18.898  0.00  0.00    +0.000 C 
ATOM     15  C   UNL     1       7.608   4.749  17.807  0.00  0.00    +0.000 C 
ENDBRANCH  10  13
ENDBRANCH   9  10
BRANCH   1  16
ATOM     16  C   UNL     1       3.295   6.607  18.958  0.00  0.00    +0.000 C 
BRANCH  16  20
ATOM     17  C   UNL     1       0.127  10.086  19.233  0.00  0.00    +0.000 A 
ATOM     18  C   UNL     1       0.514   9.510  20.392  0.00  0.00    +0.000 A 
ATOM     19  C   UNL     1       1.436   8.450  20.299  0.00  0.00    +0.000 A 
ATOM     20  C   UNL     1       2.191   7.965  19.137  0.00  0.00    +0.000 A 
ATOM     21  C   UNL     1       1.809   8.677  18.015  0.00  0.00    +0.000 A 
ATOM     22  C   UNL     1       0.740   9.647  18.050  0.00  0.00    +0.000 A 
BRANCH  17  24
ATOM     23  C   UNL     1      -1.823  10.739  18.113  0.00  0.00    +0.000 C 
ATOM     24  O   UNL     1      -0.888  11.005  19.164  0.00  0.00    +0.000 OA
ENDBRANCH  17  24
ENDBRANCH  16  20
ENDBRANCH   1  16
TORSDOF 5
ENDMDL
MODEL 6
REMARK VINA RESULT:      -9.2      1.039      1.488
REMARK  Name = 
REMARK  6 active torsions:
REMARK  status: ('A' for Active; 'I' for Inactive)
REMARK    1  A    between atoms: C_1  and  O_2
REMARK    2  A    between atoms: O_2  and  C_3
REMARK    3  A    between atoms: C_6  and  C_7
REMARK    4  A    between atoms: C_7  and  N_8
REMARK    5  A    between atoms: N_16  and  S_17
REMARK    6  A    between atoms: S_17  and  C_20
REMARK                            x       y       z     vdW  Elec       q    Type
REMARK                         _______ _______ _______ _____ _____    ______ ____
ROOT
ATOM      1  N   UNL     1       3.656   5.146  19.729  0.00  0.00    +0.000 NA
ATOM      2  C   UNL     1       2.344   4.677  19.772  0.00  0.00    +0.000 C 
ATOM      3  C   UNL     1       2.224   4.497  18.257  0.00  0.00    +0.000 C 
ATOM      4  C   UNL     1       1.577   3.152  18.066  0.00  0.00    +0.000 C 
ATOM      5  C   UNL     1       2.649   2.173  17.761  0.00  0.00    +0.000 C 
ATOM      6  C   UNL     1       4.072   2.727  18.072  0.00  0.00    +0.000 C 
ATOM      7  C   UNL     1       4.428   3.800  19.325  0.00  0.00    +0.000 C 
ATOM      8  C   UNL     1       4.401   3.506  16.845  0.00  0.00    +0.000 C 
ATOM      9  N   UNL     1       3.739   4.775  17.145  0.00  0.00    +0.000 NA
ENDROOT
BRANCH   9  10
ATOM     10  S   UNL     1       5.166   6.130  16.770  0.00  0.00    +0.000 S 
ATOM     11  O   UNL     1       5.434   6.015  15.339  0.00  0.00    +0.000 OA
ATOM     12  O   UNL     1       4.583   7.361  17.265  0.00  0.00    +0.000 OA
BRANCH  10  13
ATOM     13  C   UNL     1       7.024   6.177  17.526  0.00  0.00    +0.000 C 
ATOM     14  C   UNL     1       7.167   5.686  18.988  0.00  0.00    +0.000 C 
ATOM     15  C   UNL     1       7.642   4.822  17.882  0.00  0.00    +0.000 C 
ENDBRANCH  10  13
ENDBRANCH   9  10
BRANCH   1  16
ATOM     16  C   UNL     1       3.363   6.539  18.984  0.00  0.00    +0.000 C 
BRANCH  16  20
ATOM     17  C   UNL     1       0.393  10.157  19.535  0.00  0.00    +0.000 A 
ATOM     18  C   UNL     1       0.796   9.875  18.278  0.00  0.00    +0.000 A 
ATOM     19  C   UNL     1       1.709   8.814  18.124  0.00  0.00    +0.000 A 
ATOM     20  C   UNL     1       2.178   7.832  19.111  0.00  0.00    +0.000 A 
ATOM     21  C   UNL     1       1.637   8.133  20.347  0.00  0.00    +0.000 A 
ATOM     22  C   UNL     1       0.840   9.317  20.567  0.00  0.00    +0.000 A 
BRANCH  17  24
ATOM     23  C   UNL     1      -1.447  11.481  18.950  0.00  0.00    +0.000 C 
ATOM     24  O   UNL     1      -0.351  11.265  19.845  0.00  0.00    +0.000 OA
ENDBRANCH  17  24
ENDBRANCH  16  20
ENDBRANCH   1  16
TORSDOF 5
ENDMDL
MODEL 7
REMARK VINA RESULT:      -9.2      1.309      1.736
REMARK  Name = 
REMARK  6 active torsions:
REMARK  status: ('A' for Active; 'I' for Inactive)
REMARK    1  A    between atoms: C_1  and  O_2
REMARK    2  A    between atoms: O_2  and  C_3
REMARK    3  A    between atoms: C_6  and  C_7
REMARK    4  A    between atoms: C_7  and  N_8
REMARK    5  A    between atoms: N_16  and  S_17
REMARK    6  A    between atoms: S_17  and  C_20
REMARK                            x       y       z     vdW  Elec       q    Type
REMARK                         _______ _______ _______ _____ _____    ______ ____
ROOT
ATOM      1  N   UNL     1       2.888   4.562  20.549  0.00  0.00    +0.000 NA
ATOM      2  C   UNL     1       1.513   4.426  20.359  0.00  0.00    +0.000 C 
ATOM      3  C   UNL     1       1.624   4.097  18.869  0.00  0.00    +0.000 C 
ATOM      4  C   UNL     1       0.699   2.930  18.649  0.00  0.00    +0.000 C 
ATOM      5  C   UNL     1       1.521   1.696  18.641  0.00  0.00    +0.000 C 
ATOM      6  C   UNL     1       2.960   1.930  19.193  0.00  0.00    +0.000 C 
ATOM      7  C   UNL     1       3.348   3.033  20.411  0.00  0.00    +0.000 C 
ATOM      8  C   UNL     1       3.690   2.454  18.006  0.00  0.00    +0.000 C 
ATOM      9  N   UNL     1       3.333   3.870  18.071  0.00  0.00    +0.000 NA
ENDROOT
BRANCH   9  10
ATOM     10  S   UNL     1       5.103   4.792  17.896  0.00  0.00    +0.000 S 
ATOM     11  O   UNL     1       4.780   6.170  17.534  0.00  0.00    +0.000 OA
ATOM     12  O   UNL     1       5.726   4.545  19.181  0.00  0.00    +0.000 OA
BRANCH  10  13
ATOM     13  C   UNL     1       6.570   4.366  16.596  0.00  0.00    +0.000 C 
ATOM     14  C   UNL     1       6.114   3.782  15.236  0.00  0.00    +0.000 C 
ATOM     15  C   UNL     1       6.584   5.186  15.302  0.00  0.00    +0.000 C 
ENDBRANCH  10  13
ENDBRANCH   9  10
BRANCH   1  16
ATOM     16  C   UNL     1       3.099   5.883  19.661  0.00  0.00    +0.000 C 
BRANCH  16  20
ATOM     17  C   UNL     1       0.954  10.040  19.080  0.00  0.00    +0.000 A 
ATOM     18  C   UNL     1       1.443   9.438  17.975  0.00  0.00    +0.000 A 
ATOM     19  C   UNL     1       2.112   8.212  18.160  0.00  0.00    +0.000 A 
ATOM     20  C   UNL     1       2.222   7.379  19.364  0.00  0.00    +0.000 A 
ATOM     21  C   UNL     1       1.606   8.021  20.422  0.00  0.00    +0.000 A 
ATOM     22  C   UNL     1       1.069   9.356  20.300  0.00  0.00    +0.000 A 
BRANCH  17  24
ATOM     23  C   UNL     1      -0.340  11.618  20.228  0.00  0.00    +0.000 C 
ATOM     24  O   UNL     1       0.440  11.310  19.067  0.00  0.00    +0.000 OA
ENDBRANCH  17  24
ENDBRANCH  16  20
ENDBRANCH   1  16
TORSDOF 5
ENDMDL
MODEL 8
REMARK VINA RESULT:      -9.1      1.006      1.192
REMARK  Name = 
REMARK  6 active torsions:
REMARK  status: ('A' for Active; 'I' for Inactive)
REMARK    1  A    between atoms: C_1  and  O_2
REMARK    2  A    between atoms: O_2  and  C_3
REMARK    3  A    between atoms: C_6  and  C_7
REMARK    4  A    between atoms: C_7  and  N_8
REMARK    5  A    between atoms: N_16  and  S_17
REMARK    6  A    between atoms: S_17  and  C_20
REMARK                            x       y       z     vdW  Elec       q    Type
REMARK                         _______ _______ _______ _____ _____    ______ ____
ROOT
ATOM      1  N   UNL     1       2.739   4.406  20.595  0.00  0.00    +0.000 NA
ATOM      2  C   UNL     1       1.360   4.333  20.405  0.00  0.00    +0.000 C 
ATOM      3  C   UNL     1       1.456   3.938  18.930  0.00  0.00    +0.000 C 
ATOM      4  C   UNL     1       0.473   2.812  18.754  0.00  0.00    +0.000 C 
ATOM      5  C   UNL     1       1.230   1.538  18.800  0.00  0.00    +0.000 C 
ATOM      6  C   UNL     1       2.678   1.721  19.348  0.00  0.00    +0.000 C 
ATOM      7  C   UNL     1       3.120   2.851  20.521  0.00  0.00    +0.000 C 
ATOM      8  C   UNL     1       3.437   2.156  18.143  0.00  0.00    +0.000 C 
ATOM      9  N   UNL     1       3.153   3.591  18.149  0.00  0.00    +0.000 NA
ENDROOT
BRANCH   9  10
ATOM     10  S   UNL     1       4.968   4.413  17.943  0.00  0.00    +0.000 S 
ATOM     11  O   UNL     1       5.697   4.034  19.151  0.00  0.00    +0.000 OA
ATOM     12  O   UNL     1       5.421   3.887  16.671  0.00  0.00    +0.000 OA
BRANCH  10  13
ATOM     13  C   UNL     1       5.407   6.366  17.803  0.00  0.00    +0.000 C 
ATOM     14  C   UNL     1       6.769   6.702  17.146  0.00  0.00    +0.000 C 
ATOM     15  C   UNL     1       5.518   6.933  16.385  0.00  0.00    +0.000 C 
ENDBRANCH  10  13
ENDBRANCH   9  10
BRANCH   1  16
ATOM     16  C   UNL     1       3.019   5.677  19.654  0.00  0.00    +0.000 C 
BRANCH  16  20
ATOM     17  C   UNL     1       0.997   9.862  18.873  0.00  0.00    +0.000 A 
ATOM     18  C   UNL     1       1.016   9.413  20.146  0.00  0.00    +0.000 A 
ATOM     19  C   UNL     1       1.592   8.147  20.367  0.00  0.00    +0.000 A 
ATOM     20  C   UNL     1       2.344   7.288  19.445  0.00  0.00    +0.000 A 
ATOM     21  C   UNL     1       2.365   7.871  18.192  0.00  0.00    +0.000 A 
ATOM     22  C   UNL     1       1.633   9.080  17.897  0.00  0.00    +0.000 A 
BRANCH  17  24
ATOM     23  C   UNL     1       0.385  12.045  19.459  0.00  0.00    +0.000 C 
ATOM     24  O   UNL     1       0.318  10.990  18.494  0.00  0.00    +0.000 OA
ENDBRANCH  17  24
ENDBRANCH  16  20
ENDBRANCH   1  16
TORSDOF 5
ENDMDL
MODEL 9
REMARK VINA RESULT:      -8.9      1.069      1.336
REMARK  Name = 
REMARK  6 active torsions:
REMARK  status: ('A' for Active; 'I' for Inactive)
REMARK    1  A    between atoms: C_1  and  O_2
REMARK    2  A    between atoms: O_2  and  C_3
REMARK    3  A    between atoms: C_6  and  C_7
REMARK    4  A    between atoms: C_7  and  N_8
REMARK    5  A    between atoms: N_16  and  S_17
REMARK    6  A    between atoms: S_17  and  C_20
REMARK                            x       y       z     vdW  Elec       q    Type
REMARK                         _______ _______ _______ _____ _____    ______ ____
ROOT
ATOM      1  N   UNL     1       2.360   4.700  20.756  0.00  0.00    +0.000 NA
ATOM      2  C   UNL     1       1.072   4.267  20.448  0.00  0.00    +0.000 C 
ATOM      3  C   UNL     1       1.378   4.002  18.972  0.00  0.00    +0.000 C 
ATOM      4  C   UNL     1       0.758   2.665  18.670  0.00  0.00    +0.000 C 
ATOM      5  C   UNL     1       1.832   1.644  18.730  0.00  0.00    +0.000 C 
ATOM      6  C   UNL     1       3.131   2.180  19.405  0.00  0.00    +0.000 C 
ATOM      7  C   UNL     1       3.160   3.315  20.655  0.00  0.00    +0.000 C 
ATOM      8  C   UNL     1       3.823   2.878  18.286  0.00  0.00    +0.000 C 
ATOM      9  N   UNL     1       3.155   4.178  18.324  0.00  0.00    +0.000 NA
ENDROOT
BRANCH   9  10
ATOM     10  S   UNL     1       4.682   5.473  18.304  0.00  0.00    +0.000 S 
ATOM     11  O   UNL     1       4.163   6.666  17.640  0.00  0.00    +0.000 OA
ATOM     12  O   UNL     1       5.045   5.568  19.705  0.00  0.00    +0.000 OA
BRANCH  10  13
ATOM     13  C   UNL     1       6.457   5.245  17.396  0.00  0.00    +0.000 C 
ATOM     14  C   UNL     1       7.362   6.501  17.364  0.00  0.00    +0.000 C 
ATOM     15  C   UNL     1       7.694   5.389  18.286  0.00  0.00    +0.000 C 
ENDBRANCH  10  13
ENDBRANCH   9  10
BRANCH   1  16
ATOM     16  C   UNL     1       2.346   6.054  19.892  0.00  0.00    +0.000 C 
BRANCH  16  20
ATOM     17  C   UNL     1       0.625  10.425  20.279  0.00  0.00    +0.000 A 
ATOM     18  C   UNL     1       0.729   9.699  21.413  0.00  0.00    +0.000 A 
ATOM     19  C   UNL     1       1.212   8.383  21.285  0.00  0.00    +0.000 A 
ATOM     20  C   UNL     1       1.794   7.709  20.118  0.00  0.00    +0.000 A 
ATOM     21  C   UNL     1       1.742   8.558  19.028  0.00  0.00    +0.000 A 
ATOM     22  C   UNL     1       1.091   9.845  19.089  0.00  0.00    +0.000 A 
BRANCH  17  24
ATOM     23  C   UNL     1      -0.813  11.829  19.077  0.00  0.00    +0.000 C 
ATOM     24  O   UNL     1       0.010  11.649  20.235  0.00  0.00    +0.000 OA
ENDBRANCH  17  24
ENDBRANCH  16  20
ENDBRANCH   1  16
TORSDOF 5
ENDMDL
