MODEL 1
REMARK VINA RESULT:      -6.9      0.000      0.000
REMARK  Name = 
REMARK  4 active torsions:
REMARK  status: ('A' for Active; 'I' for Inactive)
REMARK    1  A    between atoms: C_1  and  C_2
REMARK    2  A    between atoms: C_5  and  C_6
REMARK    3  A    between atoms: N_11  and  C_12
REMARK    4  A    between atoms: C_14  and  C_15
REMARK                            x       y       z     vdW  Elec       q    Type
REMARK                         _______ _______ _______ _____ _____    ______ ____
ROOT
ATOM      1  C   UNL     1       5.745   4.883  18.238  0.00  0.00    +0.000 A 
ATOM      2  C   UNL     1       6.871   5.611  18.597  0.00  0.00    +0.000 A 
ATOM      3  N   UNL     1       7.669   5.885  17.521  0.00  0.00    +0.000 NA
ATOM      4  C   UNL     1       7.063   5.351  16.493  0.00  0.00    +0.000 A 
ATOM      5  N   UNL     1       7.532   5.365  15.240  0.00  0.00    +0.000 N 
ATOM      6  N   UNL     1       5.875   4.762  16.862  0.00  0.00    +0.000 N 
ATOM      7  C   UNL     1       4.914   4.171  15.959  0.00  0.00    +0.000 C 
ATOM      8  H   UNL     1       8.374   5.902  15.062  0.00  0.00    +0.000 HD
ATOM      9  H   UNL     1       7.034   5.055  14.419  0.00  0.00    +0.000 HD
ENDROOT
BRANCH   1  14
ATOM     10  C   UNL     1       1.441   2.815  21.554  0.00  0.00    +0.000 C 
ATOM     11  C   UNL     1       2.555   3.376  20.715  0.00  0.00    +0.000 A 
ATOM     12  C   UNL     1       3.589   2.537  20.277  0.00  0.00    +0.000 A 
ATOM     13  C   UNL     1       4.633   3.034  19.486  0.00  0.00    +0.000 A 
ATOM     14  C   UNL     1       4.660   4.379  19.091  0.00  0.00    +0.000 A 
ATOM     15  C   UNL     1       3.602   5.195  19.503  0.00  0.00    +0.000 A 
ATOM     16  C   UNL     1       2.576   4.730  20.342  0.00  0.00    +0.000 A 
ATOM     17  C   UNL     1       1.530   5.701  20.817  0.00  0.00    +0.000 C 
ENDBRANCH   1  14
TORSDOF 1
ENDMDL
MODEL 2
REMARK VINA RESULT:      -6.8      1.708      1.864
REMARK  Name = 
REMARK  4 active torsions:
REMARK  status: ('A' for Active; 'I' for Inactive)
REMARK    1  A    between atoms: C_1  and  C_2
REMARK    2  A    between atoms: C_5  and  C_6
REMARK    3  A    between atoms: N_11  and  C_12
REMARK    4  A    between atoms: C_14  and  C_15
REMARK                            x       y       z     vdW  Elec       q    Type
REMARK                         _______ _______ _______ _____ _____    ______ ____
ROOT
ATOM      1  C   UNL     1       5.568   5.366  18.379  0.00  0.00    +0.000 A 
ATOM      2  C   UNL     1       6.687   5.367  19.200  0.00  0.00    +0.000 A 
ATOM      3  N   UNL     1       7.642   6.243  18.764  0.00  0.00    +0.000 NA
ATOM      4  C   UNL     1       7.142   6.798  17.690  0.00  0.00    +0.000 A 
ATOM      5  N   UNL     1       7.776   7.700  16.932  0.00  0.00    +0.000 N 
ATOM      6  N   UNL     1       5.873   6.331  17.430  0.00  0.00    +0.000 N 
ATOM      7  C   UNL     1       5.001   6.808  16.382  0.00  0.00    +0.000 C 
ATOM      8  H   UNL     1       8.673   8.040  17.261  0.00  0.00    +0.000 HD
ATOM      9  H   UNL     1       7.371   8.217  16.165  0.00  0.00    +0.000 HD
ENDROOT
BRANCH   1  14
ATOM     10  C   UNL     1       0.707   2.195  18.723  0.00  0.00    +0.000 C 
ATOM     11  C   UNL     1       1.966   3.016  18.666  0.00  0.00    +0.000 A 
ATOM     12  C   UNL     1       2.964   2.699  17.734  0.00  0.00    +0.000 A 
ATOM     13  C   UNL     1       4.141   3.455  17.656  0.00  0.00    +0.000 A 
ATOM     14  C   UNL     1       4.342   4.564  18.490  0.00  0.00    +0.000 A 
ATOM     15  C   UNL     1       3.321   4.892  19.387  0.00  0.00    +0.000 A 
ATOM     16  C   UNL     1       2.160   4.113  19.521  0.00  0.00    +0.000 A 
ATOM     17  C   UNL     1       1.157   4.482  20.580  0.00  0.00    +0.000 C 
ENDBRANCH   1  14
TORSDOF 1
ENDMDL
MODEL 3
REMARK VINA RESULT:      -6.8      3.017      5.698
REMARK  Name = 
REMARK  4 active torsions:
REMARK  status: ('A' for Active; 'I' for Inactive)
REMARK    1  A    between atoms: C_1  and  C_2
REMARK    2  A    between atoms: C_5  and  C_6
REMARK    3  A    between atoms: N_11  and  C_12
REMARK    4  A    between atoms: C_14  and  C_15
REMARK                            x       y       z     vdW  Elec       q    Type
REMARK                         _______ _______ _______ _____ _____    ______ ____
ROOT
ATOM      1  C   UNL     1       3.160   4.205  18.313  0.00  0.00    +0.000 A 
ATOM      2  C   UNL     1       2.692   3.169  17.518  0.00  0.00    +0.000 A 
ATOM      3  N   UNL     1       1.592   2.563  18.060  0.00  0.00    +0.000 NA
ATOM      4  C   UNL     1       1.357   3.202  19.177  0.00  0.00    +0.000 A 
ATOM      5  N   UNL     1       0.376   2.901  20.036  0.00  0.00    +0.000 N 
ATOM      6  N   UNL     1       2.253   4.231  19.363  0.00  0.00    +0.000 N 
ATOM      7  C   UNL     1       2.215   5.194  20.439  0.00  0.00    +0.000 C 
ATOM      8  H   UNL     1      -0.281   2.181  19.760  0.00  0.00    +0.000 HD
ATOM      9  H   UNL     1       0.112   3.444  20.844  0.00  0.00    +0.000 HD
ENDROOT
BRANCH   1  14
ATOM     10  C   UNL     1       7.729   7.674  17.368  0.00  0.00    +0.000 C 
ATOM     11  C   UNL     1       6.552   6.780  17.644  0.00  0.00    +0.000 A 
ATOM     12  C   UNL     1       5.370   6.935  16.907  0.00  0.00    +0.000 A 
ATOM     13  C   UNL     1       4.264   6.107  17.139  0.00  0.00    +0.000 A 
ATOM     14  C   UNL     1       4.317   5.085  18.097  0.00  0.00    +0.000 A 
ATOM     15  C   UNL     1       5.515   4.917  18.798  0.00  0.00    +0.000 A 
ATOM     16  C   UNL     1       6.616   5.772  18.620  0.00  0.00    +0.000 A 
ATOM     17  C   UNL     1       7.831   5.580  19.485  0.00  0.00    +0.000 C 
ENDBRANCH   1  14
TORSDOF 1
ENDMDL
MODEL 4
REMARK VINA RESULT:      -6.8      2.759      5.644
REMARK  Name = 
REMARK  4 active torsions:
REMARK  status: ('A' for Active; 'I' for Inactive)
REMARK    1  A    between atoms: C_1  and  C_2
REMARK    2  A    between atoms: C_5  and  C_6
REMARK    3  A    between atoms: N_11  and  C_12
REMARK    4  A    between atoms: C_14  and  C_15
REMARK                            x       y       z     vdW  Elec       q    Type
REMARK                         _______ _______ _______ _____ _____    ______ ____
ROOT
ATOM      1  C   UNL     1       3.350   4.381  19.329  0.00  0.00    +0.000 A 
ATOM      2  C   UNL     1       2.329   5.214  19.764  0.00  0.00    +0.000 A 
ATOM      3  N   UNL     1       1.665   4.693  20.840  0.00  0.00    +0.000 NA
ATOM      4  C   UNL     1       2.252   3.552  21.094  0.00  0.00    +0.000 A 
ATOM      5  N   UNL     1       1.884   2.703  22.060  0.00  0.00    +0.000 N 
ATOM      6  N   UNL     1       3.303   3.328  20.233  0.00  0.00    +0.000 N 
ATOM      7  C   UNL     1       4.221   2.216  20.301  0.00  0.00    +0.000 C 
ATOM      8  H   UNL     1       1.152   3.005  22.693  0.00  0.00    +0.000 HD
ATOM      9  H   UNL     1       2.385   1.873  22.340  0.00  0.00    +0.000 HD
ENDROOT
BRANCH   1  14
ATOM     10  C   UNL     1       7.026   5.016  14.871  0.00  0.00    +0.000 C 
ATOM     11  C   UNL     1       6.075   4.883  16.028  0.00  0.00    +0.000 A 
ATOM     12  C   UNL     1       5.001   3.985  15.949  0.00  0.00    +0.000 A 
ATOM     13  C   UNL     1       4.108   3.837  17.018  0.00  0.00    +0.000 A 
ATOM     14  C   UNL     1       4.277   4.564  18.205  0.00  0.00    +0.000 A 
ATOM     15  C   UNL     1       5.374   5.428  18.284  0.00  0.00    +0.000 A 
ATOM     16  C   UNL     1       6.248   5.633  17.203  0.00  0.00    +0.000 A 
ATOM     17  C   UNL     1       7.345   6.653  17.341  0.00  0.00    +0.000 C 
ENDBRANCH   1  14
TORSDOF 1
ENDMDL
MODEL 5
REMARK VINA RESULT:      -6.7      1.919      2.420
REMARK  Name = 
REMARK  4 active torsions:
REMARK  status: ('A' for Active; 'I' for Inactive)
REMARK    1  A    between atoms: C_1  and  C_2
REMARK    2  A    between atoms: C_5  and  C_6
REMARK    3  A    between atoms: N_11  and  C_12
REMARK    4  A    between atoms: C_14  and  C_15
REMARK                            x       y       z     vdW  Elec       q    Type
REMARK                         _______ _______ _______ _____ _____    ______ ____
ROOT
ATOM      1  C   UNL     1       4.899   5.729  17.497  0.00  0.00    +0.000 A 
ATOM      2  C   UNL     1       5.019   6.535  16.374  0.00  0.00    +0.000 A 
ATOM      3  N   UNL     1       6.174   7.268  16.390  0.00  0.00    +0.000 NA
ATOM      4  C   UNL     1       6.784   6.934  17.497  0.00  0.00    +0.000 A 
ATOM      5  N   UNL     1       7.945   7.451  17.914  0.00  0.00    +0.000 N 
ATOM      6  N   UNL     1       6.075   5.978  18.190  0.00  0.00    +0.000 N 
ATOM      7  C   UNL     1       6.515   5.318  19.398  0.00  0.00    +0.000 C 
ATOM      8  H   UNL     1       8.427   8.084  17.286  0.00  0.00    +0.000 HD
ATOM      9  H   UNL     1       8.484   7.133  18.706  0.00  0.00    +0.000 HD
ENDROOT
BRANCH   1  14
ATOM     10  C   UNL     1       0.568   2.100  18.864  0.00  0.00    +0.000 C 
ATOM     11  C   UNL     1       1.695   3.041  18.542  0.00  0.00    +0.000 A 
ATOM     12  C   UNL     1       2.535   2.775  17.451  0.00  0.00    +0.000 A 
ATOM     13  C   UNL     1       3.586   3.643  17.126  0.00  0.00    +0.000 A 
ATOM     14  C   UNL     1       3.811   4.812  17.865  0.00  0.00    +0.000 A 
ATOM     15  C   UNL     1       2.942   5.084  18.926  0.00  0.00    +0.000 A 
ATOM     16  C   UNL     1       1.918   4.199  19.304  0.00  0.00    +0.000 A 
ATOM     17  C   UNL     1       1.091   4.523  20.519  0.00  0.00    +0.000 C 
ENDBRANCH   1  14
TORSDOF 1
ENDMDL
MODEL 6
REMARK VINA RESULT:      -6.6      2.933      4.556
REMARK  Name = 
REMARK  4 active torsions:
REMARK  status: ('A' for Active; 'I' for Inactive)
REMARK    1  A    between atoms: C_1  and  C_2
REMARK    2  A    between atoms: C_5  and  C_6
REMARK    3  A    between atoms: N_11  and  C_12
REMARK    4  A    between atoms: C_14  and  C_15
REMARK                            x       y       z     vdW  Elec       q    Type
REMARK                         _______ _______ _______ _____ _____    ______ ____
ROOT
ATOM      1  C   UNL     1       3.642   5.312  18.988  0.00  0.00    +0.000 A 
ATOM      2  C   UNL     1       4.968   5.072  19.320  0.00  0.00    +0.000 A 
ATOM      3  N   UNL     1       5.285   3.745  19.235  0.00  0.00    +0.000 NA
ATOM      4  C   UNL     1       4.187   3.147  18.850  0.00  0.00    +0.000 A 
ATOM      5  N   UNL     1       4.059   1.827  18.675  0.00  0.00    +0.000 N 
ATOM      6  N   UNL     1       3.169   4.052  18.650  0.00  0.00    +0.000 N 
ATOM      7  C   UNL     1       1.859   3.740  18.128  0.00  0.00    +0.000 C 
ATOM      8  H   UNL     1       4.894   1.260  18.765  0.00  0.00    +0.000 HD
ATOM      9  H   UNL     1       3.257   1.359  18.278  0.00  0.00    +0.000 HD
ENDROOT
BRANCH   1  14
ATOM     10  C   UNL     1       0.821  10.395  18.883  0.00  0.00    +0.000 C 
ATOM     11  C   UNL     1       1.525   9.067  18.925  0.00  0.00    +0.000 A 
ATOM     12  C   UNL     1       2.256   8.630  17.811  0.00  0.00    +0.000 A 
ATOM     13  C   UNL     1       2.928   7.401  17.830  0.00  0.00    +0.000 A 
ATOM     14  C   UNL     1       2.910   6.586  18.970  0.00  0.00    +0.000 A 
ATOM     15  C   UNL     1       2.209   7.053  20.087  0.00  0.00    +0.000 A 
ATOM     16  C   UNL     1       1.482   8.254  20.069  0.00  0.00    +0.000 A 
ATOM     17  C   UNL     1       0.676   8.633  21.282  0.00  0.00    +0.000 C 
ENDBRANCH   1  14
TORSDOF 1
ENDMDL
MODEL 7
REMARK VINA RESULT:      -6.5      1.439      2.028
REMARK  Name = 
REMARK  4 active torsions:
REMARK  status: ('A' for Active; 'I' for Inactive)
REMARK    1  A    between atoms: C_1  and  C_2
REMARK    2  A    between atoms: C_5  and  C_6
REMARK    3  A    between atoms: N_11  and  C_12
REMARK    4  A    between atoms: C_14  and  C_15
REMARK                            x       y       z     vdW  Elec       q    Type
REMARK                         _______ _______ _______ _____ _____    ______ ____
ROOT
ATOM      1  C   UNL     1       5.763   4.725  17.377  0.00  0.00    +0.000 A 
ATOM      2  C   UNL     1       7.030   4.267  17.708  0.00  0.00    +0.000 A 
ATOM      3  N   UNL     1       7.942   4.522  16.721  0.00  0.00    +0.000 NA
ATOM      4  C   UNL     1       7.274   5.138  15.780  0.00  0.00    +0.000 A 
ATOM      5  N   UNL     1       7.793   5.539  14.614  0.00  0.00    +0.000 N 
ATOM      6  N   UNL     1       5.957   5.321  16.139  0.00  0.00    +0.000 N 
ATOM      7  C   UNL     1       4.972   6.052  15.376  0.00  0.00    +0.000 C 
ATOM      8  H   UNL     1       8.793   5.434  14.487  0.00  0.00    +0.000 HD
ATOM      9  H   UNL     1       7.325   6.107  13.923  0.00  0.00    +0.000 HD
ENDROOT
BRANCH   1  14
ATOM     10  C   UNL     1       0.877   4.376  20.509  0.00  0.00    +0.000 C 
ATOM     11  C   UNL     1       2.124   4.458  19.673  0.00  0.00    +0.000 A 
ATOM     12  C   UNL     1       3.018   5.523  19.855  0.00  0.00    +0.000 A 
ATOM     13  C   UNL     1       4.191   5.615  19.095  0.00  0.00    +0.000 A 
ATOM     14  C   UNL     1       4.516   4.633  18.149  0.00  0.00    +0.000 A 
ATOM     15  C   UNL     1       3.635   3.557  18.005  0.00  0.00    +0.000 A 
ATOM     16  C   UNL     1       2.426   3.475  18.716  0.00  0.00    +0.000 A 
ATOM     17  C   UNL     1       1.491   2.332  18.428  0.00  0.00    +0.000 C 
ENDBRANCH   1  14
TORSDOF 1
ENDMDL
MODEL 8
REMARK VINA RESULT:      -6.5      2.895      5.508
REMARK  Name = 
REMARK  4 active torsions:
REMARK  status: ('A' for Active; 'I' for Inactive)
REMARK    1  A    between atoms: C_1  and  C_2
REMARK    2  A    between atoms: C_5  and  C_6
REMARK    3  A    between atoms: N_11  and  C_12
REMARK    4  A    between atoms: C_14  and  C_15
REMARK                            x       y       z     vdW  Elec       q    Type
REMARK                         _______ _______ _______ _____ _____    ______ ____
ROOT
ATOM      1  C   UNL     1       2.990   4.462  18.890  0.00  0.00    +0.000 A 
ATOM      2  C   UNL     1       1.951   4.818  19.738  0.00  0.00    +0.000 A 
ATOM      3  N   UNL     1       1.006   3.834  19.833  0.00  0.00    +0.000 NA
ATOM      4  C   UNL     1       1.434   2.865  19.066  0.00  0.00    +0.000 A 
ATOM      5  N   UNL     1       0.781   1.717  18.852  0.00  0.00    +0.000 N 
ATOM      6  N   UNL     1       2.649   3.176  18.498  0.00  0.00    +0.000 N 
ATOM      7  C   UNL     1       3.446   2.289  17.682  0.00  0.00    +0.000 C 
ATOM      8  H   UNL     1      -0.064   1.554  19.387  0.00  0.00    +0.000 HD
ATOM      9  H   UNL     1       1.140   0.917  18.352  0.00  0.00    +0.000 HD
ENDROOT
BRANCH   1  14
ATOM     10  C   UNL     1       7.677   7.509  17.294  0.00  0.00    +0.000 C 
ATOM     11  C   UNL     1       6.473   6.726  17.737  0.00  0.00    +0.000 A 
ATOM     12  C   UNL     1       5.245   6.906  17.085  0.00  0.00    +0.000 A 
ATOM     13  C   UNL     1       4.112   6.180  17.474  0.00  0.00    +0.000 A 
ATOM     14  C   UNL     1       4.179   5.237  18.509  0.00  0.00    +0.000 A 
ATOM     15  C   UNL     1       5.419   5.041  19.125  0.00  0.00    +0.000 A 
ATOM     16  C   UNL     1       6.554   5.798  18.788  0.00  0.00    +0.000 A 
ATOM     17  C   UNL     1       7.823   5.589  19.568  0.00  0.00    +0.000 C 
ENDBRANCH   1  14
TORSDOF 1
ENDMDL
MODEL 9
REMARK VINA RESULT:      -6.4      3.015      4.931
REMARK  Name = 
REMARK  4 active torsions:
REMARK  status: ('A' for Active; 'I' for Inactive)
REMARK    1  A    between atoms: C_1  and  C_2
REMARK    2  A    between atoms: C_5  and  C_6
REMARK    3  A    between atoms: N_11  and  C_12
REMARK    4  A    between atoms: C_14  and  C_15
REMARK                            x       y       z     vdW  Elec       q    Type
REMARK                         _______ _______ _______ _____ _____    ______ ____
ROOT
ATOM      1  C   UNL     1       2.848   4.811  19.605  0.00  0.00    +0.000 A 
ATOM      2  C   UNL     1       2.073   3.722  19.980  0.00  0.00    +0.000 A 
ATOM      3  N   UNL     1       2.813   2.576  20.081  0.00  0.00    +0.000 NA
ATOM      4  C   UNL     1       4.038   2.925  19.783  0.00  0.00    +0.000 A 
ATOM      5  N   UNL     1       5.079   2.086  19.732  0.00  0.00    +0.000 N 
ATOM      6  N   UNL     1       4.125   4.274  19.521  0.00  0.00    +0.000 N 
ATOM      7  C   UNL     1       5.345   5.002  19.259  0.00  0.00    +0.000 C 
ATOM      8  H   UNL     1       4.922   1.129  20.027  0.00  0.00    +0.000 HD
ATOM      9  H   UNL     1       6.045   2.350  19.609  0.00  0.00    +0.000 HD
ENDROOT
BRANCH   1  14
ATOM     10  C   UNL     1       1.299  10.331  18.642  0.00  0.00    +0.000 C 
ATOM     11  C   UNL     1       1.672   8.899  18.908  0.00  0.00    +0.000 A 
ATOM     12  C   UNL     1       2.212   8.116  17.878  0.00  0.00    +0.000 A 
ATOM     13  C   UNL     1       2.577   6.783  18.104  0.00  0.00    +0.000 A 
ATOM     14  C   UNL     1       2.436   6.202  19.372  0.00  0.00    +0.000 A 
ATOM     15  C   UNL     1       1.932   7.006  20.399  0.00  0.00    +0.000 A 
ATOM     16  C   UNL     1       1.507   8.327  20.180  0.00  0.00    +0.000 A 
ATOM     17  C   UNL     1       0.886   9.088  21.319  0.00  0.00    +0.000 C 
ENDBRANCH   1  14
TORSDOF 1
ENDMDL
