MODEL 1
REMARK VINA RESULT:      -9.5      0.000      0.000
REMARK  Name = 
REMARK  10 active torsions:
REMARK  status: ('A' for Active; 'I' for Inactive)
REMARK    1  A    between atoms: C_1  and  C_2
REMARK    2  A    between atoms: C_5  and  N_6
REMARK    3  A    between atoms: N_6  and  C_7
REMARK    4  A    between atoms: C_7  and  C_8
REMARK    5  A    between atoms: N_10  and  C_11
REMARK    6  A    between atoms: C_16  and  C_18
REMARK    7  A    between atoms: C_18  and  C_19
REMARK    8  A    between atoms: C_19  and  C_20
REMARK    9  A    between atoms: C_20  and  C_21
REMARK   10  A    between atoms: C_31  and  C_32
REMARK                            x       y       z     vdW  Elec       q    Type
REMARK                         _______ _______ _______ _____ _____    ______ ____
ROOT
ATOM      1  N   UNL     1       5.381   5.527  18.309  0.00  0.00    +0.000 N 
ATOM      2  C   UNL     1       6.652   5.813  18.824  0.00  0.00    +0.000 C 
ATOM      3  O   UNL     1       6.963   5.586  19.998  0.00  0.00    +0.000 OA
ENDROOT
BRANCH   1   8
ATOM      4  C   UNL     1       1.604   2.490  21.417  0.00  0.00    +0.000 C 
ATOM      5  C   UNL     1       2.599   3.336  20.668  0.00  0.00    +0.000 A 
ATOM      6  C   UNL     1       3.770   2.738  20.181  0.00  0.00    +0.000 A 
ATOM      7  C   UNL     1       4.679   3.465  19.411  0.00  0.00    +0.000 A 
ATOM      8  C   UNL     1       4.465   4.819  19.149  0.00  0.00    +0.000 A 
ATOM      9  C   UNL     1       3.309   5.433  19.654  0.00  0.00    +0.000 A 
ATOM     10  C   UNL     1       2.357   4.695  20.389  0.00  0.00    +0.000 A 
ATOM     11  C   UNL     1       1.054   5.342  20.780  0.00  0.00    +0.000 C 
ENDBRANCH   1   8
BRANCH   1  12
ATOM     12  C   UNL     1       4.997   5.691  16.896  0.00  0.00    +0.000 C 
BRANCH  12  13
ATOM     13  C   UNL     1       5.428   4.548  15.958  0.00  0.00    +0.000 C 
ATOM     14  O   UNL     1       5.414   3.377  16.342  0.00  0.00    +0.000 OA
ATOM     15  N   UNL     1       5.788   4.888  14.663  0.00  0.00    +0.000 N 
ATOM     16  H   UNL     1       5.574   5.833  14.362  0.00  0.00    +0.000 HD
BRANCH  15  17
ATOM     17  C   UNL     1       6.107   3.878  13.671  0.00  0.00    +0.000 C 
ATOM     18  C   UNL     1       4.940   3.529  12.748  0.00  0.00    +0.000 C 
ATOM     19  C   UNL     1       5.603   2.807  11.575  0.00  0.00    +0.000 C 
ATOM     20  C   UNL     1       7.036   3.336  11.517  0.00  0.00    +0.000 C 
ATOM     21  C   UNL     1       7.176   4.320  12.677  0.00  0.00    +0.000 C 
ENDBRANCH  15  17
ENDBRANCH  12  13
ENDBRANCH   1  12
BRANCH   2  22
ATOM     22  C   UNL     1       7.680   6.482  17.917  0.00  0.00    +0.000 C 
BRANCH  22  23
ATOM     23  C   UNL     1       8.433   7.631  18.613  0.00  0.00    +0.000 C 
BRANCH  23  24
ATOM     24  C   UNL     1       8.235   9.004  17.961  0.00  0.00    +0.000 C 
BRANCH  24  25
ATOM     25  C   UNL     1       9.098  10.047  18.639  0.00  0.00    +0.000 C 
ATOM     26  O   UNL     1       9.193  10.082  19.863  0.00  0.00    +0.000 OA
ATOM     27  N   UNL     1       9.758  10.882  17.763  0.00  0.00    +0.000 N 
ATOM     28  C   UNL     1      10.604  11.899  18.212  0.00  0.00    +0.000 A 
ATOM     29  C   UNL     1      11.555  11.677  19.202  0.00  0.00    +0.000 A 
ATOM     30  C   UNL     1      12.328  12.749  19.636  0.00  0.00    +0.000 A 
ATOM     31  C   UNL     1      12.105  14.007  19.091  0.00  0.00    +0.000 A 
ATOM     32  C   UNL     1      11.153  14.126  18.091  0.00  0.00    +0.000 A 
ATOM     33  N   UNL     1      10.430  13.090  17.608  0.00  0.00    +0.000 NA
ATOM     34  H   UNL     1       9.283  11.123  16.904  0.00  0.00    +0.000 HD
ENDBRANCH  24  25
ENDBRANCH  23  24
ENDBRANCH  22  23
ENDBRANCH   2  22
TORSDOF 8
ENDMDL
MODEL 2
REMARK VINA RESULT:      -9.0      1.654      2.174
REMARK  Name = 
REMARK  10 active torsions:
REMARK  status: ('A' for Active; 'I' for Inactive)
REMARK    1  A    between atoms: C_1  and  C_2
REMARK    2  A    between atoms: C_5  and  N_6
REMARK    3  A    between atoms: N_6  and  C_7
REMARK    4  A    between atoms: C_7  and  C_8
REMARK    5  A    between atoms: N_10  and  C_11
REMARK    6  A    between atoms: C_16  and  C_18
REMARK    7  A    between atoms: C_18  and  C_19
REMARK    8  A    between atoms: C_19  and  C_20
REMARK    9  A    between atoms: C_20  and  C_21
REMARK   10  A    between atoms: C_31  and  C_32
REMARK                            x       y       z     vdW  Elec       q    Type
REMARK                         _______ _______ _______ _____ _____    ______ ____
ROOT
ATOM      1  N   UNL     1       5.371   5.887  16.905  0.00  0.00    +0.000 N 
ATOM      2  C   UNL     1       6.351   6.237  17.843  0.00  0.00    +0.000 C 
ATOM      3  O   UNL     1       6.237   5.996  19.049  0.00  0.00    +0.000 OA
ENDROOT
BRANCH   1   8
ATOM      4  C   UNL     1       0.965   2.855  19.035  0.00  0.00    +0.000 C 
ATOM      5  C   UNL     1       2.114   3.601  18.411  0.00  0.00    +0.000 A 
ATOM      6  C   UNL     1       2.012   4.989  18.242  0.00  0.00    +0.000 A 
ATOM      7  C   UNL     1       3.085   5.731  17.744  0.00  0.00    +0.000 A 
ATOM      8  C   UNL     1       4.267   5.099  17.357  0.00  0.00    +0.000 A 
ATOM      9  C   UNL     1       4.369   3.707  17.496  0.00  0.00    +0.000 A 
ATOM     10  C   UNL     1       3.311   2.952  18.048  0.00  0.00    +0.000 A 
ATOM     11  C   UNL     1       3.511   1.487  18.332  0.00  0.00    +0.000 C 
ENDBRANCH   1   8
BRANCH   1  12
ATOM     12  C   UNL     1       5.508   6.069  15.450  0.00  0.00    +0.000 C 
BRANCH  12  13
ATOM     13  C   UNL     1       6.232   4.931  14.707  0.00  0.00    +0.000 C 
ATOM     14  O   UNL     1       7.321   4.511  15.104  0.00  0.00    +0.000 OA
ATOM     15  N   UNL     1       5.592   4.378  13.608  0.00  0.00    +0.000 N 
ATOM     16  H   UNL     1       4.619   4.629  13.472  0.00  0.00    +0.000 HD
BRANCH  15  17
ATOM     17  C   UNL     1       6.140   3.233  12.904  0.00  0.00    +0.000 C 
ATOM     18  C   UNL     1       5.139   2.540  11.981  0.00  0.00    +0.000 C 
ATOM     19  C   UNL     1       6.015   1.683  11.067  0.00  0.00    +0.000 C 
ATOM     20  C   UNL     1       7.375   2.379  11.023  0.00  0.00    +0.000 C 
ATOM     21  C   UNL     1       7.263   3.597  11.938  0.00  0.00    +0.000 C 
ENDBRANCH  15  17
ENDBRANCH  12  13
ENDBRANCH   1  12
BRANCH   2  22
ATOM     22  C   UNL     1       7.586   6.996  17.369  0.00  0.00    +0.000 C 
BRANCH  22  23
ATOM     23  C   UNL     1       7.572   8.480  17.783  0.00  0.00    +0.000 C 
BRANCH  23  24
ATOM     24  C   UNL     1       8.738   8.897  18.686  0.00  0.00    +0.000 C 
BRANCH  24  25
ATOM     25  C   UNL     1       8.999  10.383  18.571  0.00  0.00    +0.000 C 
ATOM     26  O   UNL     1       8.440  11.052  17.705  0.00  0.00    +0.000 OA
ATOM     27  N   UNL     1       9.862  10.876  19.526  0.00  0.00    +0.000 N 
ATOM     28  C   UNL     1      10.210  12.227  19.577  0.00  0.00    +0.000 A 
ATOM     29  C   UNL     1       9.256  13.234  19.475  0.00  0.00    +0.000 A 
ATOM     30  C   UNL     1       9.682  14.559  19.482  0.00  0.00    +0.000 A 
ATOM     31  C   UNL     1      11.041  14.830  19.559  0.00  0.00    +0.000 A 
ATOM     32  C   UNL     1      11.915  13.762  19.683  0.00  0.00    +0.000 A 
ATOM     33  N   UNL     1      11.525  12.469  19.740  0.00  0.00    +0.000 NA
ATOM     34  H   UNL     1      10.610  10.270  19.833  0.00  0.00    +0.000 HD
ENDBRANCH  24  25
ENDBRANCH  23  24
ENDBRANCH  22  23
ENDBRANCH   2  22
TORSDOF 8
ENDMDL
MODEL 3
REMARK VINA RESULT:      -8.8      1.615      2.034
REMARK  Name = 
REMARK  10 active torsions:
REMARK  status: ('A' for Active; 'I' for Inactive)
REMARK    1  A    between atoms: C_1  and  C_2
REMARK    2  A    between atoms: C_5  and  N_6
REMARK    3  A    between atoms: N_6  and  C_7
REMARK    4  A    between atoms: C_7  and  C_8
REMARK    5  A    between atoms: N_10  and  C_11
REMARK    6  A    between atoms: C_16  and  C_18
REMARK    7  A    between atoms: C_18  and  C_19
REMARK    8  A    between atoms: C_19  and  C_20
REMARK    9  A    between atoms: C_20  and  C_21
REMARK   10  A    between atoms: C_31  and  C_32
REMARK                            x       y       z     vdW  Elec       q    Type
REMARK                         _______ _______ _______ _____ _____    ______ ____
ROOT
ATOM      1  N   UNL     1       5.397   5.857  17.340  0.00  0.00    +0.000 N 
ATOM      2  C   UNL     1       6.325   6.096  18.362  0.00  0.00    +0.000 C 
ATOM      3  O   UNL     1       6.139   5.740  19.530  0.00  0.00    +0.000 OA
ENDROOT
BRANCH   1   8
ATOM      4  C   UNL     1       0.833   2.716  18.906  0.00  0.00    +0.000 C 
ATOM      5  C   UNL     1       2.029   3.495  18.426  0.00  0.00    +0.000 A 
ATOM      6  C   UNL     1       1.940   4.891  18.337  0.00  0.00    +0.000 A 
ATOM      7  C   UNL     1       3.049   5.658  17.977  0.00  0.00    +0.000 A 
ATOM      8  C   UNL     1       4.259   5.046  17.649  0.00  0.00    +0.000 A 
ATOM      9  C   UNL     1       4.352   3.648  17.709  0.00  0.00    +0.000 A 
ATOM     10  C   UNL     1       3.252   2.865  18.123  0.00  0.00    +0.000 A 
ATOM     11  C   UNL     1       3.429   1.384  18.331  0.00  0.00    +0.000 C 
ENDBRANCH   1   8
BRANCH   1  12
ATOM     12  C   UNL     1       5.619   6.179  15.920  0.00  0.00    +0.000 C 
BRANCH  12  13
ATOM     13  C   UNL     1       6.256   5.056  15.080  0.00  0.00    +0.000 C 
ATOM     14  O   UNL     1       7.343   4.569  15.399  0.00  0.00    +0.000 OA
ATOM     15  N   UNL     1       5.542   4.595  13.985  0.00  0.00    +0.000 N 
ATOM     16  H   UNL     1       4.575   4.894  13.911  0.00  0.00    +0.000 HD
BRANCH  15  17
ATOM     17  C   UNL     1       6.005   3.471  13.193  0.00  0.00    +0.000 C 
ATOM     18  C   UNL     1       4.941   2.893  12.260  0.00  0.00    +0.000 C 
ATOM     19  C   UNL     1       5.741   2.052  11.266  0.00  0.00    +0.000 C 
ATOM     20  C   UNL     1       7.136   2.677  11.221  0.00  0.00    +0.000 C 
ATOM     21  C   UNL     1       7.118   3.836  12.215  0.00  0.00    +0.000 C 
ENDBRANCH  15  17
ENDBRANCH  12  13
ENDBRANCH   1  12
BRANCH   2  22
ATOM     22  C   UNL     1       7.593   6.878  18.035  0.00  0.00    +0.000 C 
BRANCH  22  23
ATOM     23  C   UNL     1       7.388   8.403  18.092  0.00  0.00    +0.000 C 
BRANCH  23  24
ATOM     24  C   UNL     1       8.577   9.222  17.576  0.00  0.00    +0.000 C 
BRANCH  24  25
ATOM     25  C   UNL     1       8.974  10.281  18.583  0.00  0.00    +0.000 C 
ATOM     26  O   UNL     1       9.337   9.965  19.713  0.00  0.00    +0.000 OA
ATOM     27  N   UNL     1       8.920  11.567  18.093  0.00  0.00    +0.000 N 
ATOM     28  C   UNL     1       9.260  12.670  18.881  0.00  0.00    +0.000 A 
ATOM     29  C   UNL     1      10.411  12.685  19.661  0.00  0.00    +0.000 A 
ATOM     30  C   UNL     1      10.659  13.797  20.460  0.00  0.00    +0.000 A 
ATOM     31  C   UNL     1       9.739  14.837  20.475  0.00  0.00    +0.000 A 
ATOM     32  C   UNL     1       8.634  14.743  19.645  0.00  0.00    +0.000 A 
ATOM     33  N   UNL     1       8.398  13.703  18.814  0.00  0.00    +0.000 NA
ATOM     34  H   UNL     1       8.195  11.778  17.421  0.00  0.00    +0.000 HD
ENDBRANCH  24  25
ENDBRANCH  23  24
ENDBRANCH  22  23
ENDBRANCH   2  22
TORSDOF 8
ENDMDL
MODEL 4
REMARK VINA RESULT:      -8.4      1.319      1.826
REMARK  Name = 
REMARK  10 active torsions:
REMARK  status: ('A' for Active; 'I' for Inactive)
REMARK    1  A    between atoms: C_1  and  C_2
REMARK    2  A    between atoms: C_5  and  N_6
REMARK    3  A    between atoms: N_6  and  C_7
REMARK    4  A    between atoms: C_7  and  C_8
REMARK    5  A    between atoms: N_10  and  C_11
REMARK    6  A    between atoms: C_16  and  C_18
REMARK    7  A    between atoms: C_18  and  C_19
REMARK    8  A    between atoms: C_19  and  C_20
REMARK    9  A    between atoms: C_20  and  C_21
REMARK   10  A    between atoms: C_31  and  C_32
REMARK                            x       y       z     vdW  Elec       q    Type
REMARK                         _______ _______ _______ _____ _____    ______ ____
ROOT
ATOM      1  N   UNL     1       5.201   5.964  18.085  0.00  0.00    +0.000 N 
ATOM      2  C   UNL     1       6.531   5.852  18.511  0.00  0.00    +0.000 C 
ATOM      3  O   UNL     1       6.861   5.203  19.509  0.00  0.00    +0.000 OA
ENDROOT
BRANCH   1   8
ATOM      4  C   UNL     1       1.433   2.818  21.094  0.00  0.00    +0.000 C 
ATOM      5  C   UNL     1       2.376   3.621  20.239  0.00  0.00    +0.000 A 
ATOM      6  C   UNL     1       2.562   4.982  20.524  0.00  0.00    +0.000 A 
ATOM      7  C   UNL     1       3.489   5.743  19.811  0.00  0.00    +0.000 A 
ATOM      8  C   UNL     1       4.216   5.178  18.763  0.00  0.00    +0.000 A 
ATOM      9  C   UNL     1       4.018   3.824  18.451  0.00  0.00    +0.000 A 
ATOM     10  C   UNL     1       3.123   3.031  19.200  0.00  0.00    +0.000 A 
ATOM     11  C   UNL     1       3.051   1.548  18.946  0.00  0.00    +0.000 C 
ENDBRANCH   1   8
BRANCH   1  12
ATOM     12  C   UNL     1       4.776   6.646  16.851  0.00  0.00    +0.000 C 
BRANCH  12  13
ATOM     13  C   UNL     1       5.250   5.993  15.539  0.00  0.00    +0.000 C 
ATOM     14  O   UNL     1       5.339   6.654  14.503  0.00  0.00    +0.000 OA
ATOM     15  N   UNL     1       5.605   4.654  15.585  0.00  0.00    +0.000 N 
ATOM     16  H   UNL     1       5.705   4.239  16.505  0.00  0.00    +0.000 HD
BRANCH  15  17
ATOM     17  C   UNL     1       6.163   3.974  14.431  0.00  0.00    +0.000 C 
ATOM     18  C   UNL     1       5.136   3.665  13.341  0.00  0.00    +0.000 C 
ATOM     19  C   UNL     1       5.989   3.363  12.109  0.00  0.00    +0.000 C 
ATOM     20  C   UNL     1       7.300   4.122  12.313  0.00  0.00    +0.000 C 
ATOM     21  C   UNL     1       7.188   4.812  13.672  0.00  0.00    +0.000 C 
ENDBRANCH  15  17
ENDBRANCH  12  13
ENDBRANCH   1  12
BRANCH   2  22
ATOM     22  C   UNL     1       7.615   6.605  17.746  0.00  0.00    +0.000 C 
BRANCH  22  23
ATOM     23  C   UNL     1       7.489   8.134  17.882  0.00  0.00    +0.000 C 
BRANCH  23  24
ATOM     24  C   UNL     1       8.656   8.802  18.619  0.00  0.00    +0.000 C 
BRANCH  24  25
ATOM     25  C   UNL     1       8.830  10.234  18.159  0.00  0.00    +0.000 C 
ATOM     26  O   UNL     1       7.914  10.825  17.593  0.00  0.00    +0.000 OA
ATOM     27  N   UNL     1      10.058  10.776  18.470  0.00  0.00    +0.000 N 
ATOM     28  C   UNL     1      10.390  12.090  18.129  0.00  0.00    +0.000 A 
ATOM     29  C   UNL     1       9.518  13.148  18.359  0.00  0.00    +0.000 A 
ATOM     30  C   UNL     1       9.895  14.423  17.947  0.00  0.00    +0.000 A 
ATOM     31  C   UNL     1      11.109  14.590  17.295  0.00  0.00    +0.000 A 
ATOM     32  C   UNL     1      11.922  13.480  17.134  0.00  0.00    +0.000 A 
ATOM     33  N   UNL     1      11.609  12.242  17.578  0.00  0.00    +0.000 NA
ATOM     34  H   UNL     1      10.856  10.157  18.455  0.00  0.00    +0.000 HD
ENDBRANCH  24  25
ENDBRANCH  23  24
ENDBRANCH  22  23
ENDBRANCH   2  22
TORSDOF 8
ENDMDL
MODEL 5
REMARK VINA RESULT:      -8.3      1.294      1.503
REMARK  Name = 
REMARK  10 active torsions:
REMARK  status: ('A' for Active; 'I' for Inactive)
REMARK    1  A    between atoms: C_1  and  C_2
REMARK    2  A    between atoms: C_5  and  N_6
REMARK    3  A    between atoms: N_6  and  C_7
REMARK    4  A    between atoms: C_7  and  C_8
REMARK    5  A    between atoms: N_10  and  C_11
REMARK    6  A    between atoms: C_16  and  C_18
REMARK    7  A    between atoms: C_18  and  C_19
REMARK    8  A    between atoms: C_19  and  C_20
REMARK    9  A    between atoms: C_20  and  C_21
REMARK   10  A    between atoms: C_31  and  C_32
REMARK                            x       y       z     vdW  Elec       q    Type
REMARK                         _______ _______ _______ _____ _____    ______ ____
ROOT
ATOM      1  N   UNL     1       5.443   5.945  18.045  0.00  0.00    +0.000 N 
ATOM      2  C   UNL     1       6.798   5.679  18.284  0.00  0.00    +0.000 C 
ATOM      3  O   UNL     1       7.179   4.752  19.007  0.00  0.00    +0.000 OA
ENDROOT
BRANCH   1   8
ATOM      4  C   UNL     1       1.426   2.201  19.775  0.00  0.00    +0.000 C 
ATOM      5  C   UNL     1       2.498   3.189  19.401  0.00  0.00    +0.000 A 
ATOM      6  C   UNL     1       3.492   2.803  18.490  0.00  0.00    +0.000 A 
ATOM      7  C   UNL     1       4.456   3.713  18.053  0.00  0.00    +0.000 A 
ATOM      8  C   UNL     1       4.481   5.016  18.552  0.00  0.00    +0.000 A 
ATOM      9  C   UNL     1       3.508   5.405  19.485  0.00  0.00    +0.000 A 
ATOM     10  C   UNL     1       2.496   4.510  19.894  0.00  0.00    +0.000 A 
ATOM     11  C   UNL     1       1.375   5.003  20.771  0.00  0.00    +0.000 C 
ENDBRANCH   1   8
BRANCH   1  12
ATOM     12  C   UNL     1       4.948   6.976  17.118  0.00  0.00    +0.000 C 
BRANCH  12  13
ATOM     13  C   UNL     1       5.054   6.626  15.622  0.00  0.00    +0.000 C 
ATOM     14  O   UNL     1       4.745   7.448  14.758  0.00  0.00    +0.000 OA
ATOM     15  N   UNL     1       5.545   5.371  15.295  0.00  0.00    +0.000 N 
ATOM     16  H   UNL     1       5.970   4.836  16.044  0.00  0.00    +0.000 HD
BRANCH  15  17
ATOM     17  C   UNL     1       5.782   4.982  13.917  0.00  0.00    +0.000 C 
ATOM     18  C   UNL     1       7.261   4.811  13.570  0.00  0.00    +0.000 C 
ATOM     19  C   UNL     1       7.242   4.018  12.263  0.00  0.00    +0.000 C 
ATOM     20  C   UNL     1       5.934   3.227  12.275  0.00  0.00    +0.000 C 
ATOM     21  C   UNL     1       5.214   3.610  13.567  0.00  0.00    +0.000 C 
ENDBRANCH  15  17
ENDBRANCH  12  13
ENDBRANCH   1  12
BRANCH   2  22
ATOM     22  C   UNL     1       7.848   6.601  17.674  0.00  0.00    +0.000 C 
BRANCH  22  23
ATOM     23  C   UNL     1       8.175   7.811  18.571  0.00  0.00    +0.000 C 
BRANCH  23  24
ATOM     24  C   UNL     1       8.191   9.157  17.838  0.00  0.00    +0.000 C 
BRANCH  24  25
ATOM     25  C   UNL     1       9.005  10.175  18.607  0.00  0.00    +0.000 C 
ATOM     26  O   UNL     1       9.569   9.865  19.653  0.00  0.00    +0.000 OA
ATOM     27  N   UNL     1       9.064  11.414  18.006  0.00  0.00    +0.000 N 
ATOM     28  C   UNL     1       9.778  12.473  18.571  0.00  0.00    +0.000 A 
ATOM     29  C   UNL     1      11.068  12.307  19.063  0.00  0.00    +0.000 A 
ATOM     30  C   UNL     1      11.698  13.395  19.659  0.00  0.00    +0.000 A 
ATOM     31  C   UNL     1      11.011  14.596  19.771  0.00  0.00    +0.000 A 
ATOM     32  C   UNL     1       9.738  14.673  19.228  0.00  0.00    +0.000 A 
ATOM     33  N   UNL     1       9.125  13.651  18.590  0.00  0.00    +0.000 NA
ATOM     34  H   UNL     1       8.247  11.723  17.497  0.00  0.00    +0.000 HD
ENDBRANCH  24  25
ENDBRANCH  23  24
ENDBRANCH  22  23
ENDBRANCH   2  22
TORSDOF 8
ENDMDL
MODEL 6
REMARK VINA RESULT:      -8.1      2.678      4.987
REMARK  Name = 
REMARK  10 active torsions:
REMARK  status: ('A' for Active; 'I' for Inactive)
REMARK    1  A    between atoms: C_1  and  C_2
REMARK    2  A    between atoms: C_5  and  N_6
REMARK    3  A    between atoms: N_6  and  C_7
REMARK    4  A    between atoms: C_7  and  C_8
REMARK    5  A    between atoms: N_10  and  C_11
REMARK    6  A    between atoms: C_16  and  C_18
REMARK    7  A    between atoms: C_18  and  C_19
REMARK    8  A    between atoms: C_19  and  C_20
REMARK    9  A    between atoms: C_20  and  C_21
REMARK   10  A    between atoms: C_31  and  C_32
REMARK                            x       y       z     vdW  Elec       q    Type
REMARK                         _______ _______ _______ _____ _____    ______ ____
ROOT
ATOM      1  N   UNL     1       4.683   6.091  18.085  0.00  0.00    +0.000 N 
ATOM      2  C   UNL     1       6.022   5.677  18.051  0.00  0.00    +0.000 C 
ATOM      3  O   UNL     1       6.438   4.709  18.695  0.00  0.00    +0.000 OA
ENDROOT
BRANCH   1   8
ATOM      4  C   UNL     1       1.171   2.705  21.141  0.00  0.00    +0.000 C 
ATOM      5  C   UNL     1       2.032   3.592  20.283  0.00  0.00    +0.000 A 
ATOM      6  C   UNL     1       2.475   4.817  20.801  0.00  0.00    +0.000 A 
ATOM      7  C   UNL     1       3.343   5.632  20.072  0.00  0.00    +0.000 A 
ATOM      8  C   UNL     1       3.749   5.267  18.788  0.00  0.00    +0.000 A 
ATOM      9  C   UNL     1       3.289   4.056  18.249  0.00  0.00    +0.000 A 
ATOM     10  C   UNL     1       2.455   3.199  18.998  0.00  0.00    +0.000 A 
ATOM     11  C   UNL     1       2.109   1.837  18.456  0.00  0.00    +0.000 C 
ENDBRANCH   1   8
BRANCH   1  12
ATOM     12  C   UNL     1       4.126   7.177  17.261  0.00  0.00    +0.000 C 
BRANCH  12  13
ATOM     13  C   UNL     1       2.711   7.643  17.652  0.00  0.00    +0.000 C 
ATOM     14  O   UNL     1       1.714   7.038  17.251  0.00  0.00    +0.000 OA
ATOM     15  N   UNL     1       2.610   8.736  18.498  0.00  0.00    +0.000 N 
ATOM     16  H   UNL     1       3.465   9.045  18.949  0.00  0.00    +0.000 HD
BRANCH  15  17
ATOM     17  C   UNL     1       1.329   9.188  19.009  0.00  0.00    +0.000 C 
ATOM     18  C   UNL     1       1.173   9.019  20.520  0.00  0.00    +0.000 C 
ATOM     19  C   UNL     1      -0.013   9.917  20.869  0.00  0.00    +0.000 C 
ATOM     20  C   UNL     1      -0.043  11.004  19.794  0.00  0.00    +0.000 C 
ATOM     21  C   UNL     1       1.100  10.686  18.832  0.00  0.00    +0.000 C 
ENDBRANCH  15  17
ENDBRANCH  12  13
ENDBRANCH   1  12
BRANCH   2  22
ATOM     22  C   UNL     1       7.021   6.485  17.229  0.00  0.00    +0.000 C 
BRANCH  22  23
ATOM     23  C   UNL     1       7.856   7.454  18.088  0.00  0.00    +0.000 C 
BRANCH  23  24
ATOM     24  C   UNL     1       7.856   8.903  17.587  0.00  0.00    +0.000 C 
BRANCH  24  25
ATOM     25  C   UNL     1       8.733   9.772  18.463  0.00  0.00    +0.000 C 
ATOM     26  O   UNL     1       9.217   9.327  19.501  0.00  0.00    +0.000 OA
ATOM     27  N   UNL     1       8.944  11.039  17.964  0.00  0.00    +0.000 N 
ATOM     28  C   UNL     1       9.735  11.973  18.637  0.00  0.00    +0.000 A 
ATOM     29  C   UNL     1      10.978  11.638  19.161  0.00  0.00    +0.000 A 
ATOM     30  C   UNL     1      11.688  12.606  19.863  0.00  0.00    +0.000 A 
ATOM     31  C   UNL     1      11.121  13.861  20.044  0.00  0.00    +0.000 A 
ATOM     32  C   UNL     1       9.889  14.110  19.463  0.00  0.00    +0.000 A 
ATOM     33  N   UNL     1       9.204  13.208  18.725  0.00  0.00    +0.000 NA
ATOM     34  H   UNL     1       8.185  11.468  17.452  0.00  0.00    +0.000 HD
ENDBRANCH  24  25
ENDBRANCH  23  24
ENDBRANCH  22  23
ENDBRANCH   2  22
TORSDOF 8
ENDMDL
MODEL 7
REMARK VINA RESULT:      -8.1      1.225      1.837
REMARK  Name = 
REMARK  10 active torsions:
REMARK  status: ('A' for Active; 'I' for Inactive)
REMARK    1  A    between atoms: C_1  and  C_2
REMARK    2  A    between atoms: C_5  and  N_6
REMARK    3  A    between atoms: N_6  and  C_7
REMARK    4  A    between atoms: C_7  and  C_8
REMARK    5  A    between atoms: N_10  and  C_11
REMARK    6  A    between atoms: C_16  and  C_18
REMARK    7  A    between atoms: C_18  and  C_19
REMARK    8  A    between atoms: C_19  and  C_20
REMARK    9  A    between atoms: C_20  and  C_21
REMARK   10  A    between atoms: C_31  and  C_32
REMARK                            x       y       z     vdW  Elec       q    Type
REMARK                         _______ _______ _______ _____ _____    ______ ____
ROOT
ATOM      1  N   UNL     1       5.580   6.153  17.824  0.00  0.00    +0.000 N 
ATOM      2  C   UNL     1       6.844   6.463  18.342  0.00  0.00    +0.000 C 
ATOM      3  O   UNL     1       7.166   6.215  19.509  0.00  0.00    +0.000 OA
ENDROOT
BRANCH   1   8
ATOM      4  C   UNL     1       2.089   3.307  21.410  0.00  0.00    +0.000 C 
ATOM      5  C   UNL     1       2.987   3.994  20.415  0.00  0.00    +0.000 A 
ATOM      6  C   UNL     1       2.728   5.329  20.074  0.00  0.00    +0.000 A 
ATOM      7  C   UNL     1       3.582   6.029  19.220  0.00  0.00    +0.000 A 
ATOM      8  C   UNL     1       4.688   5.398  18.648  0.00  0.00    +0.000 A 
ATOM      9  C   UNL     1       4.941   4.055  18.962  0.00  0.00    +0.000 A 
ATOM     10  C   UNL     1       4.114   3.352  19.865  0.00  0.00    +0.000 A 
ATOM     11  C   UNL     1       4.502   1.965  20.305  0.00  0.00    +0.000 C 
ENDBRANCH   1   8
BRANCH   1  12
ATOM     12  C   UNL     1       5.187   6.343  16.417  0.00  0.00    +0.000 C 
BRANCH  12  13
ATOM     13  C   UNL     1       5.362   5.110  15.511  0.00  0.00    +0.000 C 
ATOM     14  O   UNL     1       4.606   4.142  15.610  0.00  0.00    +0.000 OA
ATOM     15  N   UNL     1       6.371   5.155  14.561  0.00  0.00    +0.000 N 
ATOM     16  H   UNL     1       6.808   6.056  14.400  0.00  0.00    +0.000 HD
BRANCH  15  17
ATOM     17  C   UNL     1       6.550   4.091  13.590  0.00  0.00    +0.000 C 
ATOM     18  C   UNL     1       5.249   3.623  12.940  0.00  0.00    +0.000 C 
ATOM     19  C   UNL     1       5.712   2.850  11.706  0.00  0.00    +0.000 C 
ATOM     20  C   UNL     1       7.072   3.439  11.331  0.00  0.00    +0.000 C 
ATOM     21  C   UNL     1       7.377   4.510  12.378  0.00  0.00    +0.000 C 
ENDBRANCH  15  17
ENDBRANCH  12  13
ENDBRANCH   1  12
BRANCH   2  22
ATOM     22  C   UNL     1       7.849   7.184  17.450  0.00  0.00    +0.000 C 
BRANCH  22  23
ATOM     23  C   UNL     1       7.950   8.690  17.759  0.00  0.00    +0.000 C 
BRANCH  23  24
ATOM     24  C   UNL     1       8.785   9.027  18.999  0.00  0.00    +0.000 C 
BRANCH  24  25
ATOM     25  C   UNL     1       9.375  10.417  18.886  0.00  0.00    +0.000 C 
ATOM     26  O   UNL     1      10.438  10.692  19.435  0.00  0.00    +0.000 OA
ATOM     27  N   UNL     1       8.634  11.277  18.105  0.00  0.00    +0.000 N 
ATOM     28  C   UNL     1       9.032  12.598  17.884  0.00  0.00    +0.000 A 
ATOM     29  C   UNL     1      10.341  12.921  17.543  0.00  0.00    +0.000 A 
ATOM     30  C   UNL     1      10.677  14.262  17.388  0.00  0.00    +0.000 A 
ATOM     31  C   UNL     1       9.707  15.231  17.608  0.00  0.00    +0.000 A 
ATOM     32  C   UNL     1       8.424  14.812  17.919  0.00  0.00    +0.000 A 
ATOM     33  N   UNL     1       8.055  13.514  18.016  0.00  0.00    +0.000 NA
ATOM     34  H   UNL     1       7.629  11.171  18.122  0.00  0.00    +0.000 HD
ENDBRANCH  24  25
ENDBRANCH  23  24
ENDBRANCH  22  23
ENDBRANCH   2  22
TORSDOF 8
ENDMDL
MODEL 8
REMARK VINA RESULT:      -8.1      5.756     10.401
REMARK  Name = 
REMARK  10 active torsions:
REMARK  status: ('A' for Active; 'I' for Inactive)
REMARK    1  A    between atoms: C_1  and  C_2
REMARK    2  A    between atoms: C_5  and  N_6
REMARK    3  A    between atoms: N_6  and  C_7
REMARK    4  A    between atoms: C_7  and  C_8
REMARK    5  A    between atoms: N_10  and  C_11
REMARK    6  A    between atoms: C_16  and  C_18
REMARK    7  A    between atoms: C_18  and  C_19
REMARK    8  A    between atoms: C_19  and  C_20
REMARK    9  A    between atoms: C_20  and  C_21
REMARK   10  A    between atoms: C_31  and  C_32
REMARK                            x       y       z     vdW  Elec       q    Type
REMARK                         _______ _______ _______ _____ _____    ______ ____
ROOT
ATOM      1  N   UNL     1       0.493   8.648  20.684  0.00  0.00    +0.000 N 
ATOM      2  C   UNL     1       1.540   7.807  20.284  0.00  0.00    +0.000 C 
ATOM      3  O   UNL     1       2.249   8.045  19.301  0.00  0.00    +0.000 OA
ENDROOT
BRANCH   1   8
ATOM      4  C   UNL     1      -0.193  13.813  18.236  0.00  0.00    +0.000 C 
ATOM      5  C   UNL     1      -0.011  12.430  18.801  0.00  0.00    +0.000 A 
ATOM      6  C   UNL     1       1.074  12.180  19.653  0.00  0.00    +0.000 A 
ATOM      7  C   UNL     1       1.234  10.936  20.264  0.00  0.00    +0.000 A 
ATOM      8  C   UNL     1       0.341   9.896  20.001  0.00  0.00    +0.000 A 
ATOM      9  C   UNL     1      -0.733  10.127  19.129  0.00  0.00    +0.000 A 
ATOM     10  C   UNL     1      -0.935  11.397  18.546  0.00  0.00    +0.000 A 
ATOM     11  C   UNL     1      -2.182  11.658  17.744  0.00  0.00    +0.000 C 
ENDBRANCH   1   8
BRANCH   1  12
ATOM     12  C   UNL     1      -0.313   8.453  21.901  0.00  0.00    +0.000 C 
BRANCH  12  13
ATOM     13  C   UNL     1      -0.408   9.676  22.833  0.00  0.00    +0.000 C 
ATOM     14  O   UNL     1       0.358   9.800  23.791  0.00  0.00    +0.000 OA
ATOM     15  N   UNL     1      -1.357  10.639  22.527  0.00  0.00    +0.000 N 
ATOM     16  H   UNL     1      -1.800  10.571  21.617  0.00  0.00    +0.000 HD
BRANCH  15  17
ATOM     17  C   UNL     1      -1.456  11.876  23.279  0.00  0.00    +0.000 C 
ATOM     18  C   UNL     1      -0.839  13.081  22.570  0.00  0.00    +0.000 C 
ATOM     19  C   UNL     1      -1.421  14.283  23.313  0.00  0.00    +0.000 C 
ATOM     20  C   UNL     1      -2.756  13.809  23.889  0.00  0.00    +0.000 C 
ATOM     21  C   UNL     1      -2.894  12.339  23.497  0.00  0.00    +0.000 C 
ENDBRANCH  15  17
ENDBRANCH  12  13
ENDBRANCH   1  12
BRANCH   2  22
ATOM     22  C   UNL     1       1.783   6.516  21.058  0.00  0.00    +0.000 C 
BRANCH  22  23
ATOM     23  C   UNL     1       1.088   5.297  20.421  0.00  0.00    +0.000 C 
BRANCH  23  24
ATOM     24  C   UNL     1       2.025   4.125  20.108  0.00  0.00    +0.000 C 
BRANCH  24  25
ATOM     25  C   UNL     1       2.961   4.477  18.972  0.00  0.00    +0.000 C 
ATOM     26  O   UNL     1       2.552   4.519  17.814  0.00  0.00    +0.000 OA
ATOM     27  N   UNL     1       4.247   4.766  19.374  0.00  0.00    +0.000 N 
ATOM     28  C   UNL     1       5.242   5.119  18.460  0.00  0.00    +0.000 A 
ATOM     29  C   UNL     1       5.016   6.054  17.456  0.00  0.00    +0.000 A 
ATOM     30  C   UNL     1       6.039   6.318  16.549  0.00  0.00    +0.000 A 
ATOM     31  C   UNL     1       7.234   5.620  16.658  0.00  0.00    +0.000 A 
ATOM     32  C   UNL     1       7.376   4.727  17.707  0.00  0.00    +0.000 A 
ATOM     33  N   UNL     1       6.423   4.495  18.637  0.00  0.00    +0.000 NA
ATOM     34  H   UNL     1       4.611   4.257  20.168  0.00  0.00    +0.000 HD
ENDBRANCH  24  25
ENDBRANCH  23  24
ENDBRANCH  22  23
ENDBRANCH   2  22
TORSDOF 8
ENDMDL
MODEL 9
REMARK VINA RESULT:      -7.9      5.817     10.550
REMARK  Name = 
REMARK  10 active torsions:
REMARK  status: ('A' for Active; 'I' for Inactive)
REMARK    1  A    between atoms: C_1  and  C_2
REMARK    2  A    between atoms: C_5  and  N_6
REMARK    3  A    between atoms: N_6  and  C_7
REMARK    4  A    between atoms: C_7  and  C_8
REMARK    5  A    between atoms: N_10  and  C_11
REMARK    6  A    between atoms: C_16  and  C_18
REMARK    7  A    between atoms: C_18  and  C_19
REMARK    8  A    between atoms: C_19  and  C_20
REMARK    9  A    between atoms: C_20  and  C_21
REMARK   10  A    between atoms: C_31  and  C_32
REMARK                            x       y       z     vdW  Elec       q    Type
REMARK                         _______ _______ _______ _____ _____    ______ ____
ROOT
ATOM      1  N   UNL     1       0.477   8.741  20.683  0.00  0.00    +0.000 N 
ATOM      2  C   UNL     1       1.535   7.912  20.288  0.00  0.00    +0.000 C 
ATOM      3  O   UNL     1       2.265   8.174  19.326  0.00  0.00    +0.000 OA
ENDROOT
BRANCH   1   8
ATOM      4  C   UNL     1      -0.179  13.956  18.336  0.00  0.00    +0.000 C 
ATOM      5  C   UNL     1      -0.001  12.562  18.874  0.00  0.00    +0.000 A 
ATOM      6  C   UNL     1       1.052  12.304  19.763  0.00  0.00    +0.000 A 
ATOM      7  C   UNL     1       1.203  11.047  20.350  0.00  0.00    +0.000 A 
ATOM      8  C   UNL     1       0.336  10.003  20.025  0.00  0.00    +0.000 A 
ATOM      9  C   UNL     1      -0.705  10.242  19.116  0.00  0.00    +0.000 A 
ATOM     10  C   UNL     1      -0.900  11.524  18.557  0.00  0.00    +0.000 A 
ATOM     11  C   UNL     1      -2.118  11.789  17.711  0.00  0.00    +0.000 C 
ENDBRANCH   1   8
BRANCH   1  12
ATOM     12  C   UNL     1      -0.355   8.516  21.877  0.00  0.00    +0.000 C 
BRANCH  12  13
ATOM     13  C   UNL     1      -0.470   9.715  22.838  0.00  0.00    +0.000 C 
ATOM     14  O   UNL     1       0.339   9.867  23.756  0.00  0.00    +0.000 OA
ATOM     15  N   UNL     1      -1.488  10.626  22.601  0.00  0.00    +0.000 N 
ATOM     16  H   UNL     1      -1.974  10.548  21.715  0.00  0.00    +0.000 HD
BRANCH  15  17
ATOM     17  C   UNL     1      -1.616  11.842  23.383  0.00  0.00    +0.000 C 
ATOM     18  C   UNL     1      -0.979  13.067  22.727  0.00  0.00    +0.000 C 
ATOM     19  C   UNL     1      -1.590  14.247  23.483  0.00  0.00    +0.000 C 
ATOM     20  C   UNL     1      -2.942  13.756  24.000  0.00  0.00    +0.000 C 
ATOM     21  C   UNL     1      -3.062  12.296  23.564  0.00  0.00    +0.000 C 
ENDBRANCH  15  17
ENDBRANCH  12  13
ENDBRANCH   1  12
BRANCH   2  22
ATOM     22  C   UNL     1       1.765   6.604  21.037  0.00  0.00    +0.000 C 
BRANCH  22  23
ATOM     23  C   UNL     1       1.580   5.362  20.144  0.00  0.00    +0.000 C 
BRANCH  23  24
ATOM     24  C   UNL     1       2.719   4.340  20.237  0.00  0.00    +0.000 C 
BRANCH  24  25
ATOM     25  C   UNL     1       3.874   4.743  19.346  0.00  0.00    +0.000 C 
ATOM     26  O   UNL     1       4.574   5.712  19.629  0.00  0.00    +0.000 OA
ATOM     27  N   UNL     1       4.059   3.915  18.260  0.00  0.00    +0.000 N 
ATOM     28  C   UNL     1       5.083   4.132  17.336  0.00  0.00    +0.000 A 
ATOM     29  C   UNL     1       6.385   4.409  17.737  0.00  0.00    +0.000 A 
ATOM     30  C   UNL     1       7.343   4.665  16.760  0.00  0.00    +0.000 A 
ATOM     31  C   UNL     1       6.963   4.664  15.425  0.00  0.00    +0.000 A 
ATOM     32  C   UNL     1       5.648   4.352  15.121  0.00  0.00    +0.000 A 
ATOM     33  N   UNL     1       4.711   4.040  16.045  0.00  0.00    +0.000 NA
ATOM     34  H   UNL     1       3.234   3.510  17.839  0.00  0.00    +0.000 HD
ENDBRANCH  24  25
ENDBRANCH  23  24
ENDBRANCH  22  23
ENDBRANCH   2  22
TORSDOF 8
ENDMDL
