MODEL 1
REMARK VINA RESULT:      -7.3      0.000      0.000
REMARK  Name = 
REMARK  5 active torsions:
REMARK  status: ('A' for Active; 'I' for Inactive)
REMARK    1  A    between atoms: C_1  and  C_2
REMARK    2  A    between atoms: C_2  and  O_3
REMARK    3  A    between atoms: C_2  and  C_10
REMARK    4  A    between atoms: O_3  and  C_4
REMARK    5  A    between atoms: N_12  and  C_13
REMARK                            x       y       z     vdW  Elec       q    Type
REMARK                         _______ _______ _______ _____ _____    ______ ____
ROOT
ATOM      1  C   UNL     1       5.971   5.097  17.739  0.00  0.00    +0.000 C 
ATOM      2  O   UNL     1       6.668   4.474  18.538  0.00  0.00    +0.000 OA
ATOM      3  N   UNL     1       4.587   5.117  17.738  0.00  0.00    +0.000 N 
ATOM      4  H   UNL     1       4.143   5.526  16.920  0.00  0.00    +0.000 HD
ENDROOT
BRANCH   3   5
ATOM      5  C   UNL     1       3.766   4.524  18.725  0.00  0.00    +0.000 A 
ATOM      6  C   UNL     1       3.245   5.247  19.806  0.00  0.00    +0.000 A 
ATOM      7  C   UNL     1       2.459   4.628  20.780  0.00  0.00    +0.000 A 
ATOM      8  C   UNL     1       2.178   3.273  20.676  0.00  0.00    +0.000 A 
ATOM      9 CL   UNL     1       1.225   2.507  21.884  0.00  0.00    +0.000 Cl
ATOM     10  C   UNL     1       2.664   2.540  19.594  0.00  0.00    +0.000 A 
ATOM     11  C   UNL     1       3.449   3.166  18.614  0.00  0.00    +0.000 A 
ENDBRANCH   3   5
BRANCH   1  13
ATOM     12  C   UNL     1       7.328   7.122  17.282  0.00  0.00    +0.000 C 
ATOM     13  C   UNL     1       6.662   5.909  16.636  0.00  0.00    +0.000 C 
BRANCH  13  14
ATOM     14  O   UNL     1       7.615   5.167  15.878  0.00  0.00    +0.000 OA
BRANCH  14  15
ATOM     15  C   UNL     1       7.243   4.779  14.614  0.00  0.00    +0.000 A 
ATOM     16  C   UNL     1       6.115   3.956  14.545  0.00  0.00    +0.000 A 
ATOM     17  C   UNL     1       5.633   3.509  13.311  0.00  0.00    +0.000 A 
ATOM     18  C   UNL     1       6.269   3.891  12.132  0.00  0.00    +0.000 A 
ATOM     19  C   UNL     1       7.380   4.726  12.189  0.00  0.00    +0.000 A 
ATOM     20  C   UNL     1       7.862   5.171  13.424  0.00  0.00    +0.000 A 
ENDBRANCH  14  15
ENDBRANCH  13  14
ENDBRANCH   1  13
TORSDOF 4
ENDMDL
MODEL 2
REMARK VINA RESULT:      -7.2      0.272      1.135
REMARK  Name = 
REMARK  5 active torsions:
REMARK  status: ('A' for Active; 'I' for Inactive)
REMARK    1  A    between atoms: C_1  and  C_2
REMARK    2  A    between atoms: C_2  and  O_3
REMARK    3  A    between atoms: C_2  and  C_10
REMARK    4  A    between atoms: O_3  and  C_4
REMARK    5  A    between atoms: N_12  and  C_13
REMARK                            x       y       z     vdW  Elec       q    Type
REMARK                         _______ _______ _______ _____ _____    ______ ____
ROOT
ATOM      1  C   UNL     1       5.960   5.271  17.653  0.00  0.00    +0.000 C 
ATOM      2  O   UNL     1       6.610   4.431  18.273  0.00  0.00    +0.000 OA
ATOM      3  N   UNL     1       4.594   5.461  17.763  0.00  0.00    +0.000 N 
ATOM      4  H   UNL     1       4.165   6.064  17.067  0.00  0.00    +0.000 HD
ENDROOT
BRANCH   3   5
ATOM      5  C   UNL     1       3.756   4.803  18.693  0.00  0.00    +0.000 A 
ATOM      6  C   UNL     1       3.406   5.369  19.926  0.00  0.00    +0.000 A 
ATOM      7  C   UNL     1       2.599   4.684  20.835  0.00  0.00    +0.000 A 
ATOM      8  C   UNL     1       2.122   3.421  20.513  0.00  0.00    +0.000 A 
ATOM      9 CL   UNL     1       1.142   2.569  21.640  0.00  0.00    +0.000 Cl
ATOM     10  C   UNL     1       2.436   2.849  19.281  0.00  0.00    +0.000 A 
ATOM     11  C   UNL     1       3.244   3.543  18.367  0.00  0.00    +0.000 A 
ENDBRANCH   3   5
BRANCH   1  13
ATOM     12  C   UNL     1       7.422   7.265  17.449  0.00  0.00    +0.000 C 
ATOM     13  C   UNL     1       6.694   6.181  16.658  0.00  0.00    +0.000 C 
BRANCH  13  14
ATOM     14  O   UNL     1       7.607   5.493  15.806  0.00  0.00    +0.000 OA
BRANCH  14  15
ATOM     15  C   UNL     1       7.089   4.916  14.671  0.00  0.00    +0.000 A 
ATOM     16  C   UNL     1       7.802   5.160  13.494  0.00  0.00    +0.000 A 
ATOM     17  C   UNL     1       7.380   4.614  12.278  0.00  0.00    +0.000 A 
ATOM     18  C   UNL     1       6.244   3.808  12.230  0.00  0.00    +0.000 A 
ATOM     19  C   UNL     1       5.540   3.544  13.400  0.00  0.00    +0.000 A 
ATOM     20  C   UNL     1       5.963   4.091  14.615  0.00  0.00    +0.000 A 
ENDBRANCH  14  15
ENDBRANCH  13  14
ENDBRANCH   1  13
TORSDOF 4
ENDMDL
MODEL 3
REMARK VINA RESULT:      -7.2      0.179      1.116
REMARK  Name = 
REMARK  5 active torsions:
REMARK  status: ('A' for Active; 'I' for Inactive)
REMARK    1  A    between atoms: C_1  and  C_2
REMARK    2  A    between atoms: C_2  and  O_3
REMARK    3  A    between atoms: C_2  and  C_10
REMARK    4  A    between atoms: O_3  and  C_4
REMARK    5  A    between atoms: N_12  and  C_13
REMARK                            x       y       z     vdW  Elec       q    Type
REMARK                         _______ _______ _______ _____ _____    ______ ____
ROOT
ATOM      1  C   UNL     1       5.890   5.174  17.679  0.00  0.00    +0.000 C 
ATOM      2  O   UNL     1       6.650   4.505  18.377  0.00  0.00    +0.000 OA
ATOM      3  N   UNL     1       4.511   5.182  17.786  0.00  0.00    +0.000 N 
ATOM      4  H   UNL     1       4.003   5.641  17.035  0.00  0.00    +0.000 HD
ENDROOT
BRANCH   3   5
ATOM      5  C   UNL     1       3.771   4.516  18.791  0.00  0.00    +0.000 A 
ATOM      6  C   UNL     1       3.594   3.126  18.801  0.00  0.00    +0.000 A 
ATOM      7  C   UNL     1       2.836   2.499  19.791  0.00  0.00    +0.000 A 
ATOM      8  C   UNL     1       2.251   3.261  20.793  0.00  0.00    +0.000 A 
ATOM      9 CL   UNL     1       1.302   2.492  22.002  0.00  0.00    +0.000 Cl
ATOM     10  C   UNL     1       2.435   4.643  20.818  0.00  0.00    +0.000 A 
ATOM     11  C   UNL     1       3.203   5.269  19.824  0.00  0.00    +0.000 A 
ENDBRANCH   3   5
BRANCH   1  13
ATOM     12  C   UNL     1       6.999   7.349  17.237  0.00  0.00    +0.000 C 
ATOM     13  C   UNL     1       6.491   6.065  16.584  0.00  0.00    +0.000 C 
BRANCH  13  14
ATOM     14  O   UNL     1       7.534   5.444  15.836  0.00  0.00    +0.000 OA
BRANCH  14  15
ATOM     15  C   UNL     1       7.207   4.951  14.596  0.00  0.00    +0.000 A 
ATOM     16  C   UNL     1       6.097   4.102  14.561  0.00  0.00    +0.000 A 
ATOM     17  C   UNL     1       5.660   3.550  13.353  0.00  0.00    +0.000 A 
ATOM     18  C   UNL     1       6.323   3.852  12.166  0.00  0.00    +0.000 A 
ATOM     19  C   UNL     1       7.416   4.712  12.188  0.00  0.00    +0.000 A 
ATOM     20  C   UNL     1       7.853   5.263  13.397  0.00  0.00    +0.000 A 
ENDBRANCH  14  15
ENDBRANCH  13  14
ENDBRANCH   1  13
TORSDOF 4
ENDMDL
MODEL 4
REMARK VINA RESULT:      -7.1      1.038      1.839
REMARK  Name = 
REMARK  5 active torsions:
REMARK  status: ('A' for Active; 'I' for Inactive)
REMARK    1  A    between atoms: C_1  and  C_2
REMARK    2  A    between atoms: C_2  and  O_3
REMARK    3  A    between atoms: C_2  and  C_10
REMARK    4  A    between atoms: O_3  and  C_4
REMARK    5  A    between atoms: N_12  and  C_13
REMARK                            x       y       z     vdW  Elec       q    Type
REMARK                         _______ _______ _______ _____ _____    ______ ____
ROOT
ATOM      1  C   UNL     1       5.480   6.004  17.157  0.00  0.00    +0.000 C 
ATOM      2  O   UNL     1       4.390   6.237  16.638  0.00  0.00    +0.000 OA
ATOM      3  N   UNL     1       5.664   5.333  18.354  0.00  0.00    +0.000 N 
ATOM      4  H   UNL     1       6.599   5.367  18.750  0.00  0.00    +0.000 HD
ENDROOT
BRANCH   3   5
ATOM      5  C   UNL     1       4.638   4.709  19.100  0.00  0.00    +0.000 A 
ATOM      6  C   UNL     1       4.581   3.322  19.291  0.00  0.00    +0.000 A 
ATOM      7  C   UNL     1       3.540   2.731  20.010  0.00  0.00    +0.000 A 
ATOM      8  C   UNL     1       2.545   3.529  20.557  0.00  0.00    +0.000 A 
ATOM      9 CL   UNL     1       1.254   2.801  21.427  0.00  0.00    +0.000 Cl
ATOM     10  C   UNL     1       2.595   4.914  20.402  0.00  0.00    +0.000 A 
ATOM     11  C   UNL     1       3.645   5.505  19.683  0.00  0.00    +0.000 A 
ENDBRANCH   3   5
BRANCH   1  13
ATOM     12  C   UNL     1       7.559   7.324  17.455  0.00  0.00    +0.000 C 
ATOM     13  C   UNL     1       6.751   6.500  16.455  0.00  0.00    +0.000 C 
BRANCH  13  14
ATOM     14  O   UNL     1       7.557   5.458  15.907  0.00  0.00    +0.000 OA
BRANCH  14  15
ATOM     15  C   UNL     1       7.155   4.923  14.707  0.00  0.00    +0.000 A 
ATOM     16  C   UNL     1       7.836   5.396  13.581  0.00  0.00    +0.000 A 
ATOM     17  C   UNL     1       7.524   4.914  12.306  0.00  0.00    +0.000 A 
ATOM     18  C   UNL     1       6.535   3.946  12.146  0.00  0.00    +0.000 A 
ATOM     19  C   UNL     1       5.866   3.456  13.262  0.00  0.00    +0.000 A 
ATOM     20  C   UNL     1       6.178   3.939  14.537  0.00  0.00    +0.000 A 
ENDBRANCH  14  15
ENDBRANCH  13  14
ENDBRANCH   1  13
TORSDOF 4
ENDMDL
MODEL 5
REMARK VINA RESULT:      -6.9      3.554      5.326
REMARK  Name = 
REMARK  5 active torsions:
REMARK  status: ('A' for Active; 'I' for Inactive)
REMARK    1  A    between atoms: C_1  and  C_2
REMARK    2  A    between atoms: C_2  and  O_3
REMARK    3  A    between atoms: C_2  and  C_10
REMARK    4  A    between atoms: O_3  and  C_4
REMARK    5  A    between atoms: N_12  and  C_13
REMARK                            x       y       z     vdW  Elec       q    Type
REMARK                         _______ _______ _______ _____ _____    ______ ____
ROOT
ATOM      1  C   UNL     1       2.832   5.291  18.152  0.00  0.00    +0.000 C 
ATOM      2  O   UNL     1       1.702   5.030  17.743  0.00  0.00    +0.000 OA
ATOM      3  N   UNL     1       3.224   6.506  18.686  0.00  0.00    +0.000 N 
ATOM      4  H   UNL     1       4.222   6.640  18.817  0.00  0.00    +0.000 HD
ENDROOT
BRANCH   3   5
ATOM      5  C   UNL     1       2.358   7.591  18.956  0.00  0.00    +0.000 A 
ATOM      6  C   UNL     1       1.816   7.825  20.226  0.00  0.00    +0.000 A 
ATOM      7  C   UNL     1       0.941   8.889  20.457  0.00  0.00    +0.000 A 
ATOM      8  C   UNL     1       0.606   9.740  19.413  0.00  0.00    +0.000 A 
ATOM      9 CL   UNL     1      -0.484  11.039  19.692  0.00  0.00    +0.000 Cl
ATOM     10  C   UNL     1       1.154   9.542  18.146  0.00  0.00    +0.000 A 
ATOM     11  C   UNL     1       2.036   8.474  17.919  0.00  0.00    +0.000 A 
ENDBRANCH   3   5
BRANCH   1  13
ATOM     12  C   UNL     1       3.250   2.899  17.647  0.00  0.00    +0.000 C 
ATOM     13  C   UNL     1       3.917   4.211  18.056  0.00  0.00    +0.000 C 
BRANCH  13  14
ATOM     14  O   UNL     1       4.976   4.529  17.155  0.00  0.00    +0.000 OA
BRANCH  14  15
ATOM     15  C   UNL     1       6.016   5.277  17.653  0.00  0.00    +0.000 A 
ATOM     16  C   UNL     1       6.342   6.418  16.915  0.00  0.00    +0.000 A 
ATOM     17  C   UNL     1       7.374   7.265  17.331  0.00  0.00    +0.000 A 
ATOM     18  C   UNL     1       8.083   6.984  18.497  0.00  0.00    +0.000 A 
ATOM     19  C   UNL     1       7.753   5.861  19.248  0.00  0.00    +0.000 A 
ATOM     20  C   UNL     1       6.721   5.014  18.830  0.00  0.00    +0.000 A 
ENDBRANCH  14  15
ENDBRANCH  13  14
ENDBRANCH   1  13
TORSDOF 4
ENDMDL
MODEL 6
REMARK VINA RESULT:      -6.8      3.692      5.717
REMARK  Name = 
REMARK  5 active torsions:
REMARK  status: ('A' for Active; 'I' for Inactive)
REMARK    1  A    between atoms: C_1  and  C_2
REMARK    2  A    between atoms: C_2  and  O_3
REMARK    3  A    between atoms: C_2  and  C_10
REMARK    4  A    between atoms: O_3  and  C_4
REMARK    5  A    between atoms: N_12  and  C_13
REMARK                            x       y       z     vdW  Elec       q    Type
REMARK                         _______ _______ _______ _____ _____    ______ ____
ROOT
ATOM      1  C   UNL     1       2.044   4.896  20.244  0.00  0.00    +0.000 C 
ATOM      2  O   UNL     1       0.869   4.727  19.922  0.00  0.00    +0.000 OA
ATOM      3  N   UNL     1       2.720   6.101  20.184  0.00  0.00    +0.000 N 
ATOM      4  H   UNL     1       3.727   6.059  20.310  0.00  0.00    +0.000 HD
ENDROOT
BRANCH   3   5
ATOM      5  C   UNL     1       2.133   7.346  19.859  0.00  0.00    +0.000 A 
ATOM      6  C   UNL     1       1.406   8.102  20.787  0.00  0.00    +0.000 A 
ATOM      7  C   UNL     1       0.814   9.315  20.429  0.00  0.00    +0.000 A 
ATOM      8  C   UNL     1       0.953   9.790  19.133  0.00  0.00    +0.000 A 
ATOM      9 CL   UNL     1       0.210  11.275  18.687  0.00  0.00    +0.000 Cl
ATOM     10  C   UNL     1       1.694   9.067  18.199  0.00  0.00    +0.000 A 
ATOM     11  C   UNL     1       2.292   7.851  18.564  0.00  0.00    +0.000 A 
ENDBRANCH   3   5
BRANCH   1  13
ATOM     12  C   UNL     1       1.982   2.897  21.713  0.00  0.00    +0.000 C 
ATOM     13  C   UNL     1       2.852   3.688  20.738  0.00  0.00    +0.000 C 
BRANCH  13  14
ATOM     14  O   UNL     1       3.323   2.838  19.694  0.00  0.00    +0.000 OA
BRANCH  14  15
ATOM     15  C   UNL     1       4.078   3.422  18.706  0.00  0.00    +0.000 A 
ATOM     16  C   UNL     1       5.278   4.000  19.129  0.00  0.00    +0.000 A 
ATOM     17  C   UNL     1       6.137   4.612  18.211  0.00  0.00    +0.000 A 
ATOM     18  C   UNL     1       5.808   4.642  16.857  0.00  0.00    +0.000 A 
ATOM     19  C   UNL     1       4.626   4.052  16.424  0.00  0.00    +0.000 A 
ATOM     20  C   UNL     1       3.767   3.441  17.344  0.00  0.00    +0.000 A 
ENDBRANCH  14  15
ENDBRANCH  13  14
ENDBRANCH   1  13
TORSDOF 4
ENDMDL
MODEL 7
REMARK VINA RESULT:      -6.8      3.554      5.166
REMARK  Name = 
REMARK  5 active torsions:
REMARK  status: ('A' for Active; 'I' for Inactive)
REMARK    1  A    between atoms: C_1  and  C_2
REMARK    2  A    between atoms: C_2  and  O_3
REMARK    3  A    between atoms: C_2  and  C_10
REMARK    4  A    between atoms: O_3  and  C_4
REMARK    5  A    between atoms: N_12  and  C_13
REMARK                            x       y       z     vdW  Elec       q    Type
REMARK                         _______ _______ _______ _____ _____    ______ ____
ROOT
ATOM      1  C   UNL     1       2.644   4.995  19.481  0.00  0.00    +0.000 C 
ATOM      2  O   UNL     1       1.569   4.702  18.960  0.00  0.00    +0.000 OA
ATOM      3  N   UNL     1       3.082   6.283  19.730  0.00  0.00    +0.000 N 
ATOM      4  H   UNL     1       4.057   6.384  19.999  0.00  0.00    +0.000 HD
ENDROOT
BRANCH   3   5
ATOM      5  C   UNL     1       2.313   7.454  19.536  0.00  0.00    +0.000 A 
ATOM      6  C   UNL     1       1.571   8.049  20.565  0.00  0.00    +0.000 A 
ATOM      7  C   UNL     1       0.799   9.189  20.336  0.00  0.00    +0.000 A 
ATOM      8  C   UNL     1       0.770   9.755  19.069  0.00  0.00    +0.000 A 
ATOM      9 CL   UNL     1      -0.194  11.149  18.783  0.00  0.00    +0.000 Cl
ATOM     10  C   UNL     1       1.521   9.196  18.036  0.00  0.00    +0.000 A 
ATOM     11  C   UNL     1       2.300   8.052  18.271  0.00  0.00    +0.000 A 
ENDBRANCH   3   5
BRANCH   1  13
ATOM     12  C   UNL     1       2.819   2.845  20.706  0.00  0.00    +0.000 C 
ATOM     13  C   UNL     1       3.601   3.863  19.879  0.00  0.00    +0.000 C 
BRANCH  13  14
ATOM     14  O   UNL     1       4.233   3.221  18.774  0.00  0.00    +0.000 OA
BRANCH  14  15
ATOM     15  C   UNL     1       5.065   3.991  17.996  0.00  0.00    +0.000 A 
ATOM     16  C   UNL     1       4.718   4.074  16.645  0.00  0.00    +0.000 A 
ATOM     17  C   UNL     1       5.483   4.840  15.759  0.00  0.00    +0.000 A 
ATOM     18  C   UNL     1       6.596   5.540  16.220  0.00  0.00    +0.000 A 
ATOM     19  C   UNL     1       6.937   5.478  17.567  0.00  0.00    +0.000 A 
ATOM     20  C   UNL     1       6.173   4.711  18.452  0.00  0.00    +0.000 A 
ENDBRANCH  14  15
ENDBRANCH  13  14
ENDBRANCH   1  13
TORSDOF 4
ENDMDL
MODEL 8
REMARK VINA RESULT:      -6.8      3.524      5.283
REMARK  Name = 
REMARK  5 active torsions:
REMARK  status: ('A' for Active; 'I' for Inactive)
REMARK    1  A    between atoms: C_1  and  C_2
REMARK    2  A    between atoms: C_2  and  O_3
REMARK    3  A    between atoms: C_2  and  C_10
REMARK    4  A    between atoms: O_3  and  C_4
REMARK    5  A    between atoms: N_12  and  C_13
REMARK                            x       y       z     vdW  Elec       q    Type
REMARK                         _______ _______ _______ _____ _____    ______ ____
ROOT
ATOM      1  C   UNL     1       2.883   5.251  18.361  0.00  0.00    +0.000 C 
ATOM      2  O   UNL     1       1.799   5.000  17.837  0.00  0.00    +0.000 OA
ATOM      3  N   UNL     1       3.236   6.469  18.913  0.00  0.00    +0.000 N 
ATOM      4  H   UNL     1       4.217   6.589  19.149  0.00  0.00    +0.000 HD
ENDROOT
BRANCH   3   5
ATOM      5  C   UNL     1       2.366   7.573  19.067  0.00  0.00    +0.000 A 
ATOM      6  C   UNL     1       1.780   7.906  20.295  0.00  0.00    +0.000 A 
ATOM      7  C   UNL     1       0.903   8.986  20.412  0.00  0.00    +0.000 A 
ATOM      8  C   UNL     1       0.610   9.755  19.294  0.00  0.00    +0.000 A 
ATOM      9 CL   UNL     1      -0.483  11.074  19.432  0.00  0.00    +0.000 Cl
ATOM     10  C   UNL     1       1.202   9.458  18.067  0.00  0.00    +0.000 A 
ATOM     11  C   UNL     1       2.087   8.375  17.955  0.00  0.00    +0.000 A 
ENDBRANCH   3   5
BRANCH   1  13
ATOM     12  C   UNL     1       3.258   2.803  18.217  0.00  0.00    +0.000 C 
ATOM     13  C   UNL     1       3.951   4.151  18.404  0.00  0.00    +0.000 C 
BRANCH  13  14
ATOM     14  O   UNL     1       4.990   4.311  17.440  0.00  0.00    +0.000 OA
BRANCH  14  15
ATOM     15  C   UNL     1       5.959   5.245  17.714  0.00  0.00    +0.000 A 
ATOM     16  C   UNL     1       6.740   4.987  18.844  0.00  0.00    +0.000 A 
ATOM     17  C   UNL     1       7.767   5.860  19.216  0.00  0.00    +0.000 A 
ATOM     18  C   UNL     1       8.030   6.995  18.453  0.00  0.00    +0.000 A 
ATOM     19  C   UNL     1       7.271   7.251  17.316  0.00  0.00    +0.000 A 
ATOM     20  C   UNL     1       6.243   6.377  16.946  0.00  0.00    +0.000 A 
ENDBRANCH  14  15
ENDBRANCH  13  14
ENDBRANCH   1  13
TORSDOF 4
ENDMDL
MODEL 9
REMARK VINA RESULT:      -6.8      3.529      5.341
REMARK  Name = 
REMARK  5 active torsions:
REMARK  status: ('A' for Active; 'I' for Inactive)
REMARK    1  A    between atoms: C_1  and  C_2
REMARK    2  A    between atoms: C_2  and  O_3
REMARK    3  A    between atoms: C_2  and  C_10
REMARK    4  A    between atoms: O_3  and  C_4
REMARK    5  A    between atoms: N_12  and  C_13
REMARK                            x       y       z     vdW  Elec       q    Type
REMARK                         _______ _______ _______ _____ _____    ______ ____
ROOT
ATOM      1  C   UNL     1       2.897   5.308  18.309  0.00  0.00    +0.000 C 
ATOM      2  O   UNL     1       1.857   5.075  17.694  0.00  0.00    +0.000 OA
ATOM      3  N   UNL     1       3.208   6.510  18.920  0.00  0.00    +0.000 N 
ATOM      4  H   UNL     1       4.167   6.620  19.235  0.00  0.00    +0.000 HD
ENDROOT
BRANCH   3   5
ATOM      5  C   UNL     1       2.330   7.612  19.036  0.00  0.00    +0.000 A 
ATOM      6  C   UNL     1       1.989   8.423  17.945  0.00  0.00    +0.000 A 
ATOM      7  C   UNL     1       1.141   9.522  18.095  0.00  0.00    +0.000 A 
ATOM      8  C   UNL     1       0.614   9.816  19.345  0.00  0.00    +0.000 A 
ATOM      9 CL   UNL     1      -0.417  11.178  19.535  0.00  0.00    +0.000 Cl
ATOM     10  C   UNL     1       0.918   9.007  20.440  0.00  0.00    +0.000 A 
ATOM     11  C   UNL     1       1.767   7.900  20.284  0.00  0.00    +0.000 A 
ENDBRANCH   3   5
BRANCH   1  13
ATOM     12  C   UNL     1       3.261   2.855  18.236  0.00  0.00    +0.000 C 
ATOM     13  C   UNL     1       3.958   4.204  18.405  0.00  0.00    +0.000 C 
BRANCH  13  14
ATOM     14  O   UNL     1       5.019   4.333  17.460  0.00  0.00    +0.000 OA
BRANCH  14  15
ATOM     15  C   UNL     1       5.991   5.265  17.737  0.00  0.00    +0.000 A 
ATOM     16  C   UNL     1       6.738   5.028  18.894  0.00  0.00    +0.000 A 
ATOM     17  C   UNL     1       7.765   5.900  19.270  0.00  0.00    +0.000 A 
ATOM     18  C   UNL     1       8.061   7.011  18.484  0.00  0.00    +0.000 A 
ATOM     19  C   UNL     1       7.336   7.244  17.321  0.00  0.00    +0.000 A 
ATOM     20  C   UNL     1       6.309   6.372  16.946  0.00  0.00    +0.000 A 
ENDBRANCH  14  15
ENDBRANCH  13  14
ENDBRANCH   1  13
TORSDOF 4
ENDMDL
