MODEL 1
REMARK VINA RESULT:      -6.7      0.000      0.000
REMARK  Name = 
REMARK  11 active torsions:
REMARK  status: ('A' for Active; 'I' for Inactive)
REMARK    1  A    between atoms: C_1  and  C_2
REMARK    2  A    between atoms: C_2  and  C_3
REMARK    3  A    between atoms: C_2  and  N_4
REMARK    4  A    between atoms: N_4  and  C_5
REMARK    5  A    between atoms: C_5  and  C_6
REMARK    6  A    between atoms: C_6  and  C_7
REMARK    7  A    between atoms: C_7  and  C_8
REMARK    8  A    between atoms: C_8  and  O_10
REMARK    9  A    between atoms: C_15  and  N_16
REMARK   10  A    between atoms: C_17  and  C_18
REMARK   11  A    between atoms: C_18  and  O_20
REMARK                            x       y       z     vdW  Elec       q    Type
REMARK                         _______ _______ _______ _____ _____    ______ ____
ROOT
ATOM      1  N   UNL     1       5.171   5.232  17.515  0.00  0.00    +0.000 N 
ATOM      2  C   UNL     1       4.644   3.956  17.262  0.00  0.00    +0.000 C 
ATOM      3  O   UNL     1       5.172   3.203  16.440  0.00  0.00    +0.000 OA
ATOM      4  N   UNL     1       3.531   3.510  17.958  0.00  0.00    +0.000 N 
ATOM      5  C   UNL     1       2.935   2.217  17.617  0.00  0.00    +0.000 C 
ATOM      6  C   UNL     1       1.993   1.830  18.791  0.00  0.00    +0.000 C 
ATOM      7  C   UNL     1       2.441   2.770  19.927  0.00  0.00    +0.000 C 
ATOM      8  C   UNL     1       2.945   3.990  19.192  0.00  0.00    +0.000 C 
ENDROOT
BRANCH   1  10
ATOM      9  C   UNL     1       6.931   7.016  17.172  0.00  0.00    +0.000 C 
ATOM     10  C   UNL     1       6.543   5.537  17.042  0.00  0.00    +0.000 C 
ATOM     11  C   UNL     1       7.594   4.624  17.674  0.00  0.00    +0.000 C 
ENDBRANCH   1  10
BRANCH   6  12
ATOM     12  N   UNL     1       0.582   1.872  18.393  0.00  0.00    +0.000 NA
ATOM     13  H   UNL     1       0.013   2.346  19.091  0.00  0.00    +0.000 HD
ATOM     14  H   UNL     1       0.220   0.909  18.365  0.00  0.00    +0.000 HD
ENDBRANCH   6  12
BRANCH   7  15
ATOM     15  C   UNL     1       1.426   3.189  20.966  0.00  0.00    +0.000 C 
ATOM     16  O   UNL     1       1.430   2.816  22.130  0.00  0.00    +0.000 OA
BRANCH  15  17
ATOM     17  O   UNL     1       0.493   4.060  20.511  0.00  0.00    +0.000 OA
ATOM     18  H   UNL     1       0.719   5.011  20.462  0.00  0.00    +0.000 HD
ENDBRANCH  15  17
ENDBRANCH   7  15
BRANCH   1  19
ATOM     19  C   UNL     1       4.485   6.230  18.327  0.00  0.00    +0.000 C 
BRANCH  19  20
ATOM     20  C   UNL     1       3.556   7.285  17.725  0.00  0.00    +0.000 C 
BRANCH  20  21
ATOM     21  C   UNL     1       2.404   7.585  18.701  0.00  0.00    +0.000 C 
BRANCH  21  22
ATOM     22  C   UNL     1       1.782   8.953  18.483  0.00  0.00    +0.000 C 
ATOM     23  O   UNL     1       1.932   9.620  17.468  0.00  0.00    +0.000 OA
BRANCH  22  24
ATOM     24  O   UNL     1       1.021   9.378  19.517  0.00  0.00    +0.000 OA
ATOM     25  H   UNL     1       1.032  10.341  19.675  0.00  0.00    +0.000 HD
ENDBRANCH  22  24
ENDBRANCH  21  22
ENDBRANCH  20  21
ENDBRANCH  19  20
ENDBRANCH   1  19
TORSDOF 9
ENDMDL
MODEL 2
REMARK VINA RESULT:      -6.6      2.038      5.429
REMARK  Name = 
REMARK  11 active torsions:
REMARK  status: ('A' for Active; 'I' for Inactive)
REMARK    1  A    between atoms: C_1  and  C_2
REMARK    2  A    between atoms: C_2  and  C_3
REMARK    3  A    between atoms: C_2  and  N_4
REMARK    4  A    between atoms: N_4  and  C_5
REMARK    5  A    between atoms: C_5  and  C_6
REMARK    6  A    between atoms: C_6  and  C_7
REMARK    7  A    between atoms: C_7  and  C_8
REMARK    8  A    between atoms: C_8  and  O_10
REMARK    9  A    between atoms: C_15  and  N_16
REMARK   10  A    between atoms: C_17  and  C_18
REMARK   11  A    between atoms: C_18  and  O_20
REMARK                            x       y       z     vdW  Elec       q    Type
REMARK                         _______ _______ _______ _____ _____    ______ ____
ROOT
ATOM      1  N   UNL     1       3.167   3.419  18.923  0.00  0.00    +0.000 N 
ATOM      2  C   UNL     1       4.550   3.621  19.046  0.00  0.00    +0.000 C 
ATOM      3  O   UNL     1       5.149   3.297  20.075  0.00  0.00    +0.000 OA
ATOM      4  N   UNL     1       5.272   4.165  17.996  0.00  0.00    +0.000 N 
ATOM      5  C   UNL     1       6.695   4.458  18.172  0.00  0.00    +0.000 C 
ATOM      6  C   UNL     1       7.292   4.672  16.752  0.00  0.00    +0.000 C 
ATOM      7  C   UNL     1       6.217   4.074  15.825  0.00  0.00    +0.000 C 
ATOM      8  C   UNL     1       4.934   4.290  16.593  0.00  0.00    +0.000 C 
ENDROOT
BRANCH   1  10
ATOM      9  C   UNL     1       2.109   3.197  21.210  0.00  0.00    +0.000 C 
ATOM     10  C   UNL     1       2.494   2.517  19.890  0.00  0.00    +0.000 C 
ATOM     11  C   UNL     1       1.305   1.781  19.270  0.00  0.00    +0.000 C 
ENDBRANCH   1  10
BRANCH   6  12
ATOM     12  N   UNL     1       7.679   6.068  16.529  0.00  0.00    +0.000 NA
ATOM     13  H   UNL     1       6.948   6.710  16.829  0.00  0.00    +0.000 HD
ATOM     14  H   UNL     1       7.773   6.226  15.516  0.00  0.00    +0.000 HD
ENDBRANCH   6  12
BRANCH   7  15
ATOM     15  C   UNL     1       6.070   4.633  14.428  0.00  0.00    +0.000 C 
ATOM     16  O   UNL     1       6.334   4.021  13.404  0.00  0.00    +0.000 OA
BRANCH  15  17
ATOM     17  O   UNL     1       5.581   5.896  14.385  0.00  0.00    +0.000 OA
ATOM     18  H   UNL     1       5.434   6.375  15.226  0.00  0.00    +0.000 HD
ENDBRANCH  15  17
ENDBRANCH   7  15
BRANCH   1  19
ATOM     19  C   UNL     1       2.379   3.951  17.817  0.00  0.00    +0.000 C 
BRANCH  19  20
ATOM     20  C   UNL     1       1.547   5.229  17.939  0.00  0.00    +0.000 C 
BRANCH  20  21
ATOM     21  C   UNL     1       2.478   6.449  18.065  0.00  0.00    +0.000 C 
BRANCH  21  22
ATOM     22  C   UNL     1       2.314   7.188  19.381  0.00  0.00    +0.000 C 
ATOM     23  O   UNL     1       1.827   8.308  19.482  0.00  0.00    +0.000 OA
BRANCH  22  24
ATOM     24  O   UNL     1       2.744   6.492  20.456  0.00  0.00    +0.000 OA
ATOM     25  H   UNL     1       3.625   6.743  20.792  0.00  0.00    +0.000 HD
ENDBRANCH  22  24
ENDBRANCH  21  22
ENDBRANCH  20  21
ENDBRANCH  19  20
ENDBRANCH   1  19
TORSDOF 9
ENDMDL
MODEL 3
REMARK VINA RESULT:      -6.6      2.142      5.458
REMARK  Name = 
REMARK  11 active torsions:
REMARK  status: ('A' for Active; 'I' for Inactive)
REMARK    1  A    between atoms: C_1  and  C_2
REMARK    2  A    between atoms: C_2  and  C_3
REMARK    3  A    between atoms: C_2  and  N_4
REMARK    4  A    between atoms: N_4  and  C_5
REMARK    5  A    between atoms: C_5  and  C_6
REMARK    6  A    between atoms: C_6  and  C_7
REMARK    7  A    between atoms: C_7  and  C_8
REMARK    8  A    between atoms: C_8  and  O_10
REMARK    9  A    between atoms: C_15  and  N_16
REMARK   10  A    between atoms: C_17  and  C_18
REMARK   11  A    between atoms: C_18  and  O_20
REMARK                            x       y       z     vdW  Elec       q    Type
REMARK                         _______ _______ _______ _____ _____    ______ ____
ROOT
ATOM      1  N   UNL     1       3.253   3.467  18.932  0.00  0.00    +0.000 N 
ATOM      2  C   UNL     1       4.627   3.725  19.048  0.00  0.00    +0.000 C 
ATOM      3  O   UNL     1       5.226   3.503  20.104  0.00  0.00    +0.000 OA
ATOM      4  N   UNL     1       5.341   4.209  17.963  0.00  0.00    +0.000 N 
ATOM      5  C   UNL     1       6.752   4.563  18.126  0.00  0.00    +0.000 C 
ATOM      6  C   UNL     1       7.355   4.685  16.699  0.00  0.00    +0.000 C 
ATOM      7  C   UNL     1       6.310   3.979  15.814  0.00  0.00    +0.000 C 
ATOM      8  C   UNL     1       5.013   4.211  16.553  0.00  0.00    +0.000 C 
ENDROOT
BRANCH   1  10
ATOM      9  C   UNL     1       2.203   3.385  21.232  0.00  0.00    +0.000 C 
ATOM     10  C   UNL     1       2.600   2.622  19.962  0.00  0.00    +0.000 C 
ATOM     11  C   UNL     1       1.427   1.819  19.399  0.00  0.00    +0.000 C 
ENDBRANCH   1  10
BRANCH   6  12
ATOM     12  N   UNL     1       7.698   6.071  16.369  0.00  0.00    +0.000 NA
ATOM     13  H   UNL     1       6.958   6.521  15.834  0.00  0.00    +0.000 HD
ATOM     14  H   UNL     1       8.515   6.068  15.742  0.00  0.00    +0.000 HD
ENDBRANCH   6  12
BRANCH   7  15
ATOM     15  C   UNL     1       6.158   4.421  14.376  0.00  0.00    +0.000 C 
ATOM     16  O   UNL     1       6.016   5.582  14.018  0.00  0.00    +0.000 OA
BRANCH  15  17
ATOM     17  O   UNL     1       6.221   3.412  13.475  0.00  0.00    +0.000 OA
ATOM     18  H   UNL     1       6.355   3.629  12.530  0.00  0.00    +0.000 HD
ENDBRANCH  15  17
ENDBRANCH   7  15
BRANCH   1  19
ATOM     19  C   UNL     1       2.459   3.884  17.782  0.00  0.00    +0.000 C 
BRANCH  19  20
ATOM     20  C   UNL     1       1.623   5.165  17.778  0.00  0.00    +0.000 C 
BRANCH  20  21
ATOM     21  C   UNL     1       2.280   6.221  18.685  0.00  0.00    +0.000 C 
BRANCH  21  22
ATOM     22  C   UNL     1       2.930   7.351  17.908  0.00  0.00    +0.000 C 
ATOM     23  O   UNL     1       4.090   7.336  17.516  0.00  0.00    +0.000 OA
BRANCH  22  24
ATOM     24  O   UNL     1       2.103   8.393  17.666  0.00  0.00    +0.000 OA
ATOM     25  H   UNL     1       2.336   8.939  16.891  0.00  0.00    +0.000 HD
ENDBRANCH  22  24
ENDBRANCH  21  22
ENDBRANCH  20  21
ENDBRANCH  19  20
ENDBRANCH   1  19
TORSDOF 9
ENDMDL
MODEL 4
REMARK VINA RESULT:      -6.5      0.815      1.066
REMARK  Name = 
REMARK  11 active torsions:
REMARK  status: ('A' for Active; 'I' for Inactive)
REMARK    1  A    between atoms: C_1  and  C_2
REMARK    2  A    between atoms: C_2  and  C_3
REMARK    3  A    between atoms: C_2  and  N_4
REMARK    4  A    between atoms: N_4  and  C_5
REMARK    5  A    between atoms: C_5  and  C_6
REMARK    6  A    between atoms: C_6  and  C_7
REMARK    7  A    between atoms: C_7  and  C_8
REMARK    8  A    between atoms: C_8  and  O_10
REMARK    9  A    between atoms: C_15  and  N_16
REMARK   10  A    between atoms: C_17  and  C_18
REMARK   11  A    between atoms: C_18  and  O_20
REMARK                            x       y       z     vdW  Elec       q    Type
REMARK                         _______ _______ _______ _____ _____    ______ ____
ROOT
ATOM      1  N   UNL     1       5.214   5.016  17.449  0.00  0.00    +0.000 N 
ATOM      2  C   UNL     1       4.604   3.774  17.214  0.00  0.00    +0.000 C 
ATOM      3  O   UNL     1       5.057   2.994  16.372  0.00  0.00    +0.000 OA
ATOM      4  N   UNL     1       3.492   3.392  17.948  0.00  0.00    +0.000 N 
ATOM      5  C   UNL     1       2.810   2.138  17.627  0.00  0.00    +0.000 C 
ATOM      6  C   UNL     1       1.888   1.803  18.833  0.00  0.00    +0.000 C 
ATOM      7  C   UNL     1       2.431   2.710  19.954  0.00  0.00    +0.000 C 
ATOM      8  C   UNL     1       2.979   3.901  19.203  0.00  0.00    +0.000 C 
ENDROOT
BRANCH   1  10
ATOM      9  C   UNL     1       6.635   5.564  15.429  0.00  0.00    +0.000 C 
ATOM     10  C   UNL     1       6.584   5.242  16.928  0.00  0.00    +0.000 C 
ATOM     11  C   UNL     1       7.357   6.274  17.751  0.00  0.00    +0.000 C 
ENDBRANCH   1  10
BRANCH   6  12
ATOM     12  N   UNL     1       0.469   1.929  18.486  0.00  0.00    +0.000 NA
ATOM     13  H   UNL     1       0.316   2.678  17.814  0.00  0.00    +0.000 HD
ATOM     14  H   UNL     1      -0.051   2.215  19.327  0.00  0.00    +0.000 HD
ENDBRANCH   6  12
BRANCH   7  15
ATOM     15  C   UNL     1       1.480   3.184  21.029  0.00  0.00    +0.000 C 
ATOM     16  O   UNL     1       1.449   2.748  22.171  0.00  0.00    +0.000 OA
BRANCH  15  17
ATOM     17  O   UNL     1       0.652   4.183  20.637  0.00  0.00    +0.000 OA
ATOM     18  H   UNL     1       0.997   5.098  20.606  0.00  0.00    +0.000 HD
ENDBRANCH  15  17
ENDBRANCH   7  15
BRANCH   1  19
ATOM     19  C   UNL     1       4.618   6.050  18.287  0.00  0.00    +0.000 C 
BRANCH  19  20
ATOM     20  C   UNL     1       3.819   7.220  17.709  0.00  0.00    +0.000 C 
BRANCH  20  21
ATOM     21  C   UNL     1       2.336   7.085  18.099  0.00  0.00    +0.000 C 
BRANCH  21  22
ATOM     22  C   UNL     1       1.999   7.783  19.404  0.00  0.00    +0.000 C 
ATOM     23  O   UNL     1       1.640   8.951  19.483  0.00  0.00    +0.000 OA
BRANCH  22  24
ATOM     24  O   UNL     1       2.115   6.992  20.494  0.00  0.00    +0.000 OA
ATOM     25  H   UNL     1       2.822   7.242  21.118  0.00  0.00    +0.000 HD
ENDBRANCH  22  24
ENDBRANCH  21  22
ENDBRANCH  20  21
ENDBRANCH  19  20
ENDBRANCH   1  19
TORSDOF 9
ENDMDL
MODEL 5
REMARK VINA RESULT:      -6.5      0.422      1.075
REMARK  Name = 
REMARK  11 active torsions:
REMARK  status: ('A' for Active; 'I' for Inactive)
REMARK    1  A    between atoms: C_1  and  C_2
REMARK    2  A    between atoms: C_2  and  C_3
REMARK    3  A    between atoms: C_2  and  N_4
REMARK    4  A    between atoms: N_4  and  C_5
REMARK    5  A    between atoms: C_5  and  C_6
REMARK    6  A    between atoms: C_6  and  C_7
REMARK    7  A    between atoms: C_7  and  C_8
REMARK    8  A    between atoms: C_8  and  O_10
REMARK    9  A    between atoms: C_15  and  N_16
REMARK   10  A    between atoms: C_17  and  C_18
REMARK   11  A    between atoms: C_18  and  O_20
REMARK                            x       y       z     vdW  Elec       q    Type
REMARK                         _______ _______ _______ _____ _____    ______ ____
ROOT
ATOM      1  N   UNL     1       5.064   5.211  17.348  0.00  0.00    +0.000 N 
ATOM      2  C   UNL     1       4.507   3.940  17.133  0.00  0.00    +0.000 C 
ATOM      3  O   UNL     1       4.986   3.173  16.293  0.00  0.00    +0.000 OA
ATOM      4  N   UNL     1       3.423   3.517  17.884  0.00  0.00    +0.000 N 
ATOM      5  C   UNL     1       2.794   2.230  17.584  0.00  0.00    +0.000 C 
ATOM      6  C   UNL     1       1.902   1.867  18.804  0.00  0.00    +0.000 C 
ATOM      7  C   UNL     1       2.417   2.809  19.909  0.00  0.00    +0.000 C 
ATOM      8  C   UNL     1       2.902   4.016  19.140  0.00  0.00    +0.000 C 
ENDROOT
BRANCH   1  10
ATOM      9  C   UNL     1       7.532   4.668  17.464  0.00  0.00    +0.000 C 
ATOM     10  C   UNL     1       6.416   5.493  16.808  0.00  0.00    +0.000 C 
ATOM     11  C   UNL     1       6.467   5.395  15.283  0.00  0.00    +0.000 C 
ENDBRANCH   1  10
BRANCH   6  12
ATOM     12  N   UNL     1       0.475   1.925  18.473  0.00  0.00    +0.000 NA
ATOM     13  H   UNL     1      -0.040   1.167  18.915  0.00  0.00    +0.000 HD
ATOM     14  H   UNL     1       0.365   1.767  17.462  0.00  0.00    +0.000 HD
ENDBRANCH   6  12
BRANCH   7  15
ATOM     15  C   UNL     1       1.458   3.251  20.991  0.00  0.00    +0.000 C 
ATOM     16  O   UNL     1       1.524   2.904  22.161  0.00  0.00    +0.000 OA
BRANCH  15  17
ATOM     17  O   UNL     1       0.502   4.113  20.567  0.00  0.00    +0.000 OA
ATOM     18  H   UNL     1      -0.163   4.434  21.210  0.00  0.00    +0.000 HD
ENDBRANCH  15  17
ENDBRANCH   7  15
BRANCH   1  19
ATOM     19  C   UNL     1       4.431   6.226  18.183  0.00  0.00    +0.000 C 
BRANCH  19  20
ATOM     20  C   UNL     1       3.602   7.372  17.601  0.00  0.00    +0.000 C 
BRANCH  20  21
ATOM     21  C   UNL     1       2.282   7.510  18.380  0.00  0.00    +0.000 C 
BRANCH  21  22
ATOM     22  C   UNL     1       1.777   8.940  18.445  0.00  0.00    +0.000 C 
ATOM     23  O   UNL     1       1.207   9.422  19.416  0.00  0.00    +0.000 OA
BRANCH  22  24
ATOM     24  O   UNL     1       2.024   9.658  17.327  0.00  0.00    +0.000 OA
ATOM     25  H   UNL     1       1.435   9.472  16.571  0.00  0.00    +0.000 HD
ENDBRANCH  22  24
ENDBRANCH  21  22
ENDBRANCH  20  21
ENDBRANCH  19  20
ENDBRANCH   1  19
TORSDOF 9
ENDMDL
MODEL 6
REMARK VINA RESULT:      -6.4      0.532      1.042
REMARK  Name = 
REMARK  11 active torsions:
REMARK  status: ('A' for Active; 'I' for Inactive)
REMARK    1  A    between atoms: C_1  and  C_2
REMARK    2  A    between atoms: C_2  and  C_3
REMARK    3  A    between atoms: C_2  and  N_4
REMARK    4  A    between atoms: N_4  and  C_5
REMARK    5  A    between atoms: C_5  and  C_6
REMARK    6  A    between atoms: C_6  and  C_7
REMARK    7  A    between atoms: C_7  and  C_8
REMARK    8  A    between atoms: C_8  and  O_10
REMARK    9  A    between atoms: C_15  and  N_16
REMARK   10  A    between atoms: C_17  and  C_18
REMARK   11  A    between atoms: C_18  and  O_20
REMARK                            x       y       z     vdW  Elec       q    Type
REMARK                         _______ _______ _______ _____ _____    ______ ____
ROOT
ATOM      1  N   UNL     1       5.402   5.238  17.273  0.00  0.00    +0.000 N 
ATOM      2  C   UNL     1       4.866   3.952  17.102  0.00  0.00    +0.000 C 
ATOM      3  O   UNL     1       5.365   3.160  16.299  0.00  0.00    +0.000 OA
ATOM      4  N   UNL     1       3.779   3.543  17.857  0.00  0.00    +0.000 N 
ATOM      5  C   UNL     1       3.172   2.236  17.601  0.00  0.00    +0.000 C 
ATOM      6  C   UNL     1       2.272   1.908  18.825  0.00  0.00    +0.000 C 
ATOM      7  C   UNL     1       2.760   2.900  19.897  0.00  0.00    +0.000 C 
ATOM      8  C   UNL     1       3.237   4.083  19.086  0.00  0.00    +0.000 C 
ENDROOT
BRANCH   1  10
ATOM      9  C   UNL     1       6.822   5.570  15.206  0.00  0.00    +0.000 C 
ATOM     10  C   UNL     1       6.757   5.519  16.738  0.00  0.00    +0.000 C 
ATOM     11  C   UNL     1       7.387   6.761  17.369  0.00  0.00    +0.000 C 
ENDBRANCH   1  10
BRANCH   6  12
ATOM     12  N   UNL     1       0.848   1.932  18.476  0.00  0.00    +0.000 NA
ATOM     13  H   UNL     1       0.674   2.521  17.665  0.00  0.00    +0.000 HD
ATOM     14  H   UNL     1       0.328   2.378  19.245  0.00  0.00    +0.000 HD
ENDBRANCH   6  12
BRANCH   7  15
ATOM     15  C   UNL     1       1.782   3.371  20.950  0.00  0.00    +0.000 C 
ATOM     16  O   UNL     1       0.794   4.054  20.724  0.00  0.00    +0.000 OA
BRANCH  15  17
ATOM     17  O   UNL     1       2.069   2.945  22.204  0.00  0.00    +0.000 OA
ATOM     18  H   UNL     1       2.673   2.183  22.317  0.00  0.00    +0.000 HD
ENDBRANCH  15  17
ENDBRANCH   7  15
BRANCH   1  19
ATOM     19  C   UNL     1       4.745   6.276  18.060  0.00  0.00    +0.000 C 
BRANCH  19  20
ATOM     20  C   UNL     1       3.722   7.241  17.461  0.00  0.00    +0.000 C 
BRANCH  20  21
ATOM     21  C   UNL     1       2.585   7.490  18.468  0.00  0.00    +0.000 C 
BRANCH  21  22
ATOM     22  C   UNL     1       1.930   8.850  18.301  0.00  0.00    +0.000 C 
ATOM     23  O   UNL     1       2.123   9.590  17.345  0.00  0.00    +0.000 OA
BRANCH  22  24
ATOM     24  O   UNL     1       1.088   9.178  19.306  0.00  0.00    +0.000 OA
ATOM     25  H   UNL     1       1.457   9.090  20.206  0.00  0.00    +0.000 HD
ENDBRANCH  22  24
ENDBRANCH  21  22
ENDBRANCH  20  21
ENDBRANCH  19  20
ENDBRANCH   1  19
TORSDOF 9
ENDMDL
MODEL 7
REMARK VINA RESULT:      -6.4      0.715      1.056
REMARK  Name = 
REMARK  11 active torsions:
REMARK  status: ('A' for Active; 'I' for Inactive)
REMARK    1  A    between atoms: C_1  and  C_2
REMARK    2  A    between atoms: C_2  and  C_3
REMARK    3  A    between atoms: C_2  and  N_4
REMARK    4  A    between atoms: N_4  and  C_5
REMARK    5  A    between atoms: C_5  and  C_6
REMARK    6  A    between atoms: C_6  and  C_7
REMARK    7  A    between atoms: C_7  and  C_8
REMARK    8  A    between atoms: C_8  and  O_10
REMARK    9  A    between atoms: C_15  and  N_16
REMARK   10  A    between atoms: C_17  and  C_18
REMARK   11  A    between atoms: C_18  and  O_20
REMARK                            x       y       z     vdW  Elec       q    Type
REMARK                         _______ _______ _______ _____ _____    ______ ____
ROOT
ATOM      1  N   UNL     1       4.809   5.368  17.221  0.00  0.00    +0.000 N 
ATOM      2  C   UNL     1       4.358   4.047  17.070  0.00  0.00    +0.000 C 
ATOM      3  O   UNL     1       4.894   3.282  16.264  0.00  0.00    +0.000 OA
ATOM      4  N   UNL     1       3.314   3.573  17.849  0.00  0.00    +0.000 N 
ATOM      5  C   UNL     1       2.791   2.226  17.615  0.00  0.00    +0.000 C 
ATOM      6  C   UNL     1       1.938   1.850  18.858  0.00  0.00    +0.000 C 
ATOM      7  C   UNL     1       2.378   2.883  19.913  0.00  0.00    +0.000 C 
ATOM      8  C   UNL     1       2.760   4.087  19.083  0.00  0.00    +0.000 C 
ENDROOT
BRANCH   1  10
ATOM      9  C   UNL     1       6.111   6.009  15.149  0.00  0.00    +0.000 C 
ATOM     10  C   UNL     1       6.132   5.733  16.658  0.00  0.00    +0.000 C 
ATOM     11  C   UNL     1       6.799   6.873  17.429  0.00  0.00    +0.000 C 
ENDBRANCH   1  10
BRANCH   6  12
ATOM     12  N   UNL     1       0.509   1.776  18.535  0.00  0.00    +0.000 NA
ATOM     13  H   UNL     1       0.353   1.310  17.644  0.00  0.00    +0.000 HD
ATOM     14  H   UNL     1       0.152   2.732  18.401  0.00  0.00    +0.000 HD
ENDBRANCH   6  12
BRANCH   7  15
ATOM     15  C   UNL     1       1.390   3.297  20.980  0.00  0.00    +0.000 C 
ATOM     16  O   UNL     1       1.446   2.949  22.151  0.00  0.00    +0.000 OA
BRANCH  15  17
ATOM     17  O   UNL     1       0.418   4.134  20.542  0.00  0.00    +0.000 OA
ATOM     18  H   UNL     1       0.670   5.025  20.225  0.00  0.00    +0.000 HD
ENDBRANCH  15  17
ENDBRANCH   7  15
BRANCH   1  19
ATOM     19  C   UNL     1       4.099   6.366  18.011  0.00  0.00    +0.000 C 
BRANCH  19  20
ATOM     20  C   UNL     1       3.237   7.459  17.377  0.00  0.00    +0.000 C 
BRANCH  20  21
ATOM     21  C   UNL     1       2.368   8.132  18.454  0.00  0.00    +0.000 C 
BRANCH  21  22
ATOM     22  C   UNL     1       1.583   9.320  17.928  0.00  0.00    +0.000 C 
ATOM     23  O   UNL     1       0.360   9.371  17.891  0.00  0.00    +0.000 OA
BRANCH  22  24
ATOM     24  O   UNL     1       2.358  10.345  17.509  0.00  0.00    +0.000 OA
ATOM     25  H   UNL     1       3.261  10.365  17.878  0.00  0.00    +0.000 HD
ENDBRANCH  22  24
ENDBRANCH  21  22
ENDBRANCH  20  21
ENDBRANCH  19  20
ENDBRANCH   1  19
TORSDOF 9
ENDMDL
MODEL 8
REMARK VINA RESULT:      -6.4      2.032      5.319
REMARK  Name = 
REMARK  11 active torsions:
REMARK  status: ('A' for Active; 'I' for Inactive)
REMARK    1  A    between atoms: C_1  and  C_2
REMARK    2  A    between atoms: C_2  and  C_3
REMARK    3  A    between atoms: C_2  and  N_4
REMARK    4  A    between atoms: N_4  and  C_5
REMARK    5  A    between atoms: C_5  and  C_6
REMARK    6  A    between atoms: C_6  and  C_7
REMARK    7  A    between atoms: C_7  and  C_8
REMARK    8  A    between atoms: C_8  and  O_10
REMARK    9  A    between atoms: C_15  and  N_16
REMARK   10  A    between atoms: C_17  and  C_18
REMARK   11  A    between atoms: C_18  and  O_20
REMARK                            x       y       z     vdW  Elec       q    Type
REMARK                         _______ _______ _______ _____ _____    ______ ____
ROOT
ATOM      1  N   UNL     1       2.899   3.902  19.251  0.00  0.00    +0.000 N 
ATOM      2  C   UNL     1       4.290   3.723  19.297  0.00  0.00    +0.000 C 
ATOM      3  O   UNL     1       4.802   2.943  20.104  0.00  0.00    +0.000 OA
ATOM      4  N   UNL     1       5.111   4.404  18.412  0.00  0.00    +0.000 N 
ATOM      5  C   UNL     1       6.564   4.282  18.534  0.00  0.00    +0.000 C 
ATOM      6  C   UNL     1       7.176   4.814  17.208  0.00  0.00    +0.000 C 
ATOM      7  C   UNL     1       5.972   4.829  16.247  0.00  0.00    +0.000 C 
ATOM      8  C   UNL     1       4.796   5.067  17.164  0.00  0.00    +0.000 C 
ENDROOT
BRANCH   1  10
ATOM      9  C   UNL     1       1.673   3.294  21.379  0.00  0.00    +0.000 C 
ATOM     10  C   UNL     1       2.034   2.911  19.938  0.00  0.00    +0.000 C 
ATOM     11  C   UNL     1       0.789   2.559  19.121  0.00  0.00    +0.000 C 
ENDBRANCH   1  10
BRANCH   6  12
ATOM     12  N   UNL     1       7.899   6.073  17.409  0.00  0.00    +0.000 NA
ATOM     13  H   UNL     1       8.274   6.431  16.533  0.00  0.00    +0.000 HD
ATOM     14  H   UNL     1       8.725   5.888  17.995  0.00  0.00    +0.000 HD
ENDBRANCH   6  12
BRANCH   7  15
ATOM     15  C   UNL     1       5.951   5.842  15.125  0.00  0.00    +0.000 C 
ATOM     16  O   UNL     1       5.176   6.785  15.055  0.00  0.00    +0.000 OA
BRANCH  15  17
ATOM     17  O   UNL     1       6.903   5.644  14.181  0.00  0.00    +0.000 OA
ATOM     18  H   UNL     1       7.844   5.645  14.451  0.00  0.00    +0.000 HD
ENDBRANCH  15  17
ENDBRANCH   7  15
BRANCH   1  19
ATOM     19  C   UNL     1       2.255   4.942  18.457  0.00  0.00    +0.000 C 
BRANCH  19  20
ATOM     20  C   UNL     1       1.937   6.329  19.018  0.00  0.00    +0.000 C 
BRANCH  20  21
ATOM     21  C   UNL     1       2.386   7.413  18.021  0.00  0.00    +0.000 C 
BRANCH  21  22
ATOM     22  C   UNL     1       1.842   8.790  18.355  0.00  0.00    +0.000 C 
ATOM     23  O   UNL     1       1.373   9.095  19.445  0.00  0.00    +0.000 OA
BRANCH  22  24
ATOM     24  O   UNL     1       1.932   9.675  17.338  0.00  0.00    +0.000 OA
ATOM     25  H   UNL     1       1.728   9.316  16.453  0.00  0.00    +0.000 HD
ENDBRANCH  22  24
ENDBRANCH  21  22
ENDBRANCH  20  21
ENDBRANCH  19  20
ENDBRANCH   1  19
TORSDOF 9
ENDMDL
MODEL 9
REMARK VINA RESULT:      -6.3      3.297      6.509
REMARK  Name = 
REMARK  11 active torsions:
REMARK  status: ('A' for Active; 'I' for Inactive)
REMARK    1  A    between atoms: C_1  and  C_2
REMARK    2  A    between atoms: C_2  and  C_3
REMARK    3  A    between atoms: C_2  and  N_4
REMARK    4  A    between atoms: N_4  and  C_5
REMARK    5  A    between atoms: C_5  and  C_6
REMARK    6  A    between atoms: C_6  and  C_7
REMARK    7  A    between atoms: C_7  and  C_8
REMARK    8  A    between atoms: C_8  and  O_10
REMARK    9  A    between atoms: C_15  and  N_16
REMARK   10  A    between atoms: C_17  and  C_18
REMARK   11  A    between atoms: C_18  and  O_20
REMARK                            x       y       z     vdW  Elec       q    Type
REMARK                         _______ _______ _______ _____ _____    ______ ____
ROOT
ATOM      1  N   UNL     1       2.489   6.977  18.813  0.00  0.00    +0.000 N 
ATOM      2  C   UNL     1       2.080   8.283  18.501  0.00  0.00    +0.000 C 
ATOM      3  O   UNL     1       2.159   8.713  17.347  0.00  0.00    +0.000 OA
ATOM      4  N   UNL     1       1.553   9.103  19.485  0.00  0.00    +0.000 N 
ATOM      5  C   UNL     1       1.220  10.493  19.167  0.00  0.00    +0.000 C 
ATOM      6  C   UNL     1       0.312  11.015  20.315  0.00  0.00    +0.000 C 
ATOM      7  C   UNL     1      -0.143   9.723  21.020  0.00  0.00    +0.000 C 
ATOM      8  C   UNL     1       1.010   8.774  20.787  0.00  0.00    +0.000 C 
ENDROOT
BRANCH   1  10
ATOM      9  C   UNL     1       4.129   5.472  17.612  0.00  0.00    +0.000 C 
ATOM     10  C   UNL     1       2.698   6.015  17.704  0.00  0.00    +0.000 C 
ATOM     11  C   UNL     1       1.667   4.885  17.710  0.00  0.00    +0.000 C 
ENDBRANCH   1  10
BRANCH   6  12
ATOM     12  N   UNL     1       0.991  12.028  21.128  0.00  0.00    +0.000 NA
ATOM     13  H   UNL     1       1.206  11.676  22.059  0.00  0.00    +0.000 HD
ATOM     14  H   UNL     1       0.344  12.814  21.284  0.00  0.00    +0.000 HD
ENDBRANCH   6  12
BRANCH   7  15
ATOM     15  C   UNL     1      -0.464   9.775  22.496  0.00  0.00    +0.000 C 
ATOM     16  O   UNL     1      -0.396  10.782  23.186  0.00  0.00    +0.000 OA
BRANCH  15  17
ATOM     17  O   UNL     1      -0.873   8.594  23.017  0.00  0.00    +0.000 OA
ATOM     18  H   UNL     1      -1.382   8.597  23.854  0.00  0.00    +0.000 HD
ENDBRANCH  15  17
ENDBRANCH   7  15
BRANCH   1  19
ATOM     19  C   UNL     1       2.598   6.483  20.181  0.00  0.00    +0.000 C 
BRANCH  19  20
ATOM     20  C   UNL     1       1.610   5.477  20.774  0.00  0.00    +0.000 C 
BRANCH  20  21
ATOM     21  C   UNL     1       2.362   4.215  21.235  0.00  0.00    +0.000 C 
BRANCH  21  22
ATOM     22  C   UNL     1       1.457   3.005  21.383  0.00  0.00    +0.000 C 
ATOM     23  O   UNL     1       1.567   2.171  22.273  0.00  0.00    +0.000 OA
BRANCH  22  24
ATOM     24  O   UNL     1       0.491   2.927  20.441  0.00  0.00    +0.000 OA
ATOM     25  H   UNL     1       0.808   2.870  19.520  0.00  0.00    +0.000 HD
ENDBRANCH  22  24
ENDBRANCH  21  22
ENDBRANCH  20  21
ENDBRANCH  19  20
ENDBRANCH   1  19
TORSDOF 9
ENDMDL
