MODEL 1
REMARK VINA RESULT:      -8.9      0.000      0.000
REMARK  Name = 
REMARK  4 active torsions:
REMARK  status: ('A' for Active; 'I' for Inactive)
REMARK    1  A    between atoms: C_1  and  C_2
REMARK    2  A    between atoms: C_4  and  N_5
REMARK    3  A    between atoms: C_8  and  N_9
REMARK    4  A    between atoms: N_12  and  C_13
REMARK                            x       y       z     vdW  Elec       q    Type
REMARK                         _______ _______ _______ _____ _____    ______ ____
ROOT
ATOM      1  N   UNL     1       1.970   7.796  19.504  0.00  0.00    +0.000 N 
ATOM      2  C   UNL     1       1.580   8.464  20.743  0.00  0.00    +0.000 C 
ATOM      3  C   UNL     1       0.270   9.192  20.493  0.00  0.00    +0.000 C 
ATOM      4  C   UNL     1       0.373  10.138  19.301  0.00  0.00    +0.000 C 
ATOM      5  C   UNL     1       0.966   9.459  18.054  0.00  0.00    +0.000 C 
ATOM      6  C   UNL     1       2.243   8.679  18.371  0.00  0.00    +0.000 C 
ENDROOT
BRANCH   1  10
ATOM      7  C   UNL     1       1.566   3.293  21.422  0.00  0.00    +0.000 C 
ATOM      8  C   UNL     1       2.213   4.255  20.472  0.00  0.00    +0.000 A 
ATOM      9  C   UNL     1       1.898   5.603  20.507  0.00  0.00    +0.000 A 
ATOM     10  C   UNL     1       2.431   6.482  19.555  0.00  0.00    +0.000 A 
ATOM     11  C   UNL     1       3.332   5.945  18.593  0.00  0.00    +0.000 A 
ATOM     12  C   UNL     1       3.926   6.689  17.542  0.00  0.00    +0.000 A 
ATOM     13  C   UNL     1       4.745   6.087  16.597  0.00  0.00    +0.000 A 
ATOM     14  F   UNL     1       5.282   6.828  15.620  0.00  0.00    +0.000 F 
ATOM     15  C   UNL     1       4.989   4.731  16.648  0.00  0.00    +0.000 A 
ATOM     16  C   UNL     1       4.414   3.982  17.676  0.00  0.00    +0.000 A 
ATOM     17  C   UNL     1       3.597   4.555  18.644  0.00  0.00    +0.000 A 
ATOM     18  N   UNL     1       3.060   3.736  19.561  0.00  0.00    +0.000 NA
ENDBRANCH   1  10
BRANCH   4  19
ATOM     19  N   UNL     1       1.084  11.365  19.646  0.00  0.00    +0.000 N 
ATOM     20  C   UNL     1       0.691  12.537  19.049  0.00  0.00    +0.000 C 
ATOM     21  O   UNL     1      -0.236  12.554  18.253  0.00  0.00    +0.000 OA
ATOM     22  N   UNL     1       1.417  13.629  19.469  0.00  0.00    +0.000 N 
ATOM     23  H   UNL     1       1.957  11.327  20.153  0.00  0.00    +0.000 HD
ATOM     24  H   UNL     1       2.347  13.457  19.819  0.00  0.00    +0.000 HD
BRANCH  22  25
ATOM     25  C   UNL     1       1.103  14.952  19.089  0.00  0.00    +0.000 A 
ATOM     26  C   UNL     1      -0.181  15.486  19.251  0.00  0.00    +0.000 A 
ATOM     27  C   UNL     1      -0.503  16.742  18.745  0.00  0.00    +0.000 A 
ATOM     28  C   UNL     1       0.472  17.496  18.104  0.00  0.00    +0.000 A 
ATOM     29  C   UNL     1       1.777  17.009  18.010  0.00  0.00    +0.000 A 
ATOM     30  C   UNL     1       2.097  15.744  18.512  0.00  0.00    +0.000 A 
ENDBRANCH  22  25
ENDBRANCH   4  19
TORSDOF 3
ENDMDL
MODEL 2
REMARK VINA RESULT:      -8.6      0.690      1.046
REMARK  Name = 
REMARK  4 active torsions:
REMARK  status: ('A' for Active; 'I' for Inactive)
REMARK    1  A    between atoms: C_1  and  C_2
REMARK    2  A    between atoms: C_4  and  N_5
REMARK    3  A    between atoms: C_8  and  N_9
REMARK    4  A    between atoms: N_12  and  C_13
REMARK                            x       y       z     vdW  Elec       q    Type
REMARK                         _______ _______ _______ _____ _____    ______ ____
ROOT
ATOM      1  N   UNL     1       2.033   7.627  19.422  0.00  0.00    +0.000 N 
ATOM      2  C   UNL     1       1.649   8.299  20.661  0.00  0.00    +0.000 C 
ATOM      3  C   UNL     1       0.378   9.088  20.395  0.00  0.00    +0.000 C 
ATOM      4  C   UNL     1       0.548  10.041  19.216  0.00  0.00    +0.000 C 
ATOM      5  C   UNL     1       1.133   9.349  17.973  0.00  0.00    +0.000 C 
ATOM      6  C   UNL     1       2.367   8.509  18.305  0.00  0.00    +0.000 C 
ENDROOT
BRANCH   1  10
ATOM      7  C   UNL     1       1.383   3.125  21.273  0.00  0.00    +0.000 C 
ATOM      8  C   UNL     1       2.094   4.068  20.350  0.00  0.00    +0.000 A 
ATOM      9  C   UNL     1       1.839   5.428  20.396  0.00  0.00    +0.000 A 
ATOM     10  C   UNL     1       2.433   6.293  19.467  0.00  0.00    +0.000 A 
ATOM     11  C   UNL     1       3.331   5.727  18.518  0.00  0.00    +0.000 A 
ATOM     12  C   UNL     1       3.981   6.456  17.491  0.00  0.00    +0.000 A 
ATOM     13  C   UNL     1       4.794   5.829  16.556  0.00  0.00    +0.000 A 
ATOM     14  F   UNL     1       5.386   6.556  15.601  0.00  0.00    +0.000 F 
ATOM     15  C   UNL     1       4.975   4.463  16.596  0.00  0.00    +0.000 A 
ATOM     16  C   UNL     1       4.344   3.728  17.601  0.00  0.00    +0.000 A 
ATOM     17  C   UNL     1       3.532   4.326  18.558  0.00  0.00    +0.000 A 
ATOM     18  N   UNL     1       2.938   3.522  19.451  0.00  0.00    +0.000 NA
ENDBRANCH   1  10
BRANCH   4  19
ATOM     19  N   UNL     1       1.306  11.231  19.589  0.00  0.00    +0.000 N 
ATOM     20  C   UNL     1       0.748  12.462  19.351  0.00  0.00    +0.000 C 
ATOM     21  O   UNL     1      -0.362  12.560  18.846  0.00  0.00    +0.000 OA
ATOM     22  N   UNL     1       1.543  13.507  19.765  0.00  0.00    +0.000 N 
ATOM     23  H   UNL     1       2.284  11.161  19.830  0.00  0.00    +0.000 HD
ATOM     24  H   UNL     1       2.536  13.337  19.818  0.00  0.00    +0.000 HD
BRANCH  22  25
ATOM     25  C   UNL     1       1.117  14.853  19.741  0.00  0.00    +0.000 A 
ATOM     26  C   UNL     1       1.439  15.715  18.685  0.00  0.00    +0.000 A 
ATOM     27  C   UNL     1       1.128  17.070  18.747  0.00  0.00    +0.000 A 
ATOM     28  C   UNL     1       0.451  17.571  19.852  0.00  0.00    +0.000 A 
ATOM     29  C   UNL     1       0.050  16.705  20.871  0.00  0.00    +0.000 A 
ATOM     30  C   UNL     1       0.371  15.346  20.812  0.00  0.00    +0.000 A 
ENDBRANCH  22  25
ENDBRANCH   4  19
TORSDOF 3
ENDMDL
MODEL 3
REMARK VINA RESULT:      -8.5      3.783      9.772
REMARK  Name = 
REMARK  4 active torsions:
REMARK  status: ('A' for Active; 'I' for Inactive)
REMARK    1  A    between atoms: C_1  and  C_2
REMARK    2  A    between atoms: C_4  and  N_5
REMARK    3  A    between atoms: C_8  and  N_9
REMARK    4  A    between atoms: N_12  and  C_13
REMARK                            x       y       z     vdW  Elec       q    Type
REMARK                         _______ _______ _______ _____ _____    ______ ____
ROOT
ATOM      1  N   UNL     1      -0.385  10.527  21.968  0.00  0.00    +0.000 N 
ATOM      2  C   UNL     1       0.150   9.619  22.980  0.00  0.00    +0.000 C 
ATOM      3  C   UNL     1       1.565   9.242  22.572  0.00  0.00    +0.000 C 
ATOM      4  C   UNL     1       1.606   8.668  21.159  0.00  0.00    +0.000 C 
ATOM      5  C   UNL     1       0.869   9.551  20.138  0.00  0.00    +0.000 C 
ATOM      6  C   UNL     1      -0.520   9.965  20.625  0.00  0.00    +0.000 C 
ENDROOT
BRANCH   1  10
ATOM      7  C   UNL     1      -4.093  12.480  24.529  0.00  0.00    +0.000 C 
ATOM      8  C   UNL     1      -2.880  12.635  23.661  0.00  0.00    +0.000 A 
ATOM      9  C   UNL     1      -2.265  11.526  23.104  0.00  0.00    +0.000 A 
ATOM     10  C   UNL     1      -1.076  11.667  22.374  0.00  0.00    +0.000 A 
ATOM     11  C   UNL     1      -0.562  12.982  22.196  0.00  0.00    +0.000 A 
ATOM     12  C   UNL     1       0.645  13.290  21.521  0.00  0.00    +0.000 A 
ATOM     13  C   UNL     1       1.123  14.591  21.441  0.00  0.00    +0.000 A 
ATOM     14  F   UNL     1       2.270  14.836  20.796  0.00  0.00    +0.000 F 
ATOM     15  C   UNL     1       0.435  15.624  22.041  0.00  0.00    +0.000 A 
ATOM     16  C   UNL     1      -0.757  15.341  22.710  0.00  0.00    +0.000 A 
ATOM     17  C   UNL     1      -1.269  14.051  22.800  0.00  0.00    +0.000 A 
ATOM     18  N   UNL     1      -2.397  13.883  23.504  0.00  0.00    +0.000 NA
ENDBRANCH   1  10
BRANCH   4  19
ATOM     19  N   UNL     1       1.139   7.285  21.125  0.00  0.00    +0.000 N 
ATOM     20  C   UNL     1       1.816   6.387  20.338  0.00  0.00    +0.000 C 
ATOM     21  O   UNL     1       2.791   6.735  19.687  0.00  0.00    +0.000 OA
ATOM     22  N   UNL     1       1.300   5.112  20.404  0.00  0.00    +0.000 N 
ATOM     23  H   UNL     1       0.238   7.039  21.508  0.00  0.00    +0.000 HD
ATOM     24  H   UNL     1       0.329   5.021  20.658  0.00  0.00    +0.000 HD
BRANCH  22  25
ATOM     25  C   UNL     1       1.914   4.002  19.782  0.00  0.00    +0.000 A 
ATOM     26  C   UNL     1       2.934   3.273  20.404  0.00  0.00    +0.000 A 
ATOM     27  C   UNL     1       3.618   2.272  19.721  0.00  0.00    +0.000 A 
ATOM     28  C   UNL     1       3.258   1.961  18.416  0.00  0.00    +0.000 A 
ATOM     29  C   UNL     1       2.186   2.624  17.814  0.00  0.00    +0.000 A 
ATOM     30  C   UNL     1       1.506   3.635  18.499  0.00  0.00    +0.000 A 
ENDBRANCH  22  25
ENDBRANCH   4  19
TORSDOF 3
ENDMDL
MODEL 4
REMARK VINA RESULT:      -8.3      1.283      1.518
REMARK  Name = 
REMARK  4 active torsions:
REMARK  status: ('A' for Active; 'I' for Inactive)
REMARK    1  A    between atoms: C_1  and  C_2
REMARK    2  A    between atoms: C_4  and  N_5
REMARK    3  A    between atoms: C_8  and  N_9
REMARK    4  A    between atoms: N_12  and  C_13
REMARK                            x       y       z     vdW  Elec       q    Type
REMARK                         _______ _______ _______ _____ _____    ______ ____
ROOT
ATOM      1  N   UNL     1       1.921   7.673  19.699  0.00  0.00    +0.000 N 
ATOM      2  C   UNL     1       1.561   8.276  20.980  0.00  0.00    +0.000 C 
ATOM      3  C   UNL     1       0.256   9.032  20.793  0.00  0.00    +0.000 C 
ATOM      4  C   UNL     1       0.351  10.040  19.652  0.00  0.00    +0.000 C 
ATOM      5  C   UNL     1       0.913   9.424  18.360  0.00  0.00    +0.000 C 
ATOM      6  C   UNL     1       2.185   8.613  18.611  0.00  0.00    +0.000 C 
ENDROOT
BRANCH   1  10
ATOM      7  C   UNL     1       1.469   3.069  21.349  0.00  0.00    +0.000 C 
ATOM      8  C   UNL     1       2.125   4.078  20.455  0.00  0.00    +0.000 A 
ATOM      9  C   UNL     1       1.825   5.425  20.571  0.00  0.00    +0.000 A 
ATOM     10  C   UNL     1       2.366   6.353  19.671  0.00  0.00    +0.000 A 
ATOM     11  C   UNL     1       3.258   5.863  18.675  0.00  0.00    +0.000 A 
ATOM     12  C   UNL     1       3.857   6.660  17.668  0.00  0.00    +0.000 A 
ATOM     13  C   UNL     1       4.665   6.106  16.685  0.00  0.00    +0.000 A 
ATOM     14  F   UNL     1       5.207   6.897  15.751  0.00  0.00    +0.000 F 
ATOM     15  C   UNL     1       4.893   4.747  16.655  0.00  0.00    +0.000 A 
ATOM     16  C   UNL     1       4.313   3.945  17.639  0.00  0.00    +0.000 A 
ATOM     17  C   UNL     1       3.506   4.469  18.643  0.00  0.00    +0.000 A 
ATOM     18  N   UNL     1       2.962   3.604  19.511  0.00  0.00    +0.000 NA
ENDBRANCH   1  10
BRANCH   4  19
ATOM     19  N   UNL     1       1.083  11.238  20.051  0.00  0.00    +0.000 N 
ATOM     20  C   UNL     1       0.378  12.402  20.238  0.00  0.00    +0.000 C 
ATOM     21  O   UNL     1      -0.834  12.432  20.082  0.00  0.00    +0.000 OA
ATOM     22  N   UNL     1       1.169  13.456  20.635  0.00  0.00    +0.000 N 
ATOM     23  H   UNL     1       2.091  11.264  20.001  0.00  0.00    +0.000 HD
ATOM     24  H   UNL     1       2.145  13.421  20.383  0.00  0.00    +0.000 HD
BRANCH  22  25
ATOM     25  C   UNL     1       0.643  14.712  21.011  0.00  0.00    +0.000 A 
ATOM     26  C   UNL     1       0.192  14.968  22.312  0.00  0.00    +0.000 A 
ATOM     27  C   UNL     1      -0.447  16.164  22.625  0.00  0.00    +0.000 A 
ATOM     28  C   UNL     1      -0.607  17.136  21.646  0.00  0.00    +0.000 A 
ATOM     29  C   UNL     1      -0.086  16.926  20.368  0.00  0.00    +0.000 A 
ATOM     30  C   UNL     1       0.549  15.721  20.052  0.00  0.00    +0.000 A 
ENDBRANCH  22  25
ENDBRANCH   4  19
TORSDOF 3
ENDMDL
MODEL 5
REMARK VINA RESULT:      -8.2      3.557      4.551
REMARK  Name = 
REMARK  4 active torsions:
REMARK  status: ('A' for Active; 'I' for Inactive)
REMARK    1  A    between atoms: C_1  and  C_2
REMARK    2  A    between atoms: C_4  and  N_5
REMARK    3  A    between atoms: C_8  and  N_9
REMARK    4  A    between atoms: N_12  and  C_13
REMARK                            x       y       z     vdW  Elec       q    Type
REMARK                         _______ _______ _______ _____ _____    ______ ____
ROOT
ATOM      1  N   UNL     1       2.449   7.364  18.526  0.00  0.00    +0.000 N 
ATOM      2  C   UNL     1       1.659   8.095  17.539  0.00  0.00    +0.000 C 
ATOM      3  C   UNL     1       1.611   9.554  17.962  0.00  0.00    +0.000 C 
ATOM      4  C   UNL     1       1.093   9.707  19.388  0.00  0.00    +0.000 C 
ATOM      5  C   UNL     1       1.814   8.784  20.385  0.00  0.00    +0.000 C 
ATOM      6  C   UNL     1       1.901   7.343  19.882  0.00  0.00    +0.000 C 
ENDROOT
BRANCH   1  10
ATOM      7  C   UNL     1       7.136   6.391  17.430  0.00  0.00    +0.000 C 
ATOM      8  C   UNL     1       5.712   5.950  17.582  0.00  0.00    +0.000 A 
ATOM      9  C   UNL     1       4.713   6.871  17.853  0.00  0.00    +0.000 A 
ATOM     10  C   UNL     1       3.399   6.443  18.090  0.00  0.00    +0.000 A 
ATOM     11  C   UNL     1       3.133   5.047  17.998  0.00  0.00    +0.000 A 
ATOM     12  C   UNL     1       1.872   4.450  18.248  0.00  0.00    +0.000 A 
ATOM     13  C   UNL     1       1.697   3.074  18.205  0.00  0.00    +0.000 A 
ATOM     14  F   UNL     1       0.489   2.553  18.451  0.00  0.00    +0.000 F 
ATOM     15  C   UNL     1       2.764   2.244  17.934  0.00  0.00    +0.000 A 
ATOM     16  C   UNL     1       4.014   2.813  17.684  0.00  0.00    +0.000 A 
ATOM     17  C   UNL     1       4.221   4.188  17.709  0.00  0.00    +0.000 A 
ATOM     18  N   UNL     1       5.471   4.627  17.500  0.00  0.00    +0.000 NA
ENDBRANCH   1  10
BRANCH   4  19
ATOM     19  N   UNL     1      -0.358   9.555  19.454  0.00  0.00    +0.000 N 
ATOM     20  C   UNL     1      -1.142  10.539  18.904  0.00  0.00    +0.000 C 
ATOM     21  O   UNL     1      -0.638  11.514  18.365  0.00  0.00    +0.000 OA
ATOM     22  N   UNL     1      -2.490  10.276  19.004  0.00  0.00    +0.000 N 
ATOM     23  H   UNL     1      -0.774   8.856  20.051  0.00  0.00    +0.000 HD
ATOM     24  H   UNL     1      -2.787   9.669  19.753  0.00  0.00    +0.000 HD
BRANCH  22  25
ATOM     25  C   UNL     1      -3.477  11.081  18.394  0.00  0.00    +0.000 A 
ATOM     26  C   UNL     1      -4.284  11.953  19.134  0.00  0.00    +0.000 A 
ATOM     27  C   UNL     1      -5.340  12.633  18.534  0.00  0.00    +0.000 A 
ATOM     28  C   UNL     1      -5.575  12.477  17.174  0.00  0.00    +0.000 A 
ATOM     29  C   UNL     1      -4.725  11.676  16.410  0.00  0.00    +0.000 A 
ATOM     30  C   UNL     1      -3.669  10.987  17.015  0.00  0.00    +0.000 A 
ENDBRANCH  22  25
ENDBRANCH   4  19
TORSDOF 3
ENDMDL
MODEL 6
REMARK VINA RESULT:      -8.2      2.549      3.715
REMARK  Name = 
REMARK  4 active torsions:
REMARK  status: ('A' for Active; 'I' for Inactive)
REMARK    1  A    between atoms: C_1  and  C_2
REMARK    2  A    between atoms: C_4  and  N_5
REMARK    3  A    between atoms: C_8  and  N_9
REMARK    4  A    between atoms: N_12  and  C_13
REMARK                            x       y       z     vdW  Elec       q    Type
REMARK                         _______ _______ _______ _____ _____    ______ ____
ROOT
ATOM      1  N   UNL     1       2.677   7.425  18.463  0.00  0.00    +0.000 N 
ATOM      2  C   UNL     1       2.464   7.452  19.907  0.00  0.00    +0.000 C 
ATOM      3  C   UNL     1       1.000   7.768  20.162  0.00  0.00    +0.000 C 
ATOM      4  C   UNL     1       0.576   9.056  19.462  0.00  0.00    +0.000 C 
ATOM      5  C   UNL     1       0.979   9.086  17.978  0.00  0.00    +0.000 C 
ATOM      6  C   UNL     1       2.441   8.690  17.767  0.00  0.00    +0.000 C 
ENDROOT
BRANCH   1  10
ATOM      7  C   UNL     1       6.967   5.915  16.609  0.00  0.00    +0.000 C 
ATOM      8  C   UNL     1       5.553   5.638  17.023  0.00  0.00    +0.000 A 
ATOM      9  C   UNL     1       4.721   6.669  17.427  0.00  0.00    +0.000 A 
ATOM     10  C   UNL     1       3.432   6.395  17.905  0.00  0.00    +0.000 A 
ATOM     11  C   UNL     1       3.007   5.037  17.916  0.00  0.00    +0.000 A 
ATOM     12  C   UNL     1       1.754   4.589  18.404  0.00  0.00    +0.000 A 
ATOM     13  C   UNL     1       1.429   3.240  18.447  0.00  0.00    +0.000 A 
ATOM     14  F   UNL     1       0.235   2.862  18.919  0.00  0.00    +0.000 F 
ATOM     15  C   UNL     1       2.337   2.291  18.027  0.00  0.00    +0.000 A 
ATOM     16  C   UNL     1       3.576   2.713  17.542  0.00  0.00    +0.000 A 
ATOM     17  C   UNL     1       3.929   4.056  17.476  0.00  0.00    +0.000 A 
ATOM     18  N   UNL     1       5.162   4.349  17.036  0.00  0.00    +0.000 NA
ENDBRANCH   1  10
BRANCH   4  19
ATOM     19  N   UNL     1       1.041  10.238  20.180  0.00  0.00    +0.000 N 
ATOM     20  C   UNL     1       0.131  11.223  20.475  0.00  0.00    +0.000 C 
ATOM     21  O   UNL     1      -1.043  11.108  20.152  0.00  0.00    +0.000 OA
ATOM     22  N   UNL     1       0.678  12.276  21.174  0.00  0.00    +0.000 N 
ATOM     23  H   UNL     1       2.029  10.420  20.284  0.00  0.00    +0.000 HD
ATOM     24  H   UNL     1       1.668  12.435  21.065  0.00  0.00    +0.000 HD
BRANCH  22  25
ATOM     25  C   UNL     1      -0.094  13.336  21.696  0.00  0.00    +0.000 A 
ATOM     26  C   UNL     1      -0.163  14.585  21.068  0.00  0.00    +0.000 A 
ATOM     27  C   UNL     1      -0.817  15.655  21.671  0.00  0.00    +0.000 A 
ATOM     28  C   UNL     1      -1.447  15.474  22.895  0.00  0.00    +0.000 A 
ATOM     29  C   UNL     1      -1.458  14.212  23.491  0.00  0.00    +0.000 A 
ATOM     30  C   UNL     1      -0.793  13.139  22.888  0.00  0.00    +0.000 A 
ENDBRANCH  22  25
ENDBRANCH   4  19
TORSDOF 3
ENDMDL
MODEL 7
REMARK VINA RESULT:      -8.2      3.479      4.421
REMARK  Name = 
REMARK  4 active torsions:
REMARK  status: ('A' for Active; 'I' for Inactive)
REMARK    1  A    between atoms: C_1  and  C_2
REMARK    2  A    between atoms: C_4  and  N_5
REMARK    3  A    between atoms: C_8  and  N_9
REMARK    4  A    between atoms: N_12  and  C_13
REMARK                            x       y       z     vdW  Elec       q    Type
REMARK                         _______ _______ _______ _____ _____    ______ ____
ROOT
ATOM      1  N   UNL     1       2.654   7.042  18.743  0.00  0.00    +0.000 N 
ATOM      2  C   UNL     1       2.425   7.779  17.503  0.00  0.00    +0.000 C 
ATOM      3  C   UNL     1       2.393   9.261  17.835  0.00  0.00    +0.000 C 
ATOM      4  C   UNL     1       1.369   9.570  18.922  0.00  0.00    +0.000 C 
ATOM      5  C   UNL     1       1.509   8.651  20.147  0.00  0.00    +0.000 C 
ATOM      6  C   UNL     1       1.610   7.176  19.758  0.00  0.00    +0.000 C 
ENDROOT
BRANCH   1  10
ATOM      7  C   UNL     1       7.295   5.568  19.381  0.00  0.00    +0.000 C 
ATOM      8  C   UNL     1       5.854   5.263  19.100  0.00  0.00    +0.000 A 
ATOM      9  C   UNL     1       4.939   6.286  18.919  0.00  0.00    +0.000 A 
ATOM     10  C   UNL     1       3.577   5.998  18.754  0.00  0.00    +0.000 A 
ATOM     11  C   UNL     1       3.190   4.628  18.737  0.00  0.00    +0.000 A 
ATOM     12  C   UNL     1       1.853   4.171  18.620  0.00  0.00    +0.000 A 
ATOM     13  C   UNL     1       1.538   2.820  18.678  0.00  0.00    +0.000 A 
ATOM     14  F   UNL     1       0.261   2.434  18.566  0.00  0.00    +0.000 F 
ATOM     15  C   UNL     1       2.529   1.881  18.871  0.00  0.00    +0.000 A 
ATOM     16  C   UNL     1       3.852   2.312  18.987  0.00  0.00    +0.000 A 
ATOM     17  C   UNL     1       4.202   3.656  18.924  0.00  0.00    +0.000 A 
ATOM     18  N   UNL     1       5.496   3.964  19.093  0.00  0.00    +0.000 NA
ENDBRANCH   1  10
BRANCH   4  19
ATOM     19  N   UNL     1       0.008   9.575  18.394  0.00  0.00    +0.000 N 
ATOM     20  C   UNL     1      -0.892  10.470  18.917  0.00  0.00    +0.000 C 
ATOM     21  O   UNL     1      -0.559  11.250  19.799  0.00  0.00    +0.000 OA
ATOM     22  N   UNL     1      -2.133  10.399  18.326  0.00  0.00    +0.000 N 
ATOM     23  H   UNL     1      -0.318   8.820  17.807  0.00  0.00    +0.000 HD
ATOM     24  H   UNL     1      -2.391   9.522  17.901  0.00  0.00    +0.000 HD
BRANCH  22  25
ATOM     25  C   UNL     1      -3.174  11.310  18.612  0.00  0.00    +0.000 A 
ATOM     26  C   UNL     1      -3.126  12.168  19.718  0.00  0.00    +0.000 A 
ATOM     27  C   UNL     1      -4.220  12.958  20.059  0.00  0.00    +0.000 A 
ATOM     28  C   UNL     1      -5.363  12.928  19.270  0.00  0.00    +0.000 A 
ATOM     29  C   UNL     1      -5.390  12.140  18.117  0.00  0.00    +0.000 A 
ATOM     30  C   UNL     1      -4.294  11.341  17.781  0.00  0.00    +0.000 A 
ENDBRANCH  22  25
ENDBRANCH   4  19
TORSDOF 3
ENDMDL
MODEL 8
REMARK VINA RESULT:      -8.2      1.205      1.238
REMARK  Name = 
REMARK  4 active torsions:
REMARK  status: ('A' for Active; 'I' for Inactive)
REMARK    1  A    between atoms: C_1  and  C_2
REMARK    2  A    between atoms: C_4  and  N_5
REMARK    3  A    between atoms: C_8  and  N_9
REMARK    4  A    between atoms: N_12  and  C_13
REMARK                            x       y       z     vdW  Elec       q    Type
REMARK                         _______ _______ _______ _____ _____    ______ ____
ROOT
ATOM      1  N   UNL     1       2.187   7.386  18.825  0.00  0.00    +0.000 N 
ATOM      2  C   UNL     1       2.053   7.870  20.196  0.00  0.00    +0.000 C 
ATOM      3  C   UNL     1       0.776   8.689  20.284  0.00  0.00    +0.000 C 
ATOM      4  C   UNL     1       0.752   9.803  19.243  0.00  0.00    +0.000 C 
ATOM      5  C   UNL     1       1.083   9.300  17.827  0.00  0.00    +0.000 C 
ATOM      6  C   UNL     1       2.335   8.422  17.803  0.00  0.00    +0.000 C 
ENDROOT
BRANCH   1  10
ATOM      7  C   UNL     1       0.884   2.654  18.686  0.00  0.00    +0.000 C 
ATOM      8  C   UNL     1       1.908   3.733  18.500  0.00  0.00    +0.000 A 
ATOM      9  C   UNL     1       1.632   5.039  18.867  0.00  0.00    +0.000 A 
ATOM     10  C   UNL     1       2.554   6.061  18.603  0.00  0.00    +0.000 A 
ATOM     11  C   UNL     1       3.786   5.695  17.991  0.00  0.00    +0.000 A 
ATOM     12  C   UNL     1       4.805   6.609  17.623  0.00  0.00    +0.000 A 
ATOM     13  C   UNL     1       5.956   6.193  16.969  0.00  0.00    +0.000 A 
ATOM     14  F   UNL     1       6.890   7.092  16.637  0.00  0.00    +0.000 F 
ATOM     15  C   UNL     1       6.129   4.865  16.641  0.00  0.00    +0.000 A 
ATOM     16  C   UNL     1       5.137   3.948  16.997  0.00  0.00    +0.000 A 
ATOM     17  C   UNL     1       3.977   4.332  17.661  0.00  0.00    +0.000 A 
ATOM     18  N   UNL     1       3.069   3.378  17.915  0.00  0.00    +0.000 NA
ENDBRANCH   1  10
BRANCH   4  19
ATOM     19  N   UNL     1       1.597  10.927  19.636  0.00  0.00    +0.000 N 
ATOM     20  C   UNL     1       1.244  12.186  19.217  0.00  0.00    +0.000 C 
ATOM     21  O   UNL     1       0.243  12.363  18.538  0.00  0.00    +0.000 OA
ATOM     22  N   UNL     1       2.100  13.166  19.668  0.00  0.00    +0.000 N 
ATOM     23  H   UNL     1       2.511  10.767  20.033  0.00  0.00    +0.000 HD
ATOM     24  H   UNL     1       3.043  12.888  19.890  0.00  0.00    +0.000 HD
BRANCH  22  25
ATOM     25  C   UNL     1       1.861  14.544  19.472  0.00  0.00    +0.000 A 
ATOM     26  C   UNL     1       0.956  15.261  20.264  0.00  0.00    +0.000 A 
ATOM     27  C   UNL     1       0.634  16.582  19.966  0.00  0.00    +0.000 A 
ATOM     28  C   UNL     1       1.247  17.214  18.892  0.00  0.00    +0.000 A 
ATOM     29  C   UNL     1       2.213  16.536  18.147  0.00  0.00    +0.000 A 
ATOM     30  C   UNL     1       2.530  15.206  18.442  0.00  0.00    +0.000 A 
ENDBRANCH  22  25
ENDBRANCH   4  19
TORSDOF 3
ENDMDL
MODEL 9
REMARK VINA RESULT:      -8.2      3.510      9.653
REMARK  Name = 
REMARK  4 active torsions:
REMARK  status: ('A' for Active; 'I' for Inactive)
REMARK    1  A    between atoms: C_1  and  C_2
REMARK    2  A    between atoms: C_4  and  N_5
REMARK    3  A    between atoms: C_8  and  N_9
REMARK    4  A    between atoms: N_12  and  C_13
REMARK                            x       y       z     vdW  Elec       q    Type
REMARK                         _______ _______ _______ _____ _____    ______ ____
ROOT
ATOM      1  N   UNL     1      -0.519  10.483  21.581  0.00  0.00    +0.000 N 
ATOM      2  C   UNL     1      -0.026   9.674  22.693  0.00  0.00    +0.000 C 
ATOM      3  C   UNL     1       1.439   9.363  22.436  0.00  0.00    +0.000 C 
ATOM      4  C   UNL     1       1.642   8.709  21.073  0.00  0.00    +0.000 C 
ATOM      5  C   UNL     1       0.951   9.480  19.935  0.00  0.00    +0.000 C 
ATOM      6  C   UNL     1      -0.498   9.834  20.271  0.00  0.00    +0.000 C 
ENDROOT
BRANCH   1  10
ATOM      7  C   UNL     1      -3.811  12.675  24.492  0.00  0.00    +0.000 C 
ATOM      8  C   UNL     1      -2.904  12.695  23.298  0.00  0.00    +0.000 A 
ATOM      9  C   UNL     1      -2.230  11.552  22.905  0.00  0.00    +0.000 A 
ATOM     10  C   UNL     1      -1.309  11.599  21.849  0.00  0.00    +0.000 A 
ATOM     11  C   UNL     1      -1.135  12.844  21.181  0.00  0.00    +0.000 A 
ATOM     12  C   UNL     1      -0.217  13.069  20.124  0.00  0.00    +0.000 A 
ATOM     13  C   UNL     1      -0.050  14.326  19.561  0.00  0.00    +0.000 A 
ATOM     14  F   UNL     1       0.831  14.493  18.566  0.00  0.00    +0.000 F 
ATOM     15  C   UNL     1      -0.768  15.403  20.034  0.00  0.00    +0.000 A 
ATOM     16  C   UNL     1      -1.678  15.202  21.074  0.00  0.00    +0.000 A 
ATOM     17  C   UNL     1      -1.876  13.953  21.654  0.00  0.00    +0.000 A 
ATOM     18  N   UNL     1      -2.741  13.880  22.676  0.00  0.00    +0.000 NA
ENDBRANCH   1  10
BRANCH   4  19
ATOM     19  N   UNL     1       1.261   7.300  21.089  0.00  0.00    +0.000 N 
ATOM     20  C   UNL     1       1.915   6.437  20.245  0.00  0.00    +0.000 C 
ATOM     21  O   UNL     1       2.800   6.838  19.503  0.00  0.00    +0.000 OA
ATOM     22  N   UNL     1       1.488   5.134  20.365  0.00  0.00    +0.000 N 
ATOM     23  H   UNL     1       0.417   7.002  21.557  0.00  0.00    +0.000 HD
ATOM     24  H   UNL     1       0.552   4.986  20.711  0.00  0.00    +0.000 HD
BRANCH  22  25
ATOM     25  C   UNL     1       2.108   4.058  19.693  0.00  0.00    +0.000 A 
ATOM     26  C   UNL     1       1.638   3.582  18.462  0.00  0.00    +0.000 A 
ATOM     27  C   UNL     1       2.177   2.435  17.886  0.00  0.00    +0.000 A 
ATOM     28  C   UNL     1       3.223   1.774  18.517  0.00  0.00    +0.000 A 
ATOM     29  C   UNL     1       3.755   2.287  19.701  0.00  0.00    +0.000 A 
ATOM     30  C   UNL     1       3.207   3.434  20.283  0.00  0.00    +0.000 A 
ENDBRANCH  22  25
ENDBRANCH   4  19
TORSDOF 3
ENDMDL
