MODEL 1
REMARK VINA RESULT:      -6.7      0.000      0.000
REMARK  Name = 
REMARK  13 active torsions:
REMARK  status: ('A' for Active; 'I' for Inactive)
REMARK    1  A    between atoms: C_1  and  N_2
REMARK    2  A    between atoms: N_2  and  C_3
REMARK    3  A    between atoms: N_2  and  C_4
REMARK    4  A    between atoms: C_4  and  C_5
REMARK    5  A    between atoms: C_5  and  N_6
REMARK    6  A    between atoms: C_7  and  C_9
REMARK    7  A    between atoms: C_12  and  N_13
REMARK    8  A    between atoms: N_13  and  C_14
REMARK    9  A    between atoms: N_13  and  C_17
REMARK   10  A    between atoms: C_14  and  C_15
REMARK   11  A    between atoms: C_17  and  C_18
REMARK   12  A    between atoms: C_20  and  N_21
REMARK   13  A    between atoms: C_24  and  N_25
REMARK                            x       y       z     vdW  Elec       q    Type
REMARK                         _______ _______ _______ _____ _____    ______ ____
ROOT
ATOM      1  C   UNL     1       2.936   6.976  18.314  0.00  0.00    +0.000 A 
ATOM      2  C   UNL     1       3.869   7.516  17.436  0.00  0.00    +0.000 A 
ATOM      3  C   UNL     1       4.882   6.725  16.877  0.00  0.00    +0.000 A 
ATOM      4  C   UNL     1       5.072   5.348  17.147  0.00  0.00    +0.000 A 
ATOM      5  C   UNL     1       4.089   4.824  18.030  0.00  0.00    +0.000 A 
ATOM      6  C   UNL     1       3.067   5.624  18.617  0.00  0.00    +0.000 A 
ENDROOT
BRANCH   1   8
ATOM      7  N   UNL     1       1.736   8.011  20.186  0.00  0.00    +0.000 N 
ATOM      8  C   UNL     1       1.929   7.936  18.835  0.00  0.00    +0.000 C 
ATOM      9  O   UNL     1       1.260   8.575  18.024  0.00  0.00    +0.000 OA
ATOM     10  H   UNL     1       2.177   7.355  20.827  0.00  0.00    +0.000 HD
BRANCH   7  11
ATOM     11  C   UNL     1       0.637   8.777  20.752  0.00  0.00    +0.000 C 
BRANCH  11  12
ATOM     12  C   UNL     1       1.084  10.177  21.220  0.00  0.00    +0.000 C 
BRANCH  12  14
ATOM     13  C   UNL     1      -0.828  11.555  21.855  0.00  0.00    +0.000 C 
ATOM     14  N   UNL     1       0.288  10.736  22.339  0.00  0.00    +0.000 NA
ATOM     15  C   UNL     1      -0.234   9.638  23.162  0.00  0.00    +0.000 C 
ENDBRANCH  12  14
ENDBRANCH  11  12
ENDBRANCH   7  11
ENDBRANCH   1   8
BRANCH   5  16
ATOM     16  N   UNL     1       4.005   3.413  18.340  0.00  0.00    +0.000 N 
ATOM     17  O   UNL     1       3.327   2.701  17.595  0.00  0.00    +0.000 OA
ATOM     18  O   UNL     1       4.661   3.028  19.311  0.00  0.00    +0.000 OA
ENDBRANCH   5  16
BRANCH   6  19
ATOM     19  N   UNL     1       2.230   5.047  19.644  0.00  0.00    +0.000 N 
ATOM     20  O   UNL     1       1.207   4.462  19.270  0.00  0.00    +0.000 OA
ATOM     21  O   UNL     1       2.619   5.164  20.808  0.00  0.00    +0.000 OA
ENDBRANCH   6  19
BRANCH   4  22
ATOM     22  N   UNL     1       6.175   4.707  16.566  0.00  0.00    +0.000 N 
BRANCH  22  23
ATOM     23  C   UNL     1       7.527   4.574  17.182  0.00  0.00    +0.000 C 
BRANCH  23  24
ATOM     24  C   UNL     1       7.683   5.209  18.568  0.00  0.00    +0.000 C 
ATOM     25 CL   UNL     1       8.054   6.950  18.485  0.00  0.00    +0.000 Cl
ENDBRANCH  23  24
ENDBRANCH  22  23
BRANCH  22  26
ATOM     26  C   UNL     1       5.988   3.798  15.381  0.00  0.00    +0.000 C 
BRANCH  26  27
ATOM     27  C   UNL     1       6.594   4.332  14.075  0.00  0.00    +0.000 C 
ATOM     28 CL   UNL     1       5.900   3.460  12.678  0.00  0.00    +0.000 Cl
ENDBRANCH  26  27
ENDBRANCH  22  26
ENDBRANCH   4  22
TORSDOF 11
ENDMDL
MODEL 2
REMARK VINA RESULT:      -6.4      0.415      2.384
REMARK  Name = 
REMARK  13 active torsions:
REMARK  status: ('A' for Active; 'I' for Inactive)
REMARK    1  A    between atoms: C_1  and  N_2
REMARK    2  A    between atoms: N_2  and  C_3
REMARK    3  A    between atoms: N_2  and  C_4
REMARK    4  A    between atoms: C_4  and  C_5
REMARK    5  A    between atoms: C_5  and  N_6
REMARK    6  A    between atoms: C_7  and  C_9
REMARK    7  A    between atoms: C_12  and  N_13
REMARK    8  A    between atoms: N_13  and  C_14
REMARK    9  A    between atoms: N_13  and  C_17
REMARK   10  A    between atoms: C_14  and  C_15
REMARK   11  A    between atoms: C_17  and  C_18
REMARK   12  A    between atoms: C_20  and  N_21
REMARK   13  A    between atoms: C_24  and  N_25
REMARK                            x       y       z     vdW  Elec       q    Type
REMARK                         _______ _______ _______ _____ _____    ______ ____
ROOT
ATOM      1  C   UNL     1       2.877   7.061  18.497  0.00  0.00    +0.000 A 
ATOM      2  C   UNL     1       3.753   7.692  17.622  0.00  0.00    +0.000 A 
ATOM      3  C   UNL     1       4.749   6.973  16.947  0.00  0.00    +0.000 A 
ATOM      4  C   UNL     1       4.978   5.584  17.090  0.00  0.00    +0.000 A 
ATOM      5  C   UNL     1       4.053   4.966  17.976  0.00  0.00    +0.000 A 
ATOM      6  C   UNL     1       3.049   5.692  18.679  0.00  0.00    +0.000 A 
ENDROOT
BRANCH   1   8
ATOM      7  N   UNL     1       1.760   7.910  20.509  0.00  0.00    +0.000 N 
ATOM      8  C   UNL     1       1.882   7.951  19.148  0.00  0.00    +0.000 C 
ATOM      9  O   UNL     1       1.159   8.639  18.429  0.00  0.00    +0.000 OA
ATOM     10  H   UNL     1       2.247   7.214  21.069  0.00  0.00    +0.000 HD
BRANCH   7  11
ATOM     11  C   UNL     1       0.679   8.602  21.193  0.00  0.00    +0.000 C 
BRANCH  11  12
ATOM     12  C   UNL     1       1.024  10.078  21.482  0.00  0.00    +0.000 C 
BRANCH  12  14
ATOM     13  C   UNL     1      -0.782  11.589  22.123  0.00  0.00    +0.000 C 
ATOM     14  N   UNL     1       0.262  10.680  22.603  0.00  0.00    +0.000 NA
ATOM     15  C   UNL     1      -0.351   9.613  23.405  0.00  0.00    +0.000 C 
ENDBRANCH  12  14
ENDBRANCH  11  12
ENDBRANCH   7  11
ENDBRANCH   1   8
BRANCH   5  16
ATOM     16  N   UNL     1       4.011   3.533  18.170  0.00  0.00    +0.000 N 
ATOM     17  O   UNL     1       3.344   2.865  17.376  0.00  0.00    +0.000 OA
ATOM     18  O   UNL     1       4.687   3.088  19.101  0.00  0.00    +0.000 OA
ENDBRANCH   5  16
BRANCH   6  19
ATOM     19  N   UNL     1       2.277   5.013  19.696  0.00  0.00    +0.000 N 
ATOM     20  O   UNL     1       1.267   4.405  19.321  0.00  0.00    +0.000 OA
ATOM     21  O   UNL     1       2.706   5.074  20.850  0.00  0.00    +0.000 OA
ENDBRANCH   6  19
BRANCH   4  22
ATOM     22  N   UNL     1       6.060   5.018  16.402  0.00  0.00    +0.000 N 
BRANCH  22  23
ATOM     23  C   UNL     1       6.280   5.079  14.928  0.00  0.00    +0.000 C 
BRANCH  23  24
ATOM     24  C   UNL     1       6.020   3.772  14.170  0.00  0.00    +0.000 C 
ATOM     25 CL   UNL     1       6.643   3.814  12.501  0.00  0.00    +0.000 Cl
ENDBRANCH  23  24
ENDBRANCH  22  23
BRANCH  22  26
ATOM     26  C   UNL     1       7.285   4.569  17.151  0.00  0.00    +0.000 C 
BRANCH  26  27
ATOM     27  C   UNL     1       7.527   5.317  18.471  0.00  0.00    +0.000 C 
ATOM     28 CL   UNL     1       7.902   7.032  18.142  0.00  0.00    +0.000 Cl
ENDBRANCH  26  27
ENDBRANCH  22  26
ENDBRANCH   4  22
TORSDOF 11
ENDMDL
MODEL 3
REMARK VINA RESULT:      -6.4      1.265      2.781
REMARK  Name = 
REMARK  13 active torsions:
REMARK  status: ('A' for Active; 'I' for Inactive)
REMARK    1  A    between atoms: C_1  and  N_2
REMARK    2  A    between atoms: N_2  and  C_3
REMARK    3  A    between atoms: N_2  and  C_4
REMARK    4  A    between atoms: C_4  and  C_5
REMARK    5  A    between atoms: C_5  and  N_6
REMARK    6  A    between atoms: C_7  and  C_9
REMARK    7  A    between atoms: C_12  and  N_13
REMARK    8  A    between atoms: N_13  and  C_14
REMARK    9  A    between atoms: N_13  and  C_17
REMARK   10  A    between atoms: C_14  and  C_15
REMARK   11  A    between atoms: C_17  and  C_18
REMARK   12  A    between atoms: C_20  and  N_21
REMARK   13  A    between atoms: C_24  and  N_25
REMARK                            x       y       z     vdW  Elec       q    Type
REMARK                         _______ _______ _______ _____ _____    ______ ____
ROOT
ATOM      1  C   UNL     1       3.099   6.971  18.274  0.00  0.00    +0.000 A 
ATOM      2  C   UNL     1       4.070   7.537  17.454  0.00  0.00    +0.000 A 
ATOM      3  C   UNL     1       5.150   6.781  16.981  0.00  0.00    +0.000 A 
ATOM      4  C   UNL     1       5.377   5.418  17.287  0.00  0.00    +0.000 A 
ATOM      5  C   UNL     1       4.357   4.866  18.109  0.00  0.00    +0.000 A 
ATOM      6  C   UNL     1       3.264   5.631  18.609  0.00  0.00    +0.000 A 
ENDROOT
BRANCH   1   8
ATOM      7  N   UNL     1       1.442   8.709  17.771  0.00  0.00    +0.000 N 
ATOM      8  C   UNL     1       2.020   7.896  18.707  0.00  0.00    +0.000 C 
ATOM      9  O   UNL     1       1.739   7.943  19.903  0.00  0.00    +0.000 OA
ATOM     10  H   UNL     1       1.806   8.776  16.823  0.00  0.00    +0.000 HD
BRANCH   7  11
ATOM     11  C   UNL     1       0.526   9.771  18.155  0.00  0.00    +0.000 C 
BRANCH  11  12
ATOM     12  C   UNL     1       1.269  11.023  18.664  0.00  0.00    +0.000 C 
BRANCH  12  14
ATOM     13  C   UNL     1      -0.906  11.824  19.433  0.00  0.00    +0.000 C 
ATOM     14  N   UNL     1       0.535  11.796  19.697  0.00  0.00    +0.000 NA
ATOM     15  C   UNL     1       0.778  11.200  21.016  0.00  0.00    +0.000 C 
ENDBRANCH  12  14
ENDBRANCH  11  12
ENDBRANCH   7  11
ENDBRANCH   1   8
BRANCH   5  16
ATOM     16  N   UNL     1       4.309   3.457  18.437  0.00  0.00    +0.000 N 
ATOM     17  O   UNL     1       3.678   2.713  17.681  0.00  0.00    +0.000 OA
ATOM     18  O   UNL     1       4.945   3.107  19.434  0.00  0.00    +0.000 OA
ENDBRANCH   5  16
BRANCH   6  19
ATOM     19  N   UNL     1       2.381   5.034  19.586  0.00  0.00    +0.000 N 
ATOM     20  O   UNL     1       1.351   4.500  19.157  0.00  0.00    +0.000 OA
ATOM     21  O   UNL     1       2.741   5.084  20.764  0.00  0.00    +0.000 OA
ENDBRANCH   6  19
BRANCH   4  22
ATOM     22  N   UNL     1       6.543   4.815  16.795  0.00  0.00    +0.000 N 
BRANCH  22  23
ATOM     23  C   UNL     1       6.882   4.625  15.355  0.00  0.00    +0.000 C 
BRANCH  23  24
ATOM     24  C   UNL     1       5.716   4.198  14.456  0.00  0.00    +0.000 C 
ATOM     25 CL   UNL     1       6.259   3.621  12.860  0.00  0.00    +0.000 Cl
ENDBRANCH  23  24
ENDBRANCH  22  23
BRANCH  22  26
ATOM     26  C   UNL     1       7.725   4.596  17.701  0.00  0.00    +0.000 C 
BRANCH  26  27
ATOM     27  C   UNL     1       7.732   5.485  18.954  0.00  0.00    +0.000 C 
ATOM     28 CL   UNL     1       8.196   7.154  18.517  0.00  0.00    +0.000 Cl
ENDBRANCH  26  27
ENDBRANCH  22  26
ENDBRANCH   4  22
TORSDOF 11
ENDMDL
MODEL 4
REMARK VINA RESULT:      -6.4      0.889      2.773
REMARK  Name = 
REMARK  13 active torsions:
REMARK  status: ('A' for Active; 'I' for Inactive)
REMARK    1  A    between atoms: C_1  and  N_2
REMARK    2  A    between atoms: N_2  and  C_3
REMARK    3  A    between atoms: N_2  and  C_4
REMARK    4  A    between atoms: C_4  and  C_5
REMARK    5  A    between atoms: C_5  and  N_6
REMARK    6  A    between atoms: C_7  and  C_9
REMARK    7  A    between atoms: C_12  and  N_13
REMARK    8  A    between atoms: N_13  and  C_14
REMARK    9  A    between atoms: N_13  and  C_17
REMARK   10  A    between atoms: C_14  and  C_15
REMARK   11  A    between atoms: C_17  and  C_18
REMARK   12  A    between atoms: C_20  and  N_21
REMARK   13  A    between atoms: C_24  and  N_25
REMARK                            x       y       z     vdW  Elec       q    Type
REMARK                         _______ _______ _______ _____ _____    ______ ____
ROOT
ATOM      1  C   UNL     1       3.088   6.939  18.240  0.00  0.00    +0.000 A 
ATOM      2  C   UNL     1       4.066   7.468  17.405  0.00  0.00    +0.000 A 
ATOM      3  C   UNL     1       5.141   6.688  16.960  0.00  0.00    +0.000 A 
ATOM      4  C   UNL     1       5.354   5.333  17.311  0.00  0.00    +0.000 A 
ATOM      5  C   UNL     1       4.325   4.817  18.147  0.00  0.00    +0.000 A 
ATOM      6  C   UNL     1       3.239   5.609  18.618  0.00  0.00    +0.000 A 
ENDROOT
BRANCH   1   8
ATOM      7  N   UNL     1       1.795   8.100  19.971  0.00  0.00    +0.000 N 
ATOM      8  C   UNL     1       2.017   7.888  18.639  0.00  0.00    +0.000 C 
ATOM      9  O   UNL     1       1.325   8.390  17.755  0.00  0.00    +0.000 OA
ATOM     10  H   UNL     1       2.263   7.547  20.686  0.00  0.00    +0.000 HD
BRANCH   7  11
ATOM     11  C   UNL     1       0.642   8.855  20.435  0.00  0.00    +0.000 C 
BRANCH  11  12
ATOM     12  C   UNL     1       1.011  10.305  20.812  0.00  0.00    +0.000 C 
BRANCH  12  14
ATOM     13  C   UNL     1      -0.013  12.517  20.680  0.00  0.00    +0.000 C 
ATOM     14  N   UNL     1       0.425  11.340  19.925  0.00  0.00    +0.000 NA
ATOM     15  C   UNL     1       1.420  11.745  18.925  0.00  0.00    +0.000 C 
ENDBRANCH  12  14
ENDBRANCH  11  12
ENDBRANCH   7  11
ENDBRANCH   1   8
BRANCH   5  16
ATOM     16  N   UNL     1       4.263   3.421  18.520  0.00  0.00    +0.000 N 
ATOM     17  O   UNL     1       3.613   2.661  17.797  0.00  0.00    +0.000 OA
ATOM     18  O   UNL     1       4.907   3.094  19.520  0.00  0.00    +0.000 OA
ENDBRANCH   5  16
BRANCH   6  19
ATOM     19  N   UNL     1       2.347   5.053  19.611  0.00  0.00    +0.000 N 
ATOM     20  O   UNL     1       2.668   5.199  20.797  0.00  0.00    +0.000 OA
ATOM     21  O   UNL     1       1.326   4.502  19.194  0.00  0.00    +0.000 OA
ENDBRANCH   6  19
BRANCH   4  22
ATOM     22  N   UNL     1       6.515   4.703  16.843  0.00  0.00    +0.000 N 
BRANCH  22  23
ATOM     23  C   UNL     1       6.785   4.317  15.428  0.00  0.00    +0.000 C 
BRANCH  23  24
ATOM     24  C   UNL     1       5.561   4.312  14.504  0.00  0.00    +0.000 C 
ATOM     25 CL   UNL     1       5.910   3.592  12.912  0.00  0.00    +0.000 Cl
ENDBRANCH  23  24
ENDBRANCH  22  23
BRANCH  22  26
ATOM     26  C   UNL     1       7.752   4.657  17.700  0.00  0.00    +0.000 C 
BRANCH  26  27
ATOM     27  C   UNL     1       7.681   5.538  18.956  0.00  0.00    +0.000 C 
ATOM     28 CL   UNL     1       8.225   7.196  18.571  0.00  0.00    +0.000 Cl
ENDBRANCH  26  27
ENDBRANCH  22  26
ENDBRANCH   4  22
TORSDOF 11
ENDMDL
MODEL 5
REMARK VINA RESULT:      -6.3      0.718      1.251
REMARK  Name = 
REMARK  13 active torsions:
REMARK  status: ('A' for Active; 'I' for Inactive)
REMARK    1  A    between atoms: C_1  and  N_2
REMARK    2  A    between atoms: N_2  and  C_3
REMARK    3  A    between atoms: N_2  and  C_4
REMARK    4  A    between atoms: C_4  and  C_5
REMARK    5  A    between atoms: C_5  and  N_6
REMARK    6  A    between atoms: C_7  and  C_9
REMARK    7  A    between atoms: C_12  and  N_13
REMARK    8  A    between atoms: N_13  and  C_14
REMARK    9  A    between atoms: N_13  and  C_17
REMARK   10  A    between atoms: C_14  and  C_15
REMARK   11  A    between atoms: C_17  and  C_18
REMARK   12  A    between atoms: C_20  and  N_21
REMARK   13  A    between atoms: C_24  and  N_25
REMARK                            x       y       z     vdW  Elec       q    Type
REMARK                         _______ _______ _______ _____ _____    ______ ____
ROOT
ATOM      1  C   UNL     1       2.718   7.051  18.680  0.00  0.00    +0.000 A 
ATOM      2  C   UNL     1       3.548   7.738  17.801  0.00  0.00    +0.000 A 
ATOM      3  C   UNL     1       4.484   7.062  17.008  0.00  0.00    +0.000 A 
ATOM      4  C   UNL     1       4.695   5.662  17.025  0.00  0.00    +0.000 A 
ATOM      5  C   UNL     1       3.818   4.989  17.918  0.00  0.00    +0.000 A 
ATOM      6  C   UNL     1       2.875   5.670  18.741  0.00  0.00    +0.000 A 
ENDROOT
BRANCH   1   8
ATOM      7  N   UNL     1       1.656   7.666  20.804  0.00  0.00    +0.000 N 
ATOM      8  C   UNL     1       1.785   7.901  19.463  0.00  0.00    +0.000 C 
ATOM      9  O   UNL     1       1.113   8.736  18.860  0.00  0.00    +0.000 OA
ATOM     10  H   UNL     1       2.092   6.862  21.250  0.00  0.00    +0.000 HD
BRANCH   7  11
ATOM     11  C   UNL     1       0.622   8.321  21.590  0.00  0.00    +0.000 C 
BRANCH  11  12
ATOM     12  C   UNL     1       1.016   9.759  21.985  0.00  0.00    +0.000 C 
BRANCH  12  14
ATOM     13  C   UNL     1      -0.721  11.434  22.351  0.00  0.00    +0.000 C 
ATOM     14  N   UNL     1       0.177  10.817  21.371  0.00  0.00    +0.000 NA
ATOM     15  C   UNL     1       1.044  11.849  20.787  0.00  0.00    +0.000 C 
ENDBRANCH  12  14
ENDBRANCH  11  12
ENDBRANCH   7  11
ENDBRANCH   1   8
BRANCH   5  16
ATOM     16  N   UNL     1       3.761   3.545  18.001  0.00  0.00    +0.000 N 
ATOM     17  O   UNL     1       4.461   2.991  18.853  0.00  0.00    +0.000 OA
ATOM     18  O   UNL     1       2.978   2.985  17.231  0.00  0.00    +0.000 OA
ENDBRANCH   5  16
BRANCH   6  19
ATOM     19  N   UNL     1       2.159   4.923  19.750  0.00  0.00    +0.000 N 
ATOM     20  O   UNL     1       2.670   4.869  20.876  0.00  0.00    +0.000 OA
ATOM     21  O   UNL     1       1.083   4.425  19.413  0.00  0.00    +0.000 OA
ENDBRANCH   6  19
BRANCH   4  22
ATOM     22  N   UNL     1       5.720   5.138  16.224  0.00  0.00    +0.000 N 
BRANCH  22  23
ATOM     23  C   UNL     1       6.923   4.409  16.719  0.00  0.00    +0.000 C 
BRANCH  23  24
ATOM     24  C   UNL     1       7.514   4.933  18.033  0.00  0.00    +0.000 C 
ATOM     25 CL   UNL     1       7.806   6.690  18.000  0.00  0.00    +0.000 Cl
ENDBRANCH  23  24
ENDBRANCH  22  23
BRANCH  22  26
ATOM     26  C   UNL     1       5.520   4.984  14.741  0.00  0.00    +0.000 C 
BRANCH  26  27
ATOM     27  C   UNL     1       6.371   3.875  14.102  0.00  0.00    +0.000 C 
ATOM     28 CL   UNL     1       5.687   3.416  12.517  0.00  0.00    +0.000 Cl
ENDBRANCH  26  27
ENDBRANCH  22  26
ENDBRANCH   4  22
TORSDOF 11
ENDMDL
MODEL 6
REMARK VINA RESULT:      -6.3      0.736      1.094
REMARK  Name = 
REMARK  13 active torsions:
REMARK  status: ('A' for Active; 'I' for Inactive)
REMARK    1  A    between atoms: C_1  and  N_2
REMARK    2  A    between atoms: N_2  and  C_3
REMARK    3  A    between atoms: N_2  and  C_4
REMARK    4  A    between atoms: C_4  and  C_5
REMARK    5  A    between atoms: C_5  and  N_6
REMARK    6  A    between atoms: C_7  and  C_9
REMARK    7  A    between atoms: C_12  and  N_13
REMARK    8  A    between atoms: N_13  and  C_14
REMARK    9  A    between atoms: N_13  and  C_17
REMARK   10  A    between atoms: C_14  and  C_15
REMARK   11  A    between atoms: C_17  and  C_18
REMARK   12  A    between atoms: C_20  and  N_21
REMARK   13  A    between atoms: C_24  and  N_25
REMARK                            x       y       z     vdW  Elec       q    Type
REMARK                         _______ _______ _______ _____ _____    ______ ____
ROOT
ATOM      1  C   UNL     1       2.764   6.986  18.681  0.00  0.00    +0.000 A 
ATOM      2  C   UNL     1       3.652   7.569  17.784  0.00  0.00    +0.000 A 
ATOM      3  C   UNL     1       4.600   6.800  17.097  0.00  0.00    +0.000 A 
ATOM      4  C   UNL     1       4.766   5.402  17.245  0.00  0.00    +0.000 A 
ATOM      5  C   UNL     1       3.830   4.835  18.153  0.00  0.00    +0.000 A 
ATOM      6  C   UNL     1       2.875   5.611  18.869  0.00  0.00    +0.000 A 
ENDROOT
BRANCH   1   8
ATOM      7  N   UNL     1       1.638   7.820  20.694  0.00  0.00    +0.000 N 
ATOM      8  C   UNL     1       1.825   7.926  19.343  0.00  0.00    +0.000 C 
ATOM      9  O   UNL     1       1.199   8.717  18.639  0.00  0.00    +0.000 OA
ATOM     10  H   UNL     1       2.035   7.052  21.230  0.00  0.00    +0.000 HD
BRANCH   7  11
ATOM     11  C   UNL     1       0.594   8.570  21.374  0.00  0.00    +0.000 C 
BRANCH  11  12
ATOM     12  C   UNL     1       1.129   9.871  22.005  0.00  0.00    +0.000 C 
BRANCH  12  14
ATOM     13  C   UNL     1       1.309  11.912  20.679  0.00  0.00    +0.000 C 
ATOM     14  N   UNL     1       0.446  11.105  21.546  0.00  0.00    +0.000 NA
ATOM     15  C   UNL     1      -0.776  10.743  20.817  0.00  0.00    +0.000 C 
ENDBRANCH  12  14
ENDBRANCH  11  12
ENDBRANCH   7  11
ENDBRANCH   1   8
BRANCH   5  16
ATOM     16  N   UNL     1       3.725   3.406  18.358  0.00  0.00    +0.000 N 
ATOM     17  O   UNL     1       2.970   2.773  17.615  0.00  0.00    +0.000 OA
ATOM     18  O   UNL     1       4.439   2.928  19.244  0.00  0.00    +0.000 OA
ENDBRANCH   5  16
BRANCH   6  19
ATOM     19  N   UNL     1       2.092   4.976  19.906  0.00  0.00    +0.000 N 
ATOM     20  O   UNL     1       2.560   4.994  21.051  0.00  0.00    +0.000 OA
ATOM     21  O   UNL     1       1.010   4.494  19.567  0.00  0.00    +0.000 OA
ENDBRANCH   6  19
BRANCH   4  22
ATOM     22  N   UNL     1       5.807   4.782  16.541  0.00  0.00    +0.000 N 
BRANCH  22  23
ATOM     23  C   UNL     1       7.185   4.542  17.059  0.00  0.00    +0.000 C 
BRANCH  23  24
ATOM     24  C   UNL     1       7.754   5.650  17.952  0.00  0.00    +0.000 C 
ATOM     25 CL   UNL     1       7.227   5.499  19.648  0.00  0.00    +0.000 Cl
ENDBRANCH  23  24
ENDBRANCH  22  23
BRANCH  22  26
ATOM     26  C   UNL     1       5.516   3.998  15.290  0.00  0.00    +0.000 C 
BRANCH  26  27
ATOM     27  C   UNL     1       6.443   4.328  14.109  0.00  0.00    +0.000 C 
ATOM     28 CL   UNL     1       5.897   3.464  12.644  0.00  0.00    +0.000 Cl
ENDBRANCH  26  27
ENDBRANCH  22  26
ENDBRANCH   4  22
TORSDOF 11
ENDMDL
MODEL 7
REMARK VINA RESULT:      -6.3      0.613      2.647
REMARK  Name = 
REMARK  13 active torsions:
REMARK  status: ('A' for Active; 'I' for Inactive)
REMARK    1  A    between atoms: C_1  and  N_2
REMARK    2  A    between atoms: N_2  and  C_3
REMARK    3  A    between atoms: N_2  and  C_4
REMARK    4  A    between atoms: C_4  and  C_5
REMARK    5  A    between atoms: C_5  and  N_6
REMARK    6  A    between atoms: C_7  and  C_9
REMARK    7  A    between atoms: C_12  and  N_13
REMARK    8  A    between atoms: N_13  and  C_14
REMARK    9  A    between atoms: N_13  and  C_17
REMARK   10  A    between atoms: C_14  and  C_15
REMARK   11  A    between atoms: C_17  and  C_18
REMARK   12  A    between atoms: C_20  and  N_21
REMARK   13  A    between atoms: C_24  and  N_25
REMARK                            x       y       z     vdW  Elec       q    Type
REMARK                         _______ _______ _______ _____ _____    ______ ____
ROOT
ATOM      1  C   UNL     1       2.766   7.031  18.603  0.00  0.00    +0.000 A 
ATOM      2  C   UNL     1       3.612   7.684  17.713  0.00  0.00    +0.000 A 
ATOM      3  C   UNL     1       4.563   6.979  16.965  0.00  0.00    +0.000 A 
ATOM      4  C   UNL     1       4.775   5.582  17.041  0.00  0.00    +0.000 A 
ATOM      5  C   UNL     1       3.881   4.942  17.943  0.00  0.00    +0.000 A 
ATOM      6  C   UNL     1       2.923   5.653  18.721  0.00  0.00    +0.000 A 
ENDROOT
BRANCH   1   8
ATOM      7  N   UNL     1       1.741   7.798  20.696  0.00  0.00    +0.000 N 
ATOM      8  C   UNL     1       1.817   7.909  19.335  0.00  0.00    +0.000 C 
ATOM      9  O   UNL     1       1.088   8.651  18.680  0.00  0.00    +0.000 OA
ATOM     10  H   UNL     1       2.229   7.061  21.200  0.00  0.00    +0.000 HD
BRANCH   7  11
ATOM     11  C   UNL     1       0.702   8.478  21.452  0.00  0.00    +0.000 C 
BRANCH  11  12
ATOM     12  C   UNL     1       0.957   9.995  21.556  0.00  0.00    +0.000 C 
BRANCH  12  14
ATOM     13  C   UNL     1      -0.927  10.631  22.972  0.00  0.00    +0.000 C 
ATOM     14  N   UNL     1      -0.271  10.820  21.675  0.00  0.00    +0.000 NA
ATOM     15  C   UNL     1       0.075  12.236  21.506  0.00  0.00    +0.000 C 
ENDBRANCH  12  14
ENDBRANCH  11  12
ENDBRANCH   7  11
ENDBRANCH   1   8
BRANCH   5  16
ATOM     16  N   UNL     1       3.825   3.503  18.082  0.00  0.00    +0.000 N 
ATOM     17  O   UNL     1       4.504   2.984  18.972  0.00  0.00    +0.000 OA
ATOM     18  O   UNL     1       3.061   2.911  17.315  0.00  0.00    +0.000 OA
ENDBRANCH   5  16
BRANCH   6  19
ATOM     19  N   UNL     1       2.188   4.945  19.745  0.00  0.00    +0.000 N 
ATOM     20  O   UNL     1       2.677   4.938  20.882  0.00  0.00    +0.000 OA
ATOM     21  O   UNL     1       1.121   4.430  19.406  0.00  0.00    +0.000 OA
ENDBRANCH   6  19
BRANCH   4  22
ATOM     22  N   UNL     1       5.815   5.028  16.281  0.00  0.00    +0.000 N 
BRANCH  22  23
ATOM     23  C   UNL     1       5.965   5.143  14.801  0.00  0.00    +0.000 C 
BRANCH  23  24
ATOM     24  C   UNL     1       6.310   3.838  14.073  0.00  0.00    +0.000 C 
ATOM     25 CL   UNL     1       5.301   3.574  12.628  0.00  0.00    +0.000 Cl
ENDBRANCH  23  24
ENDBRANCH  22  23
BRANCH  22  26
ATOM     26  C   UNL     1       7.068   4.535  16.953  0.00  0.00    +0.000 C 
BRANCH  26  27
ATOM     27  C   UNL     1       7.347   5.181  18.318  0.00  0.00    +0.000 C 
ATOM     28 CL   UNL     1       7.878   6.872  18.097  0.00  0.00    +0.000 Cl
ENDBRANCH  26  27
ENDBRANCH  22  26
ENDBRANCH   4  22
TORSDOF 11
ENDMDL
MODEL 8
REMARK VINA RESULT:      -6.3      0.561      2.635
REMARK  Name = 
REMARK  13 active torsions:
REMARK  status: ('A' for Active; 'I' for Inactive)
REMARK    1  A    between atoms: C_1  and  N_2
REMARK    2  A    between atoms: N_2  and  C_3
REMARK    3  A    between atoms: N_2  and  C_4
REMARK    4  A    between atoms: C_4  and  C_5
REMARK    5  A    between atoms: C_5  and  N_6
REMARK    6  A    between atoms: C_7  and  C_9
REMARK    7  A    between atoms: C_12  and  N_13
REMARK    8  A    between atoms: N_13  and  C_14
REMARK    9  A    between atoms: N_13  and  C_17
REMARK   10  A    between atoms: C_14  and  C_15
REMARK   11  A    between atoms: C_17  and  C_18
REMARK   12  A    between atoms: C_20  and  N_21
REMARK   13  A    between atoms: C_24  and  N_25
REMARK                            x       y       z     vdW  Elec       q    Type
REMARK                         _______ _______ _______ _____ _____    ______ ____
ROOT
ATOM      1  C   UNL     1       3.179   7.183  17.817  0.00  0.00    +0.000 A 
ATOM      2  C   UNL     1       4.161   7.516  16.891  0.00  0.00    +0.000 A 
ATOM      3  C   UNL     1       5.095   6.570  16.450  0.00  0.00    +0.000 A 
ATOM      4  C   UNL     1       5.153   5.227  16.894  0.00  0.00    +0.000 A 
ATOM      5  C   UNL     1       4.123   4.913  17.823  0.00  0.00    +0.000 A 
ATOM      6  C   UNL     1       3.181   5.874  18.290  0.00  0.00    +0.000 A 
ENDROOT
BRANCH   1   8
ATOM      7  N   UNL     1       1.784   8.329  19.478  0.00  0.00    +0.000 N 
ATOM      8  C   UNL     1       2.267   8.291  18.199  0.00  0.00    +0.000 C 
ATOM      9  O   UNL     1       1.927   9.091  17.329  0.00  0.00    +0.000 OA
ATOM     10  H   UNL     1       1.942   7.566  20.132  0.00  0.00    +0.000 HD
BRANCH   7  11
ATOM     11  C   UNL     1       0.739   9.264  19.864  0.00  0.00    +0.000 C 
BRANCH  11  12
ATOM     12  C   UNL     1       0.829   9.652  21.354  0.00  0.00    +0.000 C 
BRANCH  12  14
ATOM     13  C   UNL     1      -0.615   9.979  23.296  0.00  0.00    +0.000 C 
ATOM     14  N   UNL     1      -0.382  10.322  21.890  0.00  0.00    +0.000 NA
ATOM     15  C   UNL     1      -0.232  11.777  21.762  0.00  0.00    +0.000 C 
ENDBRANCH  12  14
ENDBRANCH  11  12
ENDBRANCH   7  11
ENDBRANCH   1   8
BRANCH   5  16
ATOM     16  N   UNL     1       3.906   3.567  18.308  0.00  0.00    +0.000 N 
ATOM     17  O   UNL     1       3.142   2.842  17.664  0.00  0.00    +0.000 OA
ATOM     18  O   UNL     1       4.541   3.240  19.313  0.00  0.00    +0.000 OA
ENDBRANCH   5  16
BRANCH   6  19
ATOM     19  N   UNL     1       2.291   5.514  19.371  0.00  0.00    +0.000 N 
ATOM     20  O   UNL     1       2.697   5.716  20.522  0.00  0.00    +0.000 OA
ATOM     21  O   UNL     1       1.190   5.059  19.055  0.00  0.00    +0.000 OA
ENDBRANCH   6  19
BRANCH   4  22
ATOM     22  N   UNL     1       6.191   4.416  16.413  0.00  0.00    +0.000 N 
BRANCH  22  23
ATOM     23  C   UNL     1       6.151   3.602  15.164  0.00  0.00    +0.000 C 
BRANCH  23  24
ATOM     24  C   UNL     1       6.577   4.337  13.887  0.00  0.00    +0.000 C 
ATOM     25 CL   UNL     1       6.215   3.408  12.411  0.00  0.00    +0.000 Cl
ENDBRANCH  23  24
ENDBRANCH  22  23
BRANCH  22  26
ATOM     26  C   UNL     1       7.583   4.558  16.966  0.00  0.00    +0.000 C 
BRANCH  26  27
ATOM     27  C   UNL     1       7.636   4.996  18.438  0.00  0.00    +0.000 C 
ATOM     28 CL   UNL     1       7.985   6.745  18.543  0.00  0.00    +0.000 Cl
ENDBRANCH  26  27
ENDBRANCH  22  26
ENDBRANCH   4  22
TORSDOF 11
ENDMDL
MODEL 9
REMARK VINA RESULT:      -6.3      1.397      1.666
REMARK  Name = 
REMARK  13 active torsions:
REMARK  status: ('A' for Active; 'I' for Inactive)
REMARK    1  A    between atoms: C_1  and  N_2
REMARK    2  A    between atoms: N_2  and  C_3
REMARK    3  A    between atoms: N_2  and  C_4
REMARK    4  A    between atoms: C_4  and  C_5
REMARK    5  A    between atoms: C_5  and  N_6
REMARK    6  A    between atoms: C_7  and  C_9
REMARK    7  A    between atoms: C_12  and  N_13
REMARK    8  A    between atoms: N_13  and  C_14
REMARK    9  A    between atoms: N_13  and  C_17
REMARK   10  A    between atoms: C_14  and  C_15
REMARK   11  A    between atoms: C_17  and  C_18
REMARK   12  A    between atoms: C_20  and  N_21
REMARK   13  A    between atoms: C_24  and  N_25
REMARK                            x       y       z     vdW  Elec       q    Type
REMARK                         _______ _______ _______ _____ _____    ______ ____
ROOT
ATOM      1  C   UNL     1       2.789   6.976  18.621  0.00  0.00    +0.000 A 
ATOM      2  C   UNL     1       3.613   7.626  17.710  0.00  0.00    +0.000 A 
ATOM      3  C   UNL     1       4.501   6.910  16.896  0.00  0.00    +0.000 A 
ATOM      4  C   UNL     1       4.665   5.505  16.922  0.00  0.00    +0.000 A 
ATOM      5  C   UNL     1       3.793   4.870  17.849  0.00  0.00    +0.000 A 
ATOM      6  C   UNL     1       2.900   5.591  18.693  0.00  0.00    +0.000 A 
ENDROOT
BRANCH   1   8
ATOM      7  N   UNL     1       1.346   8.952  18.812  0.00  0.00    +0.000 N 
ATOM      8  C   UNL     1       1.909   7.865  19.423  0.00  0.00    +0.000 C 
ATOM      9  O   UNL     1       1.778   7.627  20.622  0.00  0.00    +0.000 OA
ATOM     10  H   UNL     1       1.602   9.225  17.866  0.00  0.00    +0.000 HD
BRANCH   7  11
ATOM     11  C   UNL     1       0.640   9.968  19.576  0.00  0.00    +0.000 C 
BRANCH  11  12
ATOM     12  C   UNL     1      -0.763  10.255  19.004  0.00  0.00    +0.000 C 
BRANCH  12  14
ATOM     13  C   UNL     1      -2.656  11.787  18.834  0.00  0.00    +0.000 C 
ATOM     14  N   UNL     1      -1.264  11.627  19.264  0.00  0.00    +0.000 NA
ATOM     15  C   UNL     1      -1.160  11.921  20.698  0.00  0.00    +0.000 C 
ENDBRANCH  12  14
ENDBRANCH  11  12
ENDBRANCH   7  11
ENDBRANCH   1   8
BRANCH   5  16
ATOM     16  N   UNL     1       3.691   3.430  17.949  0.00  0.00    +0.000 N 
ATOM     17  O   UNL     1       4.425   2.857  18.759  0.00  0.00    +0.000 OA
ATOM     18  O   UNL     1       2.838   2.893  17.238  0.00  0.00    +0.000 OA
ENDBRANCH   5  16
BRANCH   6  19
ATOM     19  N   UNL     1       2.190   4.879  19.732  0.00  0.00    +0.000 N 
ATOM     20  O   UNL     1       1.062   4.458  19.451  0.00  0.00    +0.000 OA
ATOM     21  O   UNL     1       2.780   4.727  20.803  0.00  0.00    +0.000 OA
ENDBRANCH   6  19
BRANCH   4  22
ATOM     22  N   UNL     1       5.646   4.938  16.096  0.00  0.00    +0.000 N 
BRANCH  22  23
ATOM     23  C   UNL     1       7.012   4.525  16.527  0.00  0.00    +0.000 C 
BRANCH  23  24
ATOM     24  C   UNL     1       7.363   4.836  17.987  0.00  0.00    +0.000 C 
ATOM     25 CL   UNL     1       7.794   6.547  18.236  0.00  0.00    +0.000 Cl
ENDBRANCH  23  24
ENDBRANCH  22  23
BRANCH  22  26
ATOM     26  C   UNL     1       5.276   4.390  14.744  0.00  0.00    +0.000 C 
BRANCH  26  27
ATOM     27  C   UNL     1       6.479   4.056  13.849  0.00  0.00    +0.000 C 
ATOM     28 CL   UNL     1       5.919   3.293  12.333  0.00  0.00    +0.000 Cl
ENDBRANCH  26  27
ENDBRANCH  22  26
ENDBRANCH   4  22
TORSDOF 11
ENDMDL
