MODEL 1
REMARK VINA RESULT:      -7.8      0.000      0.000
REMARK  Name = 
REMARK  7 active torsions:
REMARK  status: ('A' for Active; 'I' for Inactive)
REMARK    1  A    between atoms: C_2  and  C_12
REMARK    2  A    between atoms: N_3  and  C_4
REMARK    3  A    between atoms: C_4  and  C_5
REMARK    4  A    between atoms: C_5  and  N_6
REMARK    5  A    between atoms: C_14  and  C_15
REMARK    6  A    between atoms: C_15  and  C_16
REMARK    7  A    between atoms: N_22  and  C_23
REMARK                            x       y       z     vdW  Elec       q    Type
REMARK                         _______ _______ _______ _____ _____    ______ ____
ROOT
ATOM      1  C   UNL     1       1.953   8.429  18.751  0.00  0.00    +0.000 A 
ATOM      2  N   UNL     1       2.888   8.663  17.769  0.00  0.00    +0.000 NA
ATOM      3  C   UNL     1       3.405   7.477  17.508  0.00  0.00    +0.000 A 
ATOM      4  N   UNL     1       2.822   6.541  18.350  0.00  0.00    +0.000 N 
ATOM      5  N   UNL     1       1.831   7.131  19.079  0.00  0.00    +0.000 NA
ENDROOT
BRANCH   4   6
ATOM      6  C   UNL     1       3.077   5.154  18.486  0.00  0.00    +0.000 A 
ATOM      7  C   UNL     1       4.002   4.671  19.418  0.00  0.00    +0.000 A 
ATOM      8  C   UNL     1       4.297   3.308  19.468  0.00  0.00    +0.000 A 
ATOM      9  C   UNL     1       3.665   2.425  18.596  0.00  0.00    +0.000 A 
ATOM     10  C   UNL     1       2.703   2.893  17.703  0.00  0.00    +0.000 A 
ATOM     11  C   UNL     1       2.391   4.253  17.659  0.00  0.00    +0.000 A 
ENDBRANCH   4   6
BRANCH   1  13
ATOM     12  O   UNL     1       1.004   9.571  20.611  0.00  0.00    +0.000 OA
ATOM     13  C   UNL     1       1.180   9.514  19.397  0.00  0.00    +0.000 C 
ATOM     14  N   UNL     1       0.623  10.440  18.521  0.00  0.00    +0.000 N 
ATOM     15  H   UNL     1       0.680  10.193  17.541  0.00  0.00    +0.000 HD
BRANCH  14  16
ATOM     16  C   UNL     1      -0.394  11.378  18.973  0.00  0.00    +0.000 C 
BRANCH  16  17
ATOM     17  C   UNL     1      -1.563  11.576  17.977  0.00  0.00    +0.000 C 
BRANCH  17  18
ATOM     18  N   UNL     1      -2.502  10.436  17.886  0.00  0.00    +0.000 NA
ATOM     19  C   UNL     1      -2.315   9.704  16.605  0.00  0.00    +0.000 C 
ATOM     20  C   UNL     1      -2.866  10.435  15.364  0.00  0.00    +0.000 C 
ATOM     21  O   UNL     1      -4.249  10.771  15.526  0.00  0.00    +0.000 OA
ATOM     22  C   UNL     1      -4.439  11.571  16.700  0.00  0.00    +0.000 C 
ATOM     23  C   UNL     1      -3.926  10.840  17.952  0.00  0.00    +0.000 C 
ENDBRANCH  17  18
ENDBRANCH  16  17
ENDBRANCH  14  16
ENDBRANCH   1  13
BRANCH   3  24
ATOM     24  C   UNL     1       4.314   7.179  16.350  0.00  0.00    +0.000 C 
BRANCH  24  25
ATOM     25  C   UNL     1       5.507   6.288  16.643  0.00  0.00    +0.000 A 
ATOM     26  C   UNL     1       6.438   6.681  17.624  0.00  0.00    +0.000 A 
ATOM     27  C   UNL     1       7.500   5.845  17.981  0.00  0.00    +0.000 A 
ATOM     28  C   UNL     1       7.646   4.604  17.370  0.00  0.00    +0.000 A 
ATOM     29  C   UNL     1       6.733   4.199  16.399  0.00  0.00    +0.000 A 
ATOM     30  C   UNL     1       5.667   5.031  16.043  0.00  0.00    +0.000 A 
ENDBRANCH  24  25
ENDBRANCH   3  24
TORSDOF 7
ENDMDL
MODEL 2
REMARK VINA RESULT:      -7.8      2.278      4.620
REMARK  Name = 
REMARK  7 active torsions:
REMARK  status: ('A' for Active; 'I' for Inactive)
REMARK    1  A    between atoms: C_2  and  C_12
REMARK    2  A    between atoms: N_3  and  C_4
REMARK    3  A    between atoms: C_4  and  C_5
REMARK    4  A    between atoms: C_5  and  N_6
REMARK    5  A    between atoms: C_14  and  C_15
REMARK    6  A    between atoms: C_15  and  C_16
REMARK    7  A    between atoms: N_22  and  C_23
REMARK                            x       y       z     vdW  Elec       q    Type
REMARK                         _______ _______ _______ _____ _____    ______ ____
ROOT
ATOM      1  C   UNL     1       2.530   8.365  18.173  0.00  0.00    +0.000 A 
ATOM      2  N   UNL     1       2.245   7.456  19.166  0.00  0.00    +0.000 NA
ATOM      3  C   UNL     1       3.106   6.473  18.977  0.00  0.00    +0.000 A 
ATOM      4  N   UNL     1       3.875   6.762  17.859  0.00  0.00    +0.000 N 
ATOM      5  N   UNL     1       3.571   8.010  17.400  0.00  0.00    +0.000 NA
ENDROOT
BRANCH   4   6
ATOM      6  C   UNL     1       4.890   5.999  17.230  0.00  0.00    +0.000 A 
ATOM      7  C   UNL     1       4.579   4.946  16.362  0.00  0.00    +0.000 A 
ATOM      8  C   UNL     1       5.598   4.157  15.827  0.00  0.00    +0.000 A 
ATOM      9  C   UNL     1       6.927   4.421  16.149  0.00  0.00    +0.000 A 
ATOM     10  C   UNL     1       7.245   5.501  16.970  0.00  0.00    +0.000 A 
ATOM     11  C   UNL     1       6.232   6.304  17.495  0.00  0.00    +0.000 A 
ENDBRANCH   4   6
BRANCH   1  13
ATOM     12  O   UNL     1       2.253  10.668  17.642  0.00  0.00    +0.000 OA
ATOM     13  C   UNL     1       1.741   9.601  17.968  0.00  0.00    +0.000 C 
ATOM     14  N   UNL     1       0.379   9.477  18.222  0.00  0.00    +0.000 N 
ATOM     15  H   UNL     1       0.099   8.607  18.656  0.00  0.00    +0.000 HD
BRANCH  14  16
ATOM     16  C   UNL     1      -0.467  10.655  18.351  0.00  0.00    +0.000 C 
BRANCH  16  17
ATOM     17  C   UNL     1      -0.920  10.954  19.801  0.00  0.00    +0.000 C 
BRANCH  17  18
ATOM     18  N   UNL     1       0.154  11.422  20.705  0.00  0.00    +0.000 NA
ATOM     19  C   UNL     1       0.795  10.273  21.397  0.00  0.00    +0.000 C 
ATOM     20  C   UNL     1      -0.060   9.643  22.515  0.00  0.00    +0.000 C 
ATOM     21  O   UNL     1      -0.460  10.622  23.483  0.00  0.00    +0.000 OA
ATOM     22  C   UNL     1      -1.176  11.690  22.850  0.00  0.00    +0.000 C 
ATOM     23  C   UNL     1      -0.323  12.352  21.755  0.00  0.00    +0.000 C 
ENDBRANCH  17  18
ENDBRANCH  16  17
ENDBRANCH  14  16
ENDBRANCH   1  13
BRANCH   3  24
ATOM     24  C   UNL     1       3.338   5.346  19.943  0.00  0.00    +0.000 C 
BRANCH  24  25
ATOM     25  C   UNL     1       2.790   3.989  19.538  0.00  0.00    +0.000 A 
ATOM     26  C   UNL     1       1.396   3.801  19.466  0.00  0.00    +0.000 A 
ATOM     27  C   UNL     1       0.857   2.594  19.014  0.00  0.00    +0.000 A 
ATOM     28  C   UNL     1       1.701   1.559  18.622  0.00  0.00    +0.000 A 
ATOM     29  C   UNL     1       3.081   1.728  18.684  0.00  0.00    +0.000 A 
ATOM     30  C   UNL     1       3.623   2.937  19.132  0.00  0.00    +0.000 A 
ENDBRANCH  24  25
ENDBRANCH   3  24
TORSDOF 7
ENDMDL
MODEL 3
REMARK VINA RESULT:      -7.7      2.361      4.629
REMARK  Name = 
REMARK  7 active torsions:
REMARK  status: ('A' for Active; 'I' for Inactive)
REMARK    1  A    between atoms: C_2  and  C_12
REMARK    2  A    between atoms: N_3  and  C_4
REMARK    3  A    between atoms: C_4  and  C_5
REMARK    4  A    between atoms: C_5  and  N_6
REMARK    5  A    between atoms: C_14  and  C_15
REMARK    6  A    between atoms: C_15  and  C_16
REMARK    7  A    between atoms: N_22  and  C_23
REMARK                            x       y       z     vdW  Elec       q    Type
REMARK                         _______ _______ _______ _____ _____    ______ ____
ROOT
ATOM      1  C   UNL     1       2.346   7.978  17.905  0.00  0.00    +0.000 A 
ATOM      2  N   UNL     1       1.560   6.854  17.786  0.00  0.00    +0.000 NA
ATOM      3  C   UNL     1       2.417   5.859  17.652  0.00  0.00    +0.000 A 
ATOM      4  N   UNL     1       3.705   6.377  17.647  0.00  0.00    +0.000 N 
ATOM      5  N   UNL     1       3.664   7.717  17.901  0.00  0.00    +0.000 NA
ENDROOT
BRANCH   4   6
ATOM      6  C   UNL     1       4.949   5.721  17.481  0.00  0.00    +0.000 A 
ATOM      7  C   UNL     1       5.866   5.618  18.535  0.00  0.00    +0.000 A 
ATOM      8  C   UNL     1       7.119   5.045  18.317  0.00  0.00    +0.000 A 
ATOM      9  C   UNL     1       7.458   4.566  17.054  0.00  0.00    +0.000 A 
ATOM     10  C   UNL     1       6.530   4.618  16.015  0.00  0.00    +0.000 A 
ATOM     11  C   UNL     1       5.268   5.174  16.230  0.00  0.00    +0.000 A 
ENDBRANCH   4   6
BRANCH   1  13
ATOM     12  O   UNL     1       2.482  10.344  18.126  0.00  0.00    +0.000 OA
ATOM     13  C   UNL     1       1.781   9.343  18.002  0.00  0.00    +0.000 C 
ATOM     14  N   UNL     1       0.391   9.407  17.993  0.00  0.00    +0.000 N 
ATOM     15  H   UNL     1      -0.080   8.514  18.069  0.00  0.00    +0.000 HD
BRANCH  14  16
ATOM     16  C   UNL     1      -0.303  10.628  18.373  0.00  0.00    +0.000 C 
BRANCH  16  17
ATOM     17  C   UNL     1      -0.737  10.674  19.859  0.00  0.00    +0.000 C 
BRANCH  17  18
ATOM     18  N   UNL     1       0.287  11.198  20.790  0.00  0.00    +0.000 NA
ATOM     19  C   UNL     1       0.966  10.084  21.503  0.00  0.00    +0.000 C 
ATOM     20  C   UNL     1       0.114   9.414  22.599  0.00  0.00    +0.000 C 
ATOM     21  O   UNL     1      -0.362  10.372  23.552  0.00  0.00    +0.000 OA
ATOM     22  C   UNL     1      -1.114  11.401  22.897  0.00  0.00    +0.000 C 
ATOM     23  C   UNL     1      -0.266  12.104  21.824  0.00  0.00    +0.000 C 
ENDBRANCH  17  18
ENDBRANCH  16  17
ENDBRANCH  14  16
ENDBRANCH   1  13
BRANCH   3  24
ATOM     24  C   UNL     1       2.050   4.404  17.709  0.00  0.00    +0.000 C 
BRANCH  24  25
ATOM     25  C   UNL     1       2.165   3.734  19.066  0.00  0.00    +0.000 A 
ATOM     26  C   UNL     1       3.360   3.076  19.412  0.00  0.00    +0.000 A 
ATOM     27  C   UNL     1       3.534   2.524  20.684  0.00  0.00    +0.000 A 
ATOM     28  C   UNL     1       2.519   2.625  21.631  0.00  0.00    +0.000 A 
ATOM     29  C   UNL     1       1.331   3.275  21.307  0.00  0.00    +0.000 A 
ATOM     30  C   UNL     1       1.157   3.832  20.036  0.00  0.00    +0.000 A 
ENDBRANCH  24  25
ENDBRANCH   3  24
TORSDOF 7
ENDMDL
MODEL 4
REMARK VINA RESULT:      -7.6      5.643      8.537
REMARK  Name = 
REMARK  7 active torsions:
REMARK  status: ('A' for Active; 'I' for Inactive)
REMARK    1  A    between atoms: C_2  and  C_12
REMARK    2  A    between atoms: N_3  and  C_4
REMARK    3  A    between atoms: C_4  and  C_5
REMARK    4  A    between atoms: C_5  and  N_6
REMARK    5  A    between atoms: C_14  and  C_15
REMARK    6  A    between atoms: C_15  and  C_16
REMARK    7  A    between atoms: N_22  and  C_23
REMARK                            x       y       z     vdW  Elec       q    Type
REMARK                         _______ _______ _______ _____ _____    ______ ____
ROOT
ATOM      1  C   UNL     1       7.085   6.236  17.236  0.00  0.00    +0.000 A 
ATOM      2  N   UNL     1       5.804   5.826  17.533  0.00  0.00    +0.000 NA
ATOM      3  C   UNL     1       5.407   5.165  16.461  0.00  0.00    +0.000 A 
ATOM      4  N   UNL     1       6.417   5.208  15.511  0.00  0.00    +0.000 N 
ATOM      5  N   UNL     1       7.521   5.811  16.037  0.00  0.00    +0.000 NA
ENDROOT
BRANCH   4   6
ATOM      6  C   UNL     1       6.448   4.692  14.192  0.00  0.00    +0.000 A 
ATOM      7  C   UNL     1       5.481   3.787  13.740  0.00  0.00    +0.000 A 
ATOM      8  C   UNL     1       5.587   3.228  12.466  0.00  0.00    +0.000 A 
ATOM      9  C   UNL     1       6.652   3.576  11.638  0.00  0.00    +0.000 A 
ATOM     10  C   UNL     1       7.588   4.517  12.063  0.00  0.00    +0.000 A 
ATOM     11  C   UNL     1       7.478   5.092  13.329  0.00  0.00    +0.000 A 
ENDBRANCH   4   6
BRANCH   1  13
ATOM     12  O   UNL     1       8.339   6.672  19.211  0.00  0.00    +0.000 OA
ATOM     13  C   UNL     1       7.886   7.084  18.146  0.00  0.00    +0.000 C 
ATOM     14  N   UNL     1       8.046   8.403  17.732  0.00  0.00    +0.000 N 
ATOM     15  H   UNL     1       7.481   8.675  16.938  0.00  0.00    +0.000 HD
BRANCH  14  16
ATOM     16  C   UNL     1       8.546   9.418  18.648  0.00  0.00    +0.000 C 
BRANCH  16  17
ATOM     17  C   UNL     1       9.229  10.620  17.951  0.00  0.00    +0.000 C 
BRANCH  17  18
ATOM     18  N   UNL     1      10.183  11.370  18.798  0.00  0.00    +0.000 NA
ATOM     19  C   UNL     1       9.476  12.415  19.585  0.00  0.00    +0.000 C 
ATOM     20  C   UNL     1       9.030  13.641  18.763  0.00  0.00    +0.000 C 
ATOM     21  O   UNL     1      10.132  14.232  18.064  0.00  0.00    +0.000 OA
ATOM     22  C   UNL     1      10.764  13.266  17.214  0.00  0.00    +0.000 C 
ATOM     23  C   UNL     1      11.247  12.052  18.025  0.00  0.00    +0.000 C 
ENDBRANCH  17  18
ENDBRANCH  16  17
ENDBRANCH  14  16
ENDBRANCH   1  13
BRANCH   3  24
ATOM     24  C   UNL     1       4.157   4.336  16.387  0.00  0.00    +0.000 C 
BRANCH  24  25
ATOM     25  C   UNL     1       3.492   4.001  17.710  0.00  0.00    +0.000 A 
ATOM     26  C   UNL     1       2.209   4.511  17.986  0.00  0.00    +0.000 A 
ATOM     27  C   UNL     1       1.530   4.155  19.155  0.00  0.00    +0.000 A 
ATOM     28  C   UNL     1       2.120   3.279  20.062  0.00  0.00    +0.000 A 
ATOM     29  C   UNL     1       3.387   2.764  19.803  0.00  0.00    +0.000 A 
ATOM     30  C   UNL     1       4.066   3.116  18.632  0.00  0.00    +0.000 A 
ENDBRANCH  24  25
ENDBRANCH   3  24
TORSDOF 7
ENDMDL
MODEL 5
REMARK VINA RESULT:      -7.6      1.479      3.467
REMARK  Name = 
REMARK  7 active torsions:
REMARK  status: ('A' for Active; 'I' for Inactive)
REMARK    1  A    between atoms: C_2  and  C_12
REMARK    2  A    between atoms: N_3  and  C_4
REMARK    3  A    between atoms: C_4  and  C_5
REMARK    4  A    between atoms: C_5  and  N_6
REMARK    5  A    between atoms: C_14  and  C_15
REMARK    6  A    between atoms: C_15  and  C_16
REMARK    7  A    between atoms: N_22  and  C_23
REMARK                            x       y       z     vdW  Elec       q    Type
REMARK                         _______ _______ _______ _____ _____    ______ ____
ROOT
ATOM      1  C   UNL     1       2.347   8.029  17.891  0.00  0.00    +0.000 A 
ATOM      2  N   UNL     1       1.551   6.908  17.836  0.00  0.00    +0.000 NA
ATOM      3  C   UNL     1       2.397   5.902  17.710  0.00  0.00    +0.000 A 
ATOM      4  N   UNL     1       3.687   6.409  17.647  0.00  0.00    +0.000 N 
ATOM      5  N   UNL     1       3.664   7.757  17.854  0.00  0.00    +0.000 NA
ENDROOT
BRANCH   4   6
ATOM      6  C   UNL     1       4.922   5.738  17.465  0.00  0.00    +0.000 A 
ATOM      7  C   UNL     1       5.920   5.771  18.445  0.00  0.00    +0.000 A 
ATOM      8  C   UNL     1       7.159   5.176  18.201  0.00  0.00    +0.000 A 
ATOM      9  C   UNL     1       7.400   4.540  16.986  0.00  0.00    +0.000 A 
ATOM     10  C   UNL     1       6.391   4.457  16.029  0.00  0.00    +0.000 A 
ATOM     11  C   UNL     1       5.145   5.036  16.273  0.00  0.00    +0.000 A 
ENDBRANCH   4   6
BRANCH   1  13
ATOM     12  O   UNL     1       2.430  10.390  17.599  0.00  0.00    +0.000 OA
ATOM     13  C   UNL     1       1.795   9.401  17.957  0.00  0.00    +0.000 C 
ATOM     14  N   UNL     1       0.519   9.495  18.502  0.00  0.00    +0.000 N 
ATOM     15  H   UNL     1       0.169   8.645  18.926  0.00  0.00    +0.000 HD
BRANCH  14  16
ATOM     16  C   UNL     1      -0.029  10.783  18.902  0.00  0.00    +0.000 C 
BRANCH  16  17
ATOM     17  C   UNL     1      -1.254  11.237  18.069  0.00  0.00    +0.000 C 
BRANCH  17  18
ATOM     18  N   UNL     1      -2.258  10.181  17.813  0.00  0.00    +0.000 NA
ATOM     19  C   UNL     1      -2.240   9.775  16.383  0.00  0.00    +0.000 C 
ATOM     20  C   UNL     1      -2.870  10.800  15.420  0.00  0.00    +0.000 C 
ATOM     21  O   UNL     1      -4.211  11.127  15.807  0.00  0.00    +0.000 OA
ATOM     22  C   UNL     1      -4.238  11.625  17.151  0.00  0.00    +0.000 C 
ATOM     23  C   UNL     1      -3.645  10.598  18.130  0.00  0.00    +0.000 C 
ENDBRANCH  17  18
ENDBRANCH  16  17
ENDBRANCH  14  16
ENDBRANCH   1  13
BRANCH   3  24
ATOM     24  C   UNL     1       2.022   4.453  17.830  0.00  0.00    +0.000 C 
BRANCH  24  25
ATOM     25  C   UNL     1       2.218   3.818  19.195  0.00  0.00    +0.000 A 
ATOM     26  C   UNL     1       1.128   3.739  20.082  0.00  0.00    +0.000 A 
ATOM     27  C   UNL     1       1.249   3.085  21.312  0.00  0.00    +0.000 A 
ATOM     28  C   UNL     1       2.457   2.495  21.670  0.00  0.00    +0.000 A 
ATOM     29  C   UNL     1       3.544   2.561  20.803  0.00  0.00    +0.000 A 
ATOM     30  C   UNL     1       3.424   3.212  19.571  0.00  0.00    +0.000 A 
ENDBRANCH  24  25
ENDBRANCH   3  24
TORSDOF 7
ENDMDL
MODEL 6
REMARK VINA RESULT:      -7.5      1.307      3.330
REMARK  Name = 
REMARK  7 active torsions:
REMARK  status: ('A' for Active; 'I' for Inactive)
REMARK    1  A    between atoms: C_2  and  C_12
REMARK    2  A    between atoms: N_3  and  C_4
REMARK    3  A    between atoms: C_4  and  C_5
REMARK    4  A    between atoms: C_5  and  N_6
REMARK    5  A    between atoms: C_14  and  C_15
REMARK    6  A    between atoms: C_15  and  C_16
REMARK    7  A    between atoms: N_22  and  C_23
REMARK                            x       y       z     vdW  Elec       q    Type
REMARK                         _______ _______ _______ _____ _____    ______ ____
ROOT
ATOM      1  C   UNL     1       2.156   8.640  18.679  0.00  0.00    +0.000 A 
ATOM      2  N   UNL     1       1.769   7.801  19.700  0.00  0.00    +0.000 NA
ATOM      3  C   UNL     1       2.497   6.713  19.534  0.00  0.00    +0.000 A 
ATOM      4  N   UNL     1       3.286   6.872  18.404  0.00  0.00    +0.000 N 
ATOM      5  N   UNL     1       3.137   8.135  17.911  0.00  0.00    +0.000 NA
ENDROOT
BRANCH   4   6
ATOM      6  C   UNL     1       4.191   5.970  17.791  0.00  0.00    +0.000 A 
ATOM      7  C   UNL     1       3.749   4.987  16.899  0.00  0.00    +0.000 A 
ATOM      8  C   UNL     1       4.651   4.057  16.379  0.00  0.00    +0.000 A 
ATOM      9  C   UNL     1       5.994   4.112  16.741  0.00  0.00    +0.000 A 
ATOM     10  C   UNL     1       6.450   5.121  17.588  0.00  0.00    +0.000 A 
ATOM     11  C   UNL     1       5.556   6.064  18.097  0.00  0.00    +0.000 A 
ENDBRANCH   4   6
BRANCH   1  13
ATOM     12  O   UNL     1       2.132  10.902  17.939  0.00  0.00    +0.000 OA
ATOM     13  C   UNL     1       1.527   9.959  18.444  0.00  0.00    +0.000 C 
ATOM     14  N   UNL     1       0.212  10.070  18.883  0.00  0.00    +0.000 N 
ATOM     15  H   UNL     1      -0.121   9.295  19.443  0.00  0.00    +0.000 HD
BRANCH  14  16
ATOM     16  C   UNL     1      -0.432  11.370  18.991  0.00  0.00    +0.000 C 
BRANCH  16  17
ATOM     17  C   UNL     1      -1.591  11.590  17.988  0.00  0.00    +0.000 C 
BRANCH  17  18
ATOM     18  N   UNL     1      -2.495  10.431  17.818  0.00  0.00    +0.000 NA
ATOM     19  C   UNL     1      -2.308   9.810  16.480  0.00  0.00    +0.000 C 
ATOM     20  C   UNL     1      -2.903  10.620  15.311  0.00  0.00    +0.000 C 
ATOM     21  O   UNL     1      -4.294  10.896  15.520  0.00  0.00    +0.000 OA
ATOM     22  C   UNL     1      -4.488  11.592  16.758  0.00  0.00    +0.000 C 
ATOM     23  C   UNL     1      -3.930  10.780  17.939  0.00  0.00    +0.000 C 
ENDBRANCH  17  18
ENDBRANCH  16  17
ENDBRANCH  14  16
ENDBRANCH   1  13
BRANCH   3  24
ATOM     24  C   UNL     1       2.594   5.593  20.530  0.00  0.00    +0.000 C 
BRANCH  24  25
ATOM     25  C   UNL     1       2.417   4.188  19.982  0.00  0.00    +0.000 A 
ATOM     26  C   UNL     1       1.186   3.822  19.405  0.00  0.00    +0.000 A 
ATOM     27  C   UNL     1       1.015   2.568  18.813  0.00  0.00    +0.000 A 
ATOM     28  C   UNL     1       2.072   1.662  18.784  0.00  0.00    +0.000 A 
ATOM     29  C   UNL     1       3.297   2.009  19.347  0.00  0.00    +0.000 A 
ATOM     30  C   UNL     1       3.471   3.265  19.936  0.00  0.00    +0.000 A 
ENDBRANCH  24  25
ENDBRANCH   3  24
TORSDOF 7
ENDMDL
MODEL 7
REMARK VINA RESULT:      -7.5      5.597      8.553
REMARK  Name = 
REMARK  7 active torsions:
REMARK  status: ('A' for Active; 'I' for Inactive)
REMARK    1  A    between atoms: C_2  and  C_12
REMARK    2  A    between atoms: N_3  and  C_4
REMARK    3  A    between atoms: C_4  and  C_5
REMARK    4  A    between atoms: C_5  and  N_6
REMARK    5  A    between atoms: C_14  and  C_15
REMARK    6  A    between atoms: C_15  and  C_16
REMARK    7  A    between atoms: N_22  and  C_23
REMARK                            x       y       z     vdW  Elec       q    Type
REMARK                         _______ _______ _______ _____ _____    ______ ____
ROOT
ATOM      1  C   UNL     1       7.162   6.280  17.330  0.00  0.00    +0.000 A 
ATOM      2  N   UNL     1       5.913   5.819  17.680  0.00  0.00    +0.000 NA
ATOM      3  C   UNL     1       5.495   5.148  16.623  0.00  0.00    +0.000 A 
ATOM      4  N   UNL     1       6.460   5.235  15.629  0.00  0.00    +0.000 N 
ATOM      5  N   UNL     1       7.562   5.879  16.111  0.00  0.00    +0.000 NA
ENDROOT
BRANCH   4   6
ATOM      6  C   UNL     1       6.453   4.727  14.307  0.00  0.00    +0.000 A 
ATOM      7  C   UNL     1       5.463   3.839  13.872  0.00  0.00    +0.000 A 
ATOM      8  C   UNL     1       5.532   3.287  12.592  0.00  0.00    +0.000 A 
ATOM      9  C   UNL     1       6.582   3.625  11.742  0.00  0.00    +0.000 A 
ATOM     10  C   UNL     1       7.542   4.550  12.151  0.00  0.00    +0.000 A 
ATOM     11  C   UNL     1       7.469   5.119  13.423  0.00  0.00    +0.000 A 
ENDBRANCH   4   6
BRANCH   1  13
ATOM     12  O   UNL     1       8.401   6.785  19.299  0.00  0.00    +0.000 OA
ATOM     13  C   UNL     1       7.969   7.155  18.211  0.00  0.00    +0.000 C 
ATOM     14  N   UNL     1       8.160   8.449  17.738  0.00  0.00    +0.000 N 
ATOM     15  H   UNL     1       7.610   8.695  16.924  0.00  0.00    +0.000 HD
BRANCH  14  16
ATOM     16  C   UNL     1       8.669   9.497  18.611  0.00  0.00    +0.000 C 
BRANCH  16  17
ATOM     17  C   UNL     1       8.860  10.867  17.915  0.00  0.00    +0.000 C 
BRANCH  17  18
ATOM     18  N   UNL     1      10.237  11.405  17.971  0.00  0.00    +0.000 NA
ATOM     19  C   UNL     1      10.743  11.409  19.369  0.00  0.00    +0.000 C 
ATOM     20  C   UNL     1      10.132  12.502  20.268  0.00  0.00    +0.000 C 
ATOM     21  O   UNL     1      10.300  13.805  19.695  0.00  0.00    +0.000 OA
ATOM     22  C   UNL     1       9.722  13.856  18.385  0.00  0.00    +0.000 C 
ATOM     23  C   UNL     1      10.347  12.794  17.465  0.00  0.00    +0.000 C 
ENDBRANCH  17  18
ENDBRANCH  16  17
ENDBRANCH  14  16
ENDBRANCH   1  13
BRANCH   3  24
ATOM     24  C   UNL     1       4.276   4.271  16.597  0.00  0.00    +0.000 C 
BRANCH  24  25
ATOM     25  C   UNL     1       3.560   4.076  17.922  0.00  0.00    +0.000 A 
ATOM     26  C   UNL     1       4.032   3.105  18.825  0.00  0.00    +0.000 A 
ATOM     27  C   UNL     1       3.453   2.957  20.088  0.00  0.00    +0.000 A 
ATOM     28  C   UNL     1       2.397   3.780  20.470  0.00  0.00    +0.000 A 
ATOM     29  C   UNL     1       1.920   4.748  19.591  0.00  0.00    +0.000 A 
ATOM     30  C   UNL     1       2.502   4.900  18.328  0.00  0.00    +0.000 A 
ENDBRANCH  24  25
ENDBRANCH   3  24
TORSDOF 7
ENDMDL
MODEL 8
REMARK VINA RESULT:      -7.4      0.387      1.317
REMARK  Name = 
REMARK  7 active torsions:
REMARK  status: ('A' for Active; 'I' for Inactive)
REMARK    1  A    between atoms: C_2  and  C_12
REMARK    2  A    between atoms: N_3  and  C_4
REMARK    3  A    between atoms: C_4  and  C_5
REMARK    4  A    between atoms: C_5  and  N_6
REMARK    5  A    between atoms: C_14  and  C_15
REMARK    6  A    between atoms: C_15  and  C_16
REMARK    7  A    between atoms: N_22  and  C_23
REMARK                            x       y       z     vdW  Elec       q    Type
REMARK                         _______ _______ _______ _____ _____    ______ ____
ROOT
ATOM      1  C   UNL     1       1.873   8.183  19.009  0.00  0.00    +0.000 A 
ATOM      2  N   UNL     1       2.837   8.487  18.075  0.00  0.00    +0.000 NA
ATOM      3  C   UNL     1       3.355   7.321  17.735  0.00  0.00    +0.000 A 
ATOM      4  N   UNL     1       2.742   6.326  18.482  0.00  0.00    +0.000 N 
ATOM      5  N   UNL     1       1.734   6.863  19.228  0.00  0.00    +0.000 NA
ENDROOT
BRANCH   4   6
ATOM      6  C   UNL     1       2.984   4.930  18.514  0.00  0.00    +0.000 A 
ATOM      7  C   UNL     1       2.391   4.066  17.587  0.00  0.00    +0.000 A 
ATOM      8  C   UNL     1       2.578   2.687  17.697  0.00  0.00    +0.000 A 
ATOM      9  C   UNL     1       3.363   2.170  18.725  0.00  0.00    +0.000 A 
ATOM     10  C   UNL     1       3.999   3.029  19.619  0.00  0.00    +0.000 A 
ATOM     11  C   UNL     1       3.830   4.410  19.504  0.00  0.00    +0.000 A 
ENDBRANCH   4   6
BRANCH   1  13
ATOM     12  O   UNL     1       1.129   9.364  20.936  0.00  0.00    +0.000 OA
ATOM     13  C   UNL     1       1.089   9.219  19.717  0.00  0.00    +0.000 C 
ATOM     14  N   UNL     1       0.261   9.987  18.905  0.00  0.00    +0.000 N 
ATOM     15  H   UNL     1       0.173   9.661  17.950  0.00  0.00    +0.000 HD
BRANCH  14  16
ATOM     16  C   UNL     1      -0.776  10.831  19.480  0.00  0.00    +0.000 C 
BRANCH  16  17
ATOM     17  C   UNL     1      -1.857  11.287  18.469  0.00  0.00    +0.000 C 
BRANCH  17  18
ATOM     18  N   UNL     1      -2.758  10.213  17.996  0.00  0.00    +0.000 NA
ATOM     19  C   UNL     1      -2.415   9.813  16.606  0.00  0.00    +0.000 C 
ATOM     20  C   UNL     1      -2.835  10.830  15.526  0.00  0.00    +0.000 C 
ATOM     21  O   UNL     1      -4.234  11.129  15.605  0.00  0.00    +0.000 OA
ATOM     22  C   UNL     1      -4.569  11.621  16.909  0.00  0.00    +0.000 C 
ATOM     23  C   UNL     1      -4.189  10.602  17.996  0.00  0.00    +0.000 C 
ENDBRANCH  17  18
ENDBRANCH  16  17
ENDBRANCH  14  16
ENDBRANCH   1  13
BRANCH   3  24
ATOM     24  C   UNL     1       4.294   7.109  16.582  0.00  0.00    +0.000 C 
BRANCH  24  25
ATOM     25  C   UNL     1       5.452   6.157  16.824  0.00  0.00    +0.000 A 
ATOM     26  C   UNL     1       5.663   5.087  15.934  0.00  0.00    +0.000 A 
ATOM     27  C   UNL     1       6.768   4.243  16.076  0.00  0.00    +0.000 A 
ATOM     28  C   UNL     1       7.681   4.458  17.104  0.00  0.00    +0.000 A 
ATOM     29  C   UNL     1       7.489   5.514  17.992  0.00  0.00    +0.000 A 
ATOM     30  C   UNL     1       6.386   6.362  17.849  0.00  0.00    +0.000 A 
ENDBRANCH  24  25
ENDBRANCH   3  24
TORSDOF 7
ENDMDL
MODEL 9
REMARK VINA RESULT:      -7.4      5.571      8.655
REMARK  Name = 
REMARK  7 active torsions:
REMARK  status: ('A' for Active; 'I' for Inactive)
REMARK    1  A    between atoms: C_2  and  C_12
REMARK    2  A    between atoms: N_3  and  C_4
REMARK    3  A    between atoms: C_4  and  C_5
REMARK    4  A    between atoms: C_5  and  N_6
REMARK    5  A    between atoms: C_14  and  C_15
REMARK    6  A    between atoms: C_15  and  C_16
REMARK    7  A    between atoms: N_22  and  C_23
REMARK                            x       y       z     vdW  Elec       q    Type
REMARK                         _______ _______ _______ _____ _____    ______ ____
ROOT
ATOM      1  C   UNL     1       7.137   6.581  17.178  0.00  0.00    +0.000 A 
ATOM      2  N   UNL     1       5.883   6.138  17.532  0.00  0.00    +0.000 NA
ATOM      3  C   UNL     1       5.504   5.369  16.528  0.00  0.00    +0.000 A 
ATOM      4  N   UNL     1       6.496   5.378  15.559  0.00  0.00    +0.000 N 
ATOM      5  N   UNL     1       7.577   6.077  16.011  0.00  0.00    +0.000 NA
ENDROOT
BRANCH   4   6
ATOM      6  C   UNL     1       6.534   4.753  14.288  0.00  0.00    +0.000 A 
ATOM      7  C   UNL     1       7.536   5.053  13.358  0.00  0.00    +0.000 A 
ATOM      8  C   UNL     1       7.497   4.489  12.082  0.00  0.00    +0.000 A 
ATOM      9  C   UNL     1       6.466   3.618  11.735  0.00  0.00    +0.000 A 
ATOM     10  C   UNL     1       5.496   3.275  12.675  0.00  0.00    +0.000 A 
ATOM     11  C   UNL     1       5.539   3.823  13.958  0.00  0.00    +0.000 A 
ENDBRANCH   4   6
BRANCH   1  13
ATOM     12  O   UNL     1       8.480   7.220  19.036  0.00  0.00    +0.000 OA
ATOM     13  C   UNL     1       7.908   7.542  17.998  0.00  0.00    +0.000 C 
ATOM     14  N   UNL     1       7.896   8.854  17.534  0.00  0.00    +0.000 N 
ATOM     15  H   UNL     1       7.248   9.036  16.778  0.00  0.00    +0.000 HD
BRANCH  14  16
ATOM     16  C   UNL     1       8.351   9.949  18.377  0.00  0.00    +0.000 C 
BRANCH  16  17
ATOM     17  C   UNL     1       9.655  10.627  17.889  0.00  0.00    +0.000 C 
BRANCH  17  18
ATOM     18  N   UNL     1      10.405  11.357  18.935  0.00  0.00    +0.000 NA
ATOM     19  C   UNL     1       9.658  12.568  19.368  0.00  0.00    +0.000 C 
ATOM     20  C   UNL     1       9.675  13.727  18.352  0.00  0.00    +0.000 C 
ATOM     21  O   UNL     1      11.014  14.093  17.998  0.00  0.00    +0.000 OA
ATOM     22  C   UNL     1      11.722  12.962  17.474  0.00  0.00    +0.000 C 
ATOM     23  C   UNL     1      11.745  11.809  18.491  0.00  0.00    +0.000 C 
ENDBRANCH  17  18
ENDBRANCH  16  17
ENDBRANCH  14  16
ENDBRANCH   1  13
BRANCH   3  24
ATOM     24  C   UNL     1       4.295   4.477  16.547  0.00  0.00    +0.000 C 
BRANCH  24  25
ATOM     25  C   UNL     1       3.672   4.217  17.907  0.00  0.00    +0.000 A 
ATOM     26  C   UNL     1       2.472   4.868  18.253  0.00  0.00    +0.000 A 
ATOM     27  C   UNL     1       1.825   4.588  19.459  0.00  0.00    +0.000 A 
ATOM     28  C   UNL     1       2.363   3.650  20.336  0.00  0.00    +0.000 A 
ATOM     29  C   UNL     1       3.548   2.996  20.009  0.00  0.00    +0.000 A 
ATOM     30  C   UNL     1       4.194   3.271  18.800  0.00  0.00    +0.000 A 
ENDBRANCH  24  25
ENDBRANCH   3  24
TORSDOF 7
ENDMDL
