MODEL 1
REMARK VINA RESULT:      -7.1      0.000      0.000
REMARK  Name = 
REMARK  9 active torsions:
REMARK  status: ('A' for Active; 'I' for Inactive)
REMARK    1  A    between atoms: C_1  and  C_2
REMARK    2  A    between atoms: C_6  and  C_7
REMARK    3  A    between atoms: C_7  and  O_9
REMARK    4  A    between atoms: O_9  and  C_10
REMARK    5  A    between atoms: C_10  and  C_11
REMARK    6  A    between atoms: C_10  and  C_12
REMARK    7  A    between atoms: N_14  and  C_15
REMARK    8  A    between atoms: C_19  and  C_20
REMARK    9  A    between atoms: C_22  and  N_23
REMARK                            x       y       z     vdW  Elec       q    Type
REMARK                         _______ _______ _______ _____ _____    ______ ____
ROOT
ATOM      1  O   UNL     1       5.710   5.508  18.369  0.00  0.00    +0.000 OA
ENDROOT
BRANCH   1   2
ATOM      2  C   UNL     1       4.371   5.728  18.302  0.00  0.00    +0.000 C 
ATOM      3  O   UNL     1       3.856   6.803  18.031  0.00  0.00    +0.000 OA
BRANCH   2   9
ATOM      4  C   UNL     1       1.134   2.926  21.028  0.00  0.00    +0.000 C 
ATOM      5  C   UNL     1       2.022   3.140  19.829  0.00  0.00    +0.000 A 
ATOM      6  C   UNL     1       2.101   2.124  18.863  0.00  0.00    +0.000 A 
ATOM      7  C   UNL     1       2.931   2.257  17.757  0.00  0.00    +0.000 A 
ATOM      8  C   UNL     1       3.686   3.416  17.590  0.00  0.00    +0.000 A 
ATOM      9  C   UNL     1       3.611   4.457  18.530  0.00  0.00    +0.000 A 
ATOM     10  C   UNL     1       2.763   4.333  19.663  0.00  0.00    +0.000 A 
BRANCH  10  11
ATOM     11  N   UNL     1       2.816   5.260  20.726  0.00  0.00    +0.000 N 
ATOM     12  H   UNL     1       3.110   4.839  21.614  0.00  0.00    +0.000 HD
ATOM     13  H   UNL     1       3.308   6.122  20.526  0.00  0.00    +0.000 HD
ENDBRANCH  10  11
ENDBRANCH   2   9
ENDBRANCH   1   2
BRANCH   1  14
ATOM     14  C   UNL     1       6.517   6.256  17.441  0.00  0.00    +0.000 C 
ATOM     15  C   UNL     1       7.783   6.747  18.134  0.00  0.00    +0.000 C 
BRANCH  14  16
ATOM     16  C   UNL     1       6.885   5.340  16.262  0.00  0.00    +0.000 C 
ATOM     17  O   UNL     1       7.865   4.599  16.281  0.00  0.00    +0.000 OA
ATOM     18  N   UNL     1       6.080   5.527  15.144  0.00  0.00    +0.000 N 
ATOM     19  H   UNL     1       5.657   6.440  15.030  0.00  0.00    +0.000 HD
BRANCH  18  20
ATOM     20  C   UNL     1       6.318   4.790  14.005  0.00  0.00    +0.000 A 
ATOM     21  S   UNL     1       5.191   3.541  13.748  0.00  0.00    +0.000 S 
ATOM     22  C   UNL     1       5.864   3.183  12.214  0.00  0.00    +0.000 A 
ATOM     23  C   UNL     1       7.004   3.920  11.970  0.00  0.00    +0.000 A 
ATOM     24  C   UNL     1       7.284   4.851  13.023  0.00  0.00    +0.000 A 
BRANCH  24  25
ATOM     25  C   UNL     1       8.463   5.653  13.079  0.00  0.00    +0.000 C 
ATOM     26  N   UNL     1       9.431   6.293  13.207  0.00  0.00    +0.000 NA
ENDBRANCH  24  25
ENDBRANCH  18  20
ENDBRANCH  14  16
ENDBRANCH   1  14
TORSDOF 7
ENDMDL
MODEL 2
REMARK VINA RESULT:      -6.7      3.267      6.827
REMARK  Name = 
REMARK  9 active torsions:
REMARK  status: ('A' for Active; 'I' for Inactive)
REMARK    1  A    between atoms: C_1  and  C_2
REMARK    2  A    between atoms: C_6  and  C_7
REMARK    3  A    between atoms: C_7  and  O_9
REMARK    4  A    between atoms: O_9  and  C_10
REMARK    5  A    between atoms: C_10  and  C_11
REMARK    6  A    between atoms: C_10  and  C_12
REMARK    7  A    between atoms: N_14  and  C_15
REMARK    8  A    between atoms: C_19  and  C_20
REMARK    9  A    between atoms: C_22  and  N_23
REMARK                            x       y       z     vdW  Elec       q    Type
REMARK                         _______ _______ _______ _____ _____    ______ ____
ROOT
ATOM      1  O   UNL     1       3.915   3.312  19.798  0.00  0.00    +0.000 OA
ENDROOT
BRANCH   1   2
ATOM      2  C   UNL     1       4.172   2.883  18.535  0.00  0.00    +0.000 C 
ATOM      3  O   UNL     1       3.832   1.798  18.087  0.00  0.00    +0.000 OA
BRANCH   2   9
ATOM      4  C   UNL     1       7.665   6.540  18.112  0.00  0.00    +0.000 C 
ATOM      5  C   UNL     1       6.571   5.676  17.541  0.00  0.00    +0.000 A 
ATOM      6  C   UNL     1       6.216   5.849  16.193  0.00  0.00    +0.000 A 
ATOM      7  C   UNL     1       5.190   5.101  15.626  0.00  0.00    +0.000 A 
ATOM      8  C   UNL     1       4.512   4.158  16.394  0.00  0.00    +0.000 A 
ATOM      9  C   UNL     1       4.859   3.951  17.740  0.00  0.00    +0.000 A 
ATOM     10  C   UNL     1       5.909   4.706  18.328  0.00  0.00    +0.000 A 
BRANCH  10  11
ATOM     11  N   UNL     1       6.148   4.674  19.719  0.00  0.00    +0.000 N 
ATOM     12  H   UNL     1       6.712   3.870  20.013  0.00  0.00    +0.000 HD
ATOM     13  H   UNL     1       6.475   5.543  20.123  0.00  0.00    +0.000 HD
ENDBRANCH  10  11
ENDBRANCH   2   9
ENDBRANCH   1   2
BRANCH   1  14
ATOM     14  C   UNL     1       2.531   3.548  20.112  0.00  0.00    +0.000 C 
ATOM     15  C   UNL     1       2.358   3.685  21.621  0.00  0.00    +0.000 C 
BRANCH  14  16
ATOM     16  C   UNL     1       2.082   4.841  19.412  0.00  0.00    +0.000 C 
ATOM     17  O   UNL     1       1.371   4.838  18.409  0.00  0.00    +0.000 OA
ATOM     18  N   UNL     1       2.655   5.988  19.949  0.00  0.00    +0.000 N 
ATOM     19  H   UNL     1       3.554   5.883  20.403  0.00  0.00    +0.000 HD
BRANCH  18  20
ATOM     20  C   UNL     1       2.361   7.216  19.398  0.00  0.00    +0.000 A 
ATOM     21  S   UNL     1       3.076   7.475  17.876  0.00  0.00    +0.000 S 
ATOM     22  C   UNL     1       2.228   8.949  17.674  0.00  0.00    +0.000 A 
ATOM     23  C   UNL     1       1.518   9.291  18.806  0.00  0.00    +0.000 A 
ATOM     24  C   UNL     1       1.605   8.288  19.826  0.00  0.00    +0.000 A 
BRANCH  24  25
ATOM     25  C   UNL     1       1.062   8.440  21.136  0.00  0.00    +0.000 C 
ATOM     26  N   UNL     1       0.671   8.627  22.220  0.00  0.00    +0.000 NA
ENDBRANCH  24  25
ENDBRANCH  18  20
ENDBRANCH  14  16
ENDBRANCH   1  14
TORSDOF 7
ENDMDL
MODEL 3
REMARK VINA RESULT:      -6.5      2.409      6.923
REMARK  Name = 
REMARK  9 active torsions:
REMARK  status: ('A' for Active; 'I' for Inactive)
REMARK    1  A    between atoms: C_1  and  C_2
REMARK    2  A    between atoms: C_6  and  C_7
REMARK    3  A    between atoms: C_7  and  O_9
REMARK    4  A    between atoms: O_9  and  C_10
REMARK    5  A    between atoms: C_10  and  C_11
REMARK    6  A    between atoms: C_10  and  C_12
REMARK    7  A    between atoms: N_14  and  C_15
REMARK    8  A    between atoms: C_19  and  C_20
REMARK    9  A    between atoms: C_22  and  N_23
REMARK                            x       y       z     vdW  Elec       q    Type
REMARK                         _______ _______ _______ _____ _____    ______ ____
ROOT
ATOM      1  O   UNL     1       5.526   5.367  16.337  0.00  0.00    +0.000 OA
ENDROOT
BRANCH   1   2
ATOM      2  C   UNL     1       6.826   5.111  16.037  0.00  0.00    +0.000 C 
ATOM      3  O   UNL     1       7.728   5.045  16.858  0.00  0.00    +0.000 OA
BRANCH   2   9
ATOM      4  C   UNL     1       5.613   2.538  11.834  0.00  0.00    +0.000 C 
ATOM      5  C   UNL     1       6.367   3.626  12.554  0.00  0.00    +0.000 A 
ATOM      6  C   UNL     1       7.224   4.452  11.810  0.00  0.00    +0.000 A 
ATOM      7  C   UNL     1       7.968   5.448  12.432  0.00  0.00    +0.000 A 
ATOM      8  C   UNL     1       7.857   5.644  13.806  0.00  0.00    +0.000 A 
ATOM      9  C   UNL     1       6.992   4.844  14.572  0.00  0.00    +0.000 A 
ATOM     10  C   UNL     1       6.223   3.826  13.947  0.00  0.00    +0.000 A 
BRANCH  10  11
ATOM     11  N   UNL     1       5.506   2.876  14.705  0.00  0.00    +0.000 N 
ATOM     12  H   UNL     1       4.609   3.231  15.054  0.00  0.00    +0.000 HD
ATOM     13  H   UNL     1       5.419   1.960  14.282  0.00  0.00    +0.000 HD
ENDBRANCH  10  11
ENDBRANCH   2   9
ENDBRANCH   1   2
BRANCH   1  14
ATOM     14  C   UNL     1       5.298   6.187  17.497  0.00  0.00    +0.000 C 
ATOM     15  C   UNL     1       4.309   7.298  17.159  0.00  0.00    +0.000 C 
BRANCH  14  16
ATOM     16  C   UNL     1       4.731   5.303  18.619  0.00  0.00    +0.000 C 
ATOM     17  O   UNL     1       5.430   4.856  19.527  0.00  0.00    +0.000 OA
ATOM     18  N   UNL     1       3.395   4.964  18.436  0.00  0.00    +0.000 N 
ATOM     19  H   UNL     1       3.053   4.943  17.483  0.00  0.00    +0.000 HD
BRANCH  18  20
ATOM     20  C   UNL     1       2.768   4.151  19.355  0.00  0.00    +0.000 A 
ATOM     21  S   UNL     1       1.988   5.003  20.604  0.00  0.00    +0.000 S 
ATOM     22  C   UNL     1       1.299   3.562  21.223  0.00  0.00    +0.000 A 
ATOM     23  C   UNL     1       1.765   2.445  20.560  0.00  0.00    +0.000 A 
ATOM     24  C   UNL     1       2.639   2.783  19.475  0.00  0.00    +0.000 A 
BRANCH  24  25
ATOM     25  C   UNL     1       3.350   1.819  18.700  0.00  0.00    +0.000 C 
ATOM     26  N   UNL     1       3.918   1.080  17.999  0.00  0.00    +0.000 NA
ENDBRANCH  24  25
ENDBRANCH  18  20
ENDBRANCH  14  16
ENDBRANCH   1  14
TORSDOF 7
ENDMDL
MODEL 4
REMARK VINA RESULT:      -6.5      1.247      1.791
REMARK  Name = 
REMARK  9 active torsions:
REMARK  status: ('A' for Active; 'I' for Inactive)
REMARK    1  A    between atoms: C_1  and  C_2
REMARK    2  A    between atoms: C_6  and  C_7
REMARK    3  A    between atoms: C_7  and  O_9
REMARK    4  A    between atoms: O_9  and  C_10
REMARK    5  A    between atoms: C_10  and  C_11
REMARK    6  A    between atoms: C_10  and  C_12
REMARK    7  A    between atoms: N_14  and  C_15
REMARK    8  A    between atoms: C_19  and  C_20
REMARK    9  A    between atoms: C_22  and  N_23
REMARK                            x       y       z     vdW  Elec       q    Type
REMARK                         _______ _______ _______ _____ _____    ______ ____
ROOT
ATOM      1  O   UNL     1       5.902   5.350  18.416  0.00  0.00    +0.000 OA
ENDROOT
BRANCH   1   2
ATOM      2  C   UNL     1       4.842   4.559  18.106  0.00  0.00    +0.000 C 
ATOM      3  O   UNL     1       4.846   3.701  17.236  0.00  0.00    +0.000 OA
BRANCH   2   9
ATOM      4  C   UNL     1       1.500   3.003  21.594  0.00  0.00    +0.000 C 
ATOM      5  C   UNL     1       2.119   4.073  20.732  0.00  0.00    +0.000 A 
ATOM      6  C   UNL     1       1.627   5.384  20.834  0.00  0.00    +0.000 A 
ATOM      7  C   UNL     1       2.140   6.400  20.037  0.00  0.00    +0.000 A 
ATOM      8  C   UNL     1       3.165   6.126  19.135  0.00  0.00    +0.000 A 
ATOM      9  C   UNL     1       3.691   4.827  19.027  0.00  0.00    +0.000 A 
ATOM     10  C   UNL     1       3.177   3.782  19.840  0.00  0.00    +0.000 A 
BRANCH  10  11
ATOM     11  N   UNL     1       3.532   2.434  19.616  0.00  0.00    +0.000 N 
ATOM     12  H   UNL     1       3.204   2.075  18.713  0.00  0.00    +0.000 HD
ATOM     13  H   UNL     1       4.503   2.206  19.793  0.00  0.00    +0.000 HD
ENDBRANCH  10  11
ENDBRANCH   2   9
ENDBRANCH   1   2
BRANCH   1  14
ATOM     14  C   UNL     1       6.400   6.180  17.351  0.00  0.00    +0.000 C 
ATOM     15  C   UNL     1       7.600   6.985  17.840  0.00  0.00    +0.000 C 
BRANCH  14  16
ATOM     16  C   UNL     1       6.815   5.277  16.178  0.00  0.00    +0.000 C 
ATOM     17  O   UNL     1       7.795   4.536  16.228  0.00  0.00    +0.000 OA
ATOM     18  N   UNL     1       6.055   5.475  15.031  0.00  0.00    +0.000 N 
ATOM     19  H   UNL     1       5.635   6.389  14.910  0.00  0.00    +0.000 HD
BRANCH  18  20
ATOM     20  C   UNL     1       6.338   4.751  13.894  0.00  0.00    +0.000 A 
ATOM     21  S   UNL     1       5.227   3.500  13.583  0.00  0.00    +0.000 S 
ATOM     22  C   UNL     1       5.958   3.160  12.072  0.00  0.00    +0.000 A 
ATOM     23  C   UNL     1       7.104   3.904  11.878  0.00  0.00    +0.000 A 
ATOM     24  C   UNL     1       7.340   4.826  12.949  0.00  0.00    +0.000 A 
BRANCH  24  25
ATOM     25  C   UNL     1       8.513   5.632  13.058  0.00  0.00    +0.000 C 
ATOM     26  N   UNL     1       9.422   6.354  13.172  0.00  0.00    +0.000 NA
ENDBRANCH  24  25
ENDBRANCH  18  20
ENDBRANCH  14  16
ENDBRANCH   1  14
TORSDOF 7
ENDMDL
MODEL 5
REMARK VINA RESULT:      -6.5      1.213      1.472
REMARK  Name = 
REMARK  9 active torsions:
REMARK  status: ('A' for Active; 'I' for Inactive)
REMARK    1  A    between atoms: C_1  and  C_2
REMARK    2  A    between atoms: C_6  and  C_7
REMARK    3  A    between atoms: C_7  and  O_9
REMARK    4  A    between atoms: O_9  and  C_10
REMARK    5  A    between atoms: C_10  and  C_11
REMARK    6  A    between atoms: C_10  and  C_12
REMARK    7  A    between atoms: N_14  and  C_15
REMARK    8  A    between atoms: C_19  and  C_20
REMARK    9  A    between atoms: C_22  and  N_23
REMARK                            x       y       z     vdW  Elec       q    Type
REMARK                         _______ _______ _______ _____ _____    ______ ____
ROOT
ATOM      1  O   UNL     1       5.499   5.910  18.272  0.00  0.00    +0.000 OA
ENDROOT
BRANCH   1   2
ATOM      2  C   UNL     1       4.160   6.138  18.256  0.00  0.00    +0.000 C 
ATOM      3  O   UNL     1       3.644   7.246  18.246  0.00  0.00    +0.000 OA
BRANCH   2   9
ATOM      4  C   UNL     1       3.919   1.096  18.780  0.00  0.00    +0.000 C 
ATOM      5  C   UNL     1       3.291   2.431  18.472  0.00  0.00    +0.000 A 
ATOM      6  C   UNL     1       1.926   2.469  18.143  0.00  0.00    +0.000 A 
ATOM      7  C   UNL     1       1.308   3.671  17.817  0.00  0.00    +0.000 A 
ATOM      8  C   UNL     1       2.039   4.855  17.829  0.00  0.00    +0.000 A 
ATOM      9  C   UNL     1       3.401   4.849  18.175  0.00  0.00    +0.000 A 
ATOM     10  C   UNL     1       4.043   3.627  18.514  0.00  0.00    +0.000 A 
BRANCH  10  11
ATOM     11  N   UNL     1       5.445   3.550  18.665  0.00  0.00    +0.000 N 
ATOM     12  H   UNL     1       5.846   4.370  19.132  0.00  0.00    +0.000 HD
ATOM     13  H   UNL     1       5.792   2.679  19.047  0.00  0.00    +0.000 HD
ENDBRANCH  10  11
ENDBRANCH   2   9
ENDBRANCH   1   2
BRANCH   1  14
ATOM     14  C   UNL     1       6.262   6.576  17.249  0.00  0.00    +0.000 C 
ATOM     15  C   UNL     1       7.508   7.206  17.860  0.00  0.00    +0.000 C 
BRANCH  14  16
ATOM     16  C   UNL     1       6.664   5.541  16.185  0.00  0.00    +0.000 C 
ATOM     17  O   UNL     1       7.540   4.701  16.377  0.00  0.00    +0.000 OA
ATOM     18  N   UNL     1       6.033   5.732  14.961  0.00  0.00    +0.000 N 
ATOM     19  H   UNL     1       5.737   6.675  14.739  0.00  0.00    +0.000 HD
BRANCH  18  20
ATOM     20  C   UNL     1       6.322   4.892  13.909  0.00  0.00    +0.000 A 
ATOM     21  S   UNL     1       5.212   3.616  13.723  0.00  0.00    +0.000 S 
ATOM     22  C   UNL     1       5.952   3.119  12.261  0.00  0.00    +0.000 A 
ATOM     23  C   UNL     1       7.100   3.838  11.998  0.00  0.00    +0.000 A 
ATOM     24  C   UNL     1       7.331   4.867  12.968  0.00  0.00    +0.000 A 
BRANCH  24  25
ATOM     25  C   UNL     1       8.504   5.679  12.999  0.00  0.00    +0.000 C 
ATOM     26  N   UNL     1       9.508   6.273  13.028  0.00  0.00    +0.000 NA
ENDBRANCH  24  25
ENDBRANCH  18  20
ENDBRANCH  14  16
ENDBRANCH   1  14
TORSDOF 7
ENDMDL
MODEL 6
REMARK VINA RESULT:      -6.5      2.262      6.806
REMARK  Name = 
REMARK  9 active torsions:
REMARK  status: ('A' for Active; 'I' for Inactive)
REMARK    1  A    between atoms: C_1  and  C_2
REMARK    2  A    between atoms: C_6  and  C_7
REMARK    3  A    between atoms: C_7  and  O_9
REMARK    4  A    between atoms: O_9  and  C_10
REMARK    5  A    between atoms: C_10  and  C_11
REMARK    6  A    between atoms: C_10  and  C_12
REMARK    7  A    between atoms: N_14  and  C_15
REMARK    8  A    between atoms: C_19  and  C_20
REMARK    9  A    between atoms: C_22  and  N_23
REMARK                            x       y       z     vdW  Elec       q    Type
REMARK                         _______ _______ _______ _____ _____    ______ ____
ROOT
ATOM      1  O   UNL     1       6.060   6.141  16.011  0.00  0.00    +0.000 OA
ENDROOT
BRANCH   1   2
ATOM      2  C   UNL     1       7.017   5.204  15.785  0.00  0.00    +0.000 C 
ATOM      3  O   UNL     1       7.672   4.654  16.659  0.00  0.00    +0.000 OA
BRANCH   2   9
ATOM      4  C   UNL     1       5.642   2.422  11.769  0.00  0.00    +0.000 C 
ATOM      5  C   UNL     1       6.406   3.557  12.399  0.00  0.00    +0.000 A 
ATOM      6  C   UNL     1       7.199   4.371  11.574  0.00  0.00    +0.000 A 
ATOM      7  C   UNL     1       7.950   5.410  12.110  0.00  0.00    +0.000 A 
ATOM      8  C   UNL     1       7.909   5.663  13.479  0.00  0.00    +0.000 A 
ATOM      9  C   UNL     1       7.109   4.877  14.326  0.00  0.00    +0.000 A 
ATOM     10  C   UNL     1       6.334   3.815  13.788  0.00  0.00    +0.000 A 
BRANCH  10  11
ATOM     11  N   UNL     1       5.684   2.882  14.624  0.00  0.00    +0.000 N 
ATOM     12  H   UNL     1       4.805   3.235  15.017  0.00  0.00    +0.000 HD
ATOM     13  H   UNL     1       5.589   1.949  14.242  0.00  0.00    +0.000 HD
ENDBRANCH  10  11
ENDBRANCH   2   9
ENDBRANCH   1   2
BRANCH   1  14
ATOM     14  C   UNL     1       5.498   6.159  17.335  0.00  0.00    +0.000 C 
ATOM     15  C   UNL     1       4.762   7.474  17.567  0.00  0.00    +0.000 C 
BRANCH  14  16
ATOM     16  C   UNL     1       4.522   4.979  17.471  0.00  0.00    +0.000 C 
ATOM     17  O   UNL     1       4.171   4.297  16.511  0.00  0.00    +0.000 OA
ATOM     18  N   UNL     1       3.990   4.845  18.748  0.00  0.00    +0.000 N 
ATOM     19  H   UNL     1       3.933   5.684  19.313  0.00  0.00    +0.000 HD
BRANCH  18  20
ATOM     20  C   UNL     1       3.079   3.844  19.004  0.00  0.00    +0.000 A 
ATOM     21  S   UNL     1       1.508   4.188  18.446  0.00  0.00    +0.000 S 
ATOM     22  C   UNL     1       0.967   2.613  18.850  0.00  0.00    +0.000 A 
ATOM     23  C   UNL     1       1.939   1.893  19.514  0.00  0.00    +0.000 A 
ATOM     24  C   UNL     1       3.172   2.615  19.622  0.00  0.00    +0.000 A 
BRANCH  24  25
ATOM     25  C   UNL     1       4.301   2.150  20.361  0.00  0.00    +0.000 C 
ATOM     26  N   UNL     1       5.211   1.695  20.932  0.00  0.00    +0.000 NA
ENDBRANCH  24  25
ENDBRANCH  18  20
ENDBRANCH  14  16
ENDBRANCH   1  14
TORSDOF 7
ENDMDL
MODEL 7
REMARK VINA RESULT:      -6.4      2.372      7.019
REMARK  Name = 
REMARK  9 active torsions:
REMARK  status: ('A' for Active; 'I' for Inactive)
REMARK    1  A    between atoms: C_1  and  C_2
REMARK    2  A    between atoms: C_6  and  C_7
REMARK    3  A    between atoms: C_7  and  O_9
REMARK    4  A    between atoms: O_9  and  C_10
REMARK    5  A    between atoms: C_10  and  C_11
REMARK    6  A    between atoms: C_10  and  C_12
REMARK    7  A    between atoms: N_14  and  C_15
REMARK    8  A    between atoms: C_19  and  C_20
REMARK    9  A    between atoms: C_22  and  N_23
REMARK                            x       y       z     vdW  Elec       q    Type
REMARK                         _______ _______ _______ _____ _____    ______ ____
ROOT
ATOM      1  O   UNL     1       6.006   5.012  16.908  0.00  0.00    +0.000 OA
ENDROOT
BRANCH   1   2
ATOM      2  C   UNL     1       5.343   4.189  16.054  0.00  0.00    +0.000 C 
ATOM      3  O   UNL     1       4.357   3.530  16.351  0.00  0.00    +0.000 OA
BRANCH   2   9
ATOM      4  C   UNL     1       8.883   5.871  12.831  0.00  0.00    +0.000 C 
ATOM      5  C   UNL     1       7.668   5.041  13.154  0.00  0.00    +0.000 A 
ATOM      6  C   UNL     1       7.097   4.263  12.133  0.00  0.00    +0.000 A 
ATOM      7  C   UNL     1       5.955   3.507  12.370  0.00  0.00    +0.000 A 
ATOM      8  C   UNL     1       5.373   3.505  13.635  0.00  0.00    +0.000 A 
ATOM      9  C   UNL     1       5.935   4.257  14.680  0.00  0.00    +0.000 A 
ATOM     10  C   UNL     1       7.104   5.031  14.451  0.00  0.00    +0.000 A 
BRANCH  10  11
ATOM     11  N   UNL     1       7.575   5.954  15.409  0.00  0.00    +0.000 N 
ATOM     12  H   UNL     1       7.623   5.563  16.356  0.00  0.00    +0.000 HD
ATOM     13  H   UNL     1       8.419   6.452  15.153  0.00  0.00    +0.000 HD
ENDBRANCH  10  11
ENDBRANCH   2   9
ENDBRANCH   1   2
BRANCH   1  14
ATOM     14  C   UNL     1       6.210   4.506  18.239  0.00  0.00    +0.000 C 
ATOM     15  C   UNL     1       7.228   5.372  18.972  0.00  0.00    +0.000 C 
BRANCH  14  16
ATOM     16  C   UNL     1       4.866   4.529  18.984  0.00  0.00    +0.000 C 
ATOM     17  O   UNL     1       4.405   5.552  19.486  0.00  0.00    +0.000 OA
ATOM     18  N   UNL     1       4.296   3.270  19.137  0.00  0.00    +0.000 N 
ATOM     19  H   UNL     1       4.927   2.478  19.150  0.00  0.00    +0.000 HD
BRANCH  18  20
ATOM     20  C   UNL     1       3.102   3.142  19.811  0.00  0.00    +0.000 A 
ATOM     21  S   UNL     1       3.251   2.396  21.334  0.00  0.00    +0.000 S 
ATOM     22  C   UNL     1       1.606   2.704  21.700  0.00  0.00    +0.000 A 
ATOM     23  C   UNL     1       0.935   3.249  20.624  0.00  0.00    +0.000 A 
ATOM     24  C   UNL     1       1.802   3.492  19.510  0.00  0.00    +0.000 A 
BRANCH  24  25
ATOM     25  C   UNL     1       1.347   3.941  18.234  0.00  0.00    +0.000 C 
ATOM     26  N   UNL     1       0.993   4.232  17.161  0.00  0.00    +0.000 NA
ENDBRANCH  24  25
ENDBRANCH  18  20
ENDBRANCH  14  16
ENDBRANCH   1  14
TORSDOF 7
ENDMDL
MODEL 8
REMARK VINA RESULT:      -6.4      1.801      2.635
REMARK  Name = 
REMARK  9 active torsions:
REMARK  status: ('A' for Active; 'I' for Inactive)
REMARK    1  A    between atoms: C_1  and  C_2
REMARK    2  A    between atoms: C_6  and  C_7
REMARK    3  A    between atoms: C_7  and  O_9
REMARK    4  A    between atoms: O_9  and  C_10
REMARK    5  A    between atoms: C_10  and  C_11
REMARK    6  A    between atoms: C_10  and  C_12
REMARK    7  A    between atoms: N_14  and  C_15
REMARK    8  A    between atoms: C_19  and  C_20
REMARK    9  A    between atoms: C_22  and  N_23
REMARK                            x       y       z     vdW  Elec       q    Type
REMARK                         _______ _______ _______ _____ _____    ______ ____
ROOT
ATOM      1  O   UNL     1       5.623   5.619  18.474  0.00  0.00    +0.000 OA
ENDROOT
BRANCH   1   2
ATOM      2  C   UNL     1       4.378   5.355  17.999  0.00  0.00    +0.000 C 
ATOM      3  O   UNL     1       4.053   4.316  17.443  0.00  0.00    +0.000 OA
BRANCH   2   9
ATOM      4  C   UNL     1       1.241   7.738  21.198  0.00  0.00    +0.000 C 
ATOM      5  C   UNL     1       1.966   7.632  19.881  0.00  0.00    +0.000 A 
ATOM      6  C   UNL     1       1.787   8.652  18.933  0.00  0.00    +0.000 A 
ATOM      7  C   UNL     1       2.406   8.584  17.690  0.00  0.00    +0.000 A 
ATOM      8  C   UNL     1       3.225   7.502  17.380  0.00  0.00    +0.000 A 
ATOM      9  C   UNL     1       3.438   6.477  18.316  0.00  0.00    +0.000 A 
ATOM     10  C   UNL     1       2.814   6.538  19.592  0.00  0.00    +0.000 A 
BRANCH  10  11
ATOM     11  N   UNL     1       2.837   5.437  20.475  0.00  0.00    +0.000 N 
ATOM     12  H   UNL     1       2.319   5.606  21.344  0.00  0.00    +0.000 HD
ATOM     13  H   UNL     1       2.610   4.542  20.058  0.00  0.00    +0.000 HD
ENDBRANCH  10  11
ENDBRANCH   2   9
ENDBRANCH   1   2
BRANCH   1  14
ATOM     14  C   UNL     1       6.513   6.293  17.566  0.00  0.00    +0.000 C 
ATOM     15  C   UNL     1       7.789   6.698  18.297  0.00  0.00    +0.000 C 
BRANCH  14  16
ATOM     16  C   UNL     1       6.850   5.339  16.409  0.00  0.00    +0.000 C 
ATOM     17  O   UNL     1       7.718   4.473  16.497  0.00  0.00    +0.000 OA
ATOM     18  N   UNL     1       6.169   5.633  15.233  0.00  0.00    +0.000 N 
ATOM     19  H   UNL     1       5.880   6.595  15.097  0.00  0.00    +0.000 HD
BRANCH  18  20
ATOM     20  C   UNL     1       6.397   4.873  14.107  0.00  0.00    +0.000 A 
ATOM     21  S   UNL     1       5.262   3.626  13.879  0.00  0.00    +0.000 S 
ATOM     22  C   UNL     1       5.926   3.235  12.349  0.00  0.00    +0.000 A 
ATOM     23  C   UNL     1       7.069   3.961  12.086  0.00  0.00    +0.000 A 
ATOM     24  C   UNL     1       7.359   4.910  13.120  0.00  0.00    +0.000 A 
BRANCH  24  25
ATOM     25  C   UNL     1       8.543   5.707  13.155  0.00  0.00    +0.000 C 
ATOM     26  N   UNL     1       9.544   6.305  13.129  0.00  0.00    +0.000 NA
ENDBRANCH  24  25
ENDBRANCH  18  20
ENDBRANCH  14  16
ENDBRANCH   1  14
TORSDOF 7
ENDMDL
MODEL 9
REMARK VINA RESULT:      -6.4      5.201      7.080
REMARK  Name = 
REMARK  9 active torsions:
REMARK  status: ('A' for Active; 'I' for Inactive)
REMARK    1  A    between atoms: C_1  and  C_2
REMARK    2  A    between atoms: C_6  and  C_7
REMARK    3  A    between atoms: C_7  and  O_9
REMARK    4  A    between atoms: O_9  and  C_10
REMARK    5  A    between atoms: C_10  and  C_11
REMARK    6  A    between atoms: C_10  and  C_12
REMARK    7  A    between atoms: N_14  and  C_15
REMARK    8  A    between atoms: C_19  and  C_20
REMARK    9  A    between atoms: C_22  and  N_23
REMARK                            x       y       z     vdW  Elec       q    Type
REMARK                         _______ _______ _______ _____ _____    ______ ____
ROOT
ATOM      1  O   UNL     1       1.849   8.747  19.451  0.00  0.00    +0.000 OA
ENDROOT
BRANCH   1   2
ATOM      2  C   UNL     1       0.794   9.595  19.328  0.00  0.00    +0.000 C 
ATOM      3  O   UNL     1       0.335   9.982  18.263  0.00  0.00    +0.000 OA
BRANCH   2   9
ATOM      4  C   UNL     1      -1.887  12.652  22.365  0.00  0.00    +0.000 C 
ATOM      5  C   UNL     1      -1.106  11.389  22.106  0.00  0.00    +0.000 A 
ATOM      6  C   UNL     1      -0.952  10.468  23.155  0.00  0.00    +0.000 A 
ATOM      7  C   UNL     1      -0.212   9.305  22.977  0.00  0.00    +0.000 A 
ATOM      8  C   UNL     1       0.375   9.036  21.744  0.00  0.00    +0.000 A 
ATOM      9  C   UNL     1       0.220   9.930  20.670  0.00  0.00    +0.000 A 
ATOM     10  C   UNL     1      -0.538  11.120  20.839  0.00  0.00    +0.000 A 
BRANCH  10  11
ATOM     11  N   UNL     1      -0.543  12.134  19.857  0.00  0.00    +0.000 N 
ATOM     12  H   UNL     1      -0.769  13.060  20.234  0.00  0.00    +0.000 HD
ATOM     13  H   UNL     1       0.266  12.152  19.248  0.00  0.00    +0.000 HD
ENDBRANCH  10  11
ENDBRANCH   2   9
ENDBRANCH   1   2
BRANCH   1  14
ATOM     14  C   UNL     1       2.034   7.813  18.373  0.00  0.00    +0.000 C 
ATOM     15  C   UNL     1       3.235   8.226  17.529  0.00  0.00    +0.000 C 
BRANCH  14  16
ATOM     16  C   UNL     1       2.267   6.415  18.969  0.00  0.00    +0.000 C 
ATOM     17  O   UNL     1       2.294   6.208  20.181  0.00  0.00    +0.000 OA
ATOM     18  N   UNL     1       2.564   5.449  18.015  0.00  0.00    +0.000 N 
ATOM     19  H   UNL     1       2.996   5.768  17.156  0.00  0.00    +0.000 HD
BRANCH  18  20
ATOM     20  C   UNL     1       2.823   4.156  18.414  0.00  0.00    +0.000 A 
ATOM     21  S   UNL     1       1.445   3.159  18.448  0.00  0.00    +0.000 S 
ATOM     22  C   UNL     1       2.394   1.774  18.787  0.00  0.00    +0.000 A 
ATOM     23  C   UNL     1       3.719   2.100  18.996  0.00  0.00    +0.000 A 
ATOM     24  C   UNL     1       3.973   3.496  18.795  0.00  0.00    +0.000 A 
BRANCH  24  25
ATOM     25  C   UNL     1       5.229   4.120  19.058  0.00  0.00    +0.000 C 
ATOM     26  N   UNL     1       6.222   4.702  19.249  0.00  0.00    +0.000 NA
ENDBRANCH  24  25
ENDBRANCH  18  20
ENDBRANCH  14  16
ENDBRANCH   1  14
TORSDOF 7
ENDMDL
