MODEL 1
REMARK VINA RESULT:      -8.4      0.000      0.000
REMARK  Name = 
REMARK  10 active torsions:
REMARK  status: ('A' for Active; 'I' for Inactive)
REMARK    1  A    between atoms: C_1  and  O_2
REMARK    2  A    between atoms: O_2  and  C_3
REMARK    3  A    between atoms: C_11  and  O_12
REMARK    4  A    between atoms: C_17  and  C_18
REMARK    5  A    between atoms: C_18  and  C_19
REMARK    6  A    between atoms: C_20  and  C_21
REMARK    7  A    between atoms: C_20  and  C_22
REMARK    8  A    between atoms: C_23  and  O_24
REMARK    9  A    between atoms: C_27  and  C_28
REMARK   10  A    between atoms: C_27  and  C_29
REMARK                            x       y       z     vdW  Elec       q    Type
REMARK                         _______ _______ _______ _____ _____    ______ ____
ROOT
ATOM      1  C   UNL     1       0.127  12.449  19.510  0.00  0.00    +0.000 A 
ATOM      2  C   UNL     1       0.028  11.400  18.621  0.00  0.00    +0.000 A 
ATOM      3  C   UNL     1       0.623  10.191  18.978  0.00  0.00    +0.000 A 
ATOM      4  O   UNL     1       1.133   9.414  17.970  0.00  0.00    +0.000 OA
ATOM      5  C   UNL     1       2.011   8.432  18.370  0.00  0.00    +0.000 A 
ATOM      6  C   UNL     1       3.045   8.091  17.509  0.00  0.00    +0.000 A 
ATOM      7  C   UNL     1       3.817   6.966  17.787  0.00  0.00    +0.000 A 
ATOM      8  C   UNL     1       3.541   6.146  18.898  0.00  0.00    +0.000 A 
ATOM      9  C   UNL     1       2.578   6.581  19.819  0.00  0.00    +0.000 A 
ATOM     10  C   UNL     1       1.849   7.752  19.579  0.00  0.00    +0.000 A 
ATOM     11  C   UNL     1       1.002   8.427  20.593  0.00  0.00    +0.000 A 
ATOM     12  O   UNL     1       0.544   7.882  21.584  0.00  0.00    +0.000 OA
ATOM     13  C   UNL     1       0.773   9.860  20.322  0.00  0.00    +0.000 A 
ATOM     14  C   UNL     1       0.660  10.878  21.262  0.00  0.00    +0.000 A 
ATOM     15  C   UNL     1       0.733  12.174  20.737  0.00  0.00    +0.000 A 
ATOM     16  C   UNL     1       4.217   4.869  19.003  0.00  0.00    +0.000 C 
ATOM     17  C   UNL     1       5.146   4.564  18.096  0.00  0.00    +0.000 C 
ATOM     18  C   UNL     1       5.552   5.481  16.967  0.00  0.00    +0.000 C 
ATOM     19  C   UNL     1       7.041   5.804  17.141  0.00  0.00    +0.000 C 
ATOM     20  C   UNL     1       5.317   4.797  15.617  0.00  0.00    +0.000 C 
ATOM     21  O   UNL     1       4.837   6.727  16.904  0.00  0.00    +0.000 OA
ENDROOT
BRANCH   1  23
ATOM     22  C   UNL     1      -0.801  14.601  19.896  0.00  0.00    +0.000 C 
ATOM     23  O   UNL     1      -0.117  13.699  19.022  0.00  0.00    +0.000 OA
ENDBRANCH   1  23
BRANCH   9  24
ATOM     24  O   UNL     1       2.315   5.878  20.963  0.00  0.00    +0.000 OA
ATOM     25  H   UNL     1       1.507   5.355  20.861  0.00  0.00    +0.000 HD
ENDBRANCH   9  24
BRANCH  15  26
ATOM     26  O   UNL     1       2.027  12.749  20.805  0.00  0.00    +0.000 OA
ATOM     27  H   UNL     1       2.521  12.246  21.501  0.00  0.00    +0.000 HD
ENDBRANCH  15  26
BRANCH  14  28
ATOM     28  C   UNL     1      -0.085  10.669  22.570  0.00  0.00    +0.000 C 
BRANCH  28  29
ATOM     29  C   UNL     1      -1.507  11.109  22.736  0.00  0.00    +0.000 C 
ATOM     30  C   UNL     1      -2.023  12.315  23.035  0.00  0.00    +0.000 C 
ATOM     31  C   UNL     1      -1.230  13.528  23.407  0.00  0.00    +0.000 C 
ATOM     32  C   UNL     1      -3.511  12.540  22.979  0.00  0.00    +0.000 C 
ENDBRANCH  28  29
ENDBRANCH  14  28
TORSDOF 5
ENDMDL
MODEL 2
REMARK VINA RESULT:      -7.7      2.040      7.969
REMARK  Name = 
REMARK  10 active torsions:
REMARK  status: ('A' for Active; 'I' for Inactive)
REMARK    1  A    between atoms: C_1  and  O_2
REMARK    2  A    between atoms: O_2  and  C_3
REMARK    3  A    between atoms: C_11  and  O_12
REMARK    4  A    between atoms: C_17  and  C_18
REMARK    5  A    between atoms: C_18  and  C_19
REMARK    6  A    between atoms: C_20  and  C_21
REMARK    7  A    between atoms: C_20  and  C_22
REMARK    8  A    between atoms: C_23  and  O_24
REMARK    9  A    between atoms: C_27  and  C_28
REMARK   10  A    between atoms: C_27  and  C_29
REMARK                            x       y       z     vdW  Elec       q    Type
REMARK                         _______ _______ _______ _____ _____    ______ ____
ROOT
ATOM      1  C   UNL     1       4.710   4.398  16.132  0.00  0.00    +0.000 A 
ATOM      2  C   UNL     1       4.875   5.733  16.432  0.00  0.00    +0.000 A 
ATOM      3  C   UNL     1       4.083   6.271  17.445  0.00  0.00    +0.000 A 
ATOM      4  O   UNL     1       3.714   7.586  17.329  0.00  0.00    +0.000 OA
ATOM      5  C   UNL     1       2.664   7.976  18.130  0.00  0.00    +0.000 A 
ATOM      6  C   UNL     1       1.805   8.955  17.648  0.00  0.00    +0.000 A 
ATOM      7  C   UNL     1       0.868   9.519  18.511  0.00  0.00    +0.000 A 
ATOM      8  C   UNL     1       0.805   9.147  19.867  0.00  0.00    +0.000 A 
ATOM      9  C   UNL     1       1.593   8.070  20.295  0.00  0.00    +0.000 A 
ATOM     10  C   UNL     1       2.486   7.451  19.412  0.00  0.00    +0.000 A 
ATOM     11  C   UNL     1       3.169   6.163  19.684  0.00  0.00    +0.000 A 
ATOM     12  O   UNL     1       3.338   5.694  20.799  0.00  0.00    +0.000 OA
ATOM     13  C   UNL     1       3.613   5.453  18.469  0.00  0.00    +0.000 A 
ATOM     14  C   UNL     1       3.639   4.077  18.270  0.00  0.00    +0.000 A 
ATOM     15  C   UNL     1       3.828   3.679  16.942  0.00  0.00    +0.000 A 
ATOM     16  C   UNL     1      -0.020   9.931  20.764  0.00  0.00    +0.000 C 
ATOM     17  C   UNL     1      -0.763  10.913  20.251  0.00  0.00    +0.000 C 
ATOM     18  C   UNL     1      -0.811  11.251  18.781  0.00  0.00    +0.000 C 
ATOM     19  C   UNL     1      -2.256  11.057  18.305  0.00  0.00    +0.000 C 
ATOM     20  C   UNL     1      -0.372  12.700  18.554  0.00  0.00    +0.000 C 
ATOM     21  O   UNL     1       0.039  10.450  17.940  0.00  0.00    +0.000 OA
ENDROOT
BRANCH   1  23
ATOM     22  C   UNL     1       6.522   4.381  14.596  0.00  0.00    +0.000 C 
ATOM     23  O   UNL     1       5.193   3.968  14.931  0.00  0.00    +0.000 OA
ENDBRANCH   1  23
BRANCH   9  24
ATOM     24  O   UNL     1       1.523   7.600  21.579  0.00  0.00    +0.000 OA
ATOM     25  H   UNL     1       1.375   8.329  22.198  0.00  0.00    +0.000 HD
ENDBRANCH   9  24
BRANCH  15  26
ATOM     26  O   UNL     1       2.624   3.390  16.251  0.00  0.00    +0.000 OA
ATOM     27  H   UNL     1       1.947   4.028  16.589  0.00  0.00    +0.000 HD
ENDBRANCH  15  26
BRANCH  14  28
ATOM     28  C   UNL     1       4.059   3.125  19.377  0.00  0.00    +0.000 C 
BRANCH  28  29
ATOM     29  C   UNL     1       3.186   2.881  20.569  0.00  0.00    +0.000 C 
ATOM     30  C   UNL     1       1.856   2.708  20.662  0.00  0.00    +0.000 C 
ATOM     31  C   UNL     1       0.884   2.850  19.533  0.00  0.00    +0.000 C 
ATOM     32  C   UNL     1       1.230   2.307  21.971  0.00  0.00    +0.000 C 
ENDBRANCH  28  29
ENDBRANCH  14  28
TORSDOF 5
ENDMDL
MODEL 3
REMARK VINA RESULT:      -7.2      1.986      4.222
REMARK  Name = 
REMARK  10 active torsions:
REMARK  status: ('A' for Active; 'I' for Inactive)
REMARK    1  A    between atoms: C_1  and  O_2
REMARK    2  A    between atoms: O_2  and  C_3
REMARK    3  A    between atoms: C_11  and  O_12
REMARK    4  A    between atoms: C_17  and  C_18
REMARK    5  A    between atoms: C_18  and  C_19
REMARK    6  A    between atoms: C_20  and  C_21
REMARK    7  A    between atoms: C_20  and  C_22
REMARK    8  A    between atoms: C_23  and  O_24
REMARK    9  A    between atoms: C_27  and  C_28
REMARK   10  A    between atoms: C_27  and  C_29
REMARK                            x       y       z     vdW  Elec       q    Type
REMARK                         _______ _______ _______ _____ _____    ______ ____
ROOT
ATOM      1  C   UNL     1      -1.392  12.523  21.507  0.00  0.00    +0.000 A 
ATOM      2  C   UNL     1      -0.333  11.783  21.988  0.00  0.00    +0.000 A 
ATOM      3  C   UNL     1       0.315  10.927  21.100  0.00  0.00    +0.000 A 
ATOM      4  O   UNL     1       0.843   9.769  21.608  0.00  0.00    +0.000 OA
ATOM      5  C   UNL     1       1.145   8.800  20.677  0.00  0.00    +0.000 A 
ATOM      6  C   UNL     1       1.010   7.470  21.051  0.00  0.00    +0.000 A 
ATOM      7  C   UNL     1       1.506   6.476  20.212  0.00  0.00    +0.000 A 
ATOM      8  C   UNL     1       2.178   6.795  19.016  0.00  0.00    +0.000 A 
ATOM      9  C   UNL     1       2.188   8.133  18.600  0.00  0.00    +0.000 A 
ATOM     10  C   UNL     1       1.626   9.129  19.407  0.00  0.00    +0.000 A 
ATOM     11  C   UNL     1       1.360  10.517  18.954  0.00  0.00    +0.000 A 
ATOM     12  O   UNL     1       1.915  11.052  18.008  0.00  0.00    +0.000 OA
ATOM     13  C   UNL     1       0.319  11.212  19.737  0.00  0.00    +0.000 A 
ATOM     14  C   UNL     1      -0.610  12.129  19.259  0.00  0.00    +0.000 A 
ATOM     15  C   UNL     1      -1.658  12.418  20.140  0.00  0.00    +0.000 A 
ATOM     16  C   UNL     1       2.877   5.741  18.310  0.00  0.00    +0.000 C 
ATOM     17  C   UNL     1       2.774   4.491  18.766  0.00  0.00    +0.000 C 
ATOM     18  C   UNL     1       1.955   4.102  19.974  0.00  0.00    +0.000 C 
ATOM     19  C   UNL     1       0.875   3.119  19.507  0.00  0.00    +0.000 C 
ATOM     20  C   UNL     1       2.846   3.443  21.030  0.00  0.00    +0.000 C 
ATOM     21  O   UNL     1       1.296   5.192  20.644  0.00  0.00    +0.000 OA
ENDROOT
BRANCH   1  23
ATOM     22  C   UNL     1      -2.824  12.152  23.366  0.00  0.00    +0.000 C 
ATOM     23  O   UNL     1      -2.241  13.062  22.429  0.00  0.00    +0.000 OA
ENDBRANCH   1  23
BRANCH   9  24
ATOM     24  O   UNL     1       2.750   8.506  17.410  0.00  0.00    +0.000 OA
ATOM     25  H   UNL     1       2.069   8.812  16.794  0.00  0.00    +0.000 HD
ENDBRANCH   9  24
BRANCH  15  26
ATOM     26  O   UNL     1      -2.832  11.657  19.907  0.00  0.00    +0.000 OA
ATOM     27  H   UNL     1      -2.670  10.765  20.304  0.00  0.00    +0.000 HD
ENDBRANCH  15  26
BRANCH  14  28
ATOM     28  C   UNL     1      -0.231  13.171  18.220  0.00  0.00    +0.000 C 
BRANCH  28  29
ATOM     29  C   UNL     1       0.171  14.558  18.616  0.00  0.00    +0.000 C 
ATOM     30  C   UNL     1       1.316  15.021  19.148  0.00  0.00    +0.000 C 
ATOM     31  C   UNL     1       2.465  14.176  19.599  0.00  0.00    +0.000 C 
ATOM     32  C   UNL     1       1.538  16.502  19.303  0.00  0.00    +0.000 C 
ENDBRANCH  28  29
ENDBRANCH  14  28
TORSDOF 5
ENDMDL
MODEL 4
REMARK VINA RESULT:      -7.0      1.885      3.833
REMARK  Name = 
REMARK  10 active torsions:
REMARK  status: ('A' for Active; 'I' for Inactive)
REMARK    1  A    between atoms: C_1  and  O_2
REMARK    2  A    between atoms: O_2  and  C_3
REMARK    3  A    between atoms: C_11  and  O_12
REMARK    4  A    between atoms: C_17  and  C_18
REMARK    5  A    between atoms: C_18  and  C_19
REMARK    6  A    between atoms: C_20  and  C_21
REMARK    7  A    between atoms: C_20  and  C_22
REMARK    8  A    between atoms: C_23  and  O_24
REMARK    9  A    between atoms: C_27  and  C_28
REMARK   10  A    between atoms: C_27  and  C_29
REMARK                            x       y       z     vdW  Elec       q    Type
REMARK                         _______ _______ _______ _____ _____    ______ ____
ROOT
ATOM      1  C   UNL     1      -0.874  11.350  21.394  0.00  0.00    +0.000 A 
ATOM      2  C   UNL     1       0.222  10.608  21.778  0.00  0.00    +0.000 A 
ATOM      3  C   UNL     1       0.872   9.859  20.799  0.00  0.00    +0.000 A 
ATOM      4  O   UNL     1       1.451   8.679  21.185  0.00  0.00    +0.000 OA
ATOM      5  C   UNL     1       1.758   7.810  20.161  0.00  0.00    +0.000 A 
ATOM      6  C   UNL     1       1.678   6.448  20.415  0.00  0.00    +0.000 A 
ATOM      7  C   UNL     1       2.182   5.552  19.475  0.00  0.00    +0.000 A 
ATOM      8  C   UNL     1       2.810   6.002  18.298  0.00  0.00    +0.000 A 
ATOM      9  C   UNL     1       2.764   7.373  18.006  0.00  0.00    +0.000 A 
ATOM     10  C   UNL     1       2.192   8.271  18.916  0.00  0.00    +0.000 A 
ATOM     11  C   UNL     1       1.869   9.684  18.599  0.00  0.00    +0.000 A 
ATOM     12  O   UNL     1       2.379  10.322  17.692  0.00  0.00    +0.000 OA
ATOM     13  C   UNL     1       0.828  10.268  19.468  0.00  0.00    +0.000 A 
ATOM     14  C   UNL     1      -0.143  11.191  19.100  0.00  0.00    +0.000 A 
ATOM     15  C   UNL     1      -1.175  11.362  20.030  0.00  0.00    +0.000 A 
ATOM     16  C   UNL     1       3.522   5.042  17.480  0.00  0.00    +0.000 C 
ATOM     17  C   UNL     1       3.473   3.754  17.822  0.00  0.00    +0.000 C 
ATOM     18  C   UNL     1       2.702   3.228  19.009  0.00  0.00    +0.000 C 
ATOM     19  C   UNL     1       1.642   2.253  18.481  0.00  0.00    +0.000 C 
ATOM     20  C   UNL     1       3.644   2.507  19.977  0.00  0.00    +0.000 C 
ATOM     21  O   UNL     1       2.027   4.228  19.792  0.00  0.00    +0.000 OA
ENDROOT
BRANCH   1  23
ATOM     22  C   UNL     1      -1.381  13.014  23.012  0.00  0.00    +0.000 C 
ATOM     23  O   UNL     1      -1.713  11.773  22.382  0.00  0.00    +0.000 OA
ENDBRANCH   1  23
BRANCH   9  24
ATOM     24  O   UNL     1       3.280   7.872  16.842  0.00  0.00    +0.000 OA
ATOM     25  H   UNL     1       4.195   7.579  16.723  0.00  0.00    +0.000 HD
ENDBRANCH   9  24
BRANCH  15  26
ATOM     26  O   UNL     1      -2.329  10.584  19.758  0.00  0.00    +0.000 OA
ATOM     27  H   UNL     1      -3.100  11.203  19.802  0.00  0.00    +0.000 HD
ENDBRANCH  15  26
BRANCH  14  28
ATOM     28  C   UNL     1       0.172  12.336  18.152  0.00  0.00    +0.000 C 
BRANCH  28  29
ATOM     29  C   UNL     1      -0.345  13.719  18.400  0.00  0.00    +0.000 C 
ATOM     30  C   UNL     1       0.278  14.819  18.857  0.00  0.00    +0.000 C 
ATOM     31  C   UNL     1       1.686  14.871  19.361  0.00  0.00    +0.000 C 
ATOM     32  C   UNL     1      -0.430  16.148  18.860  0.00  0.00    +0.000 C 
ENDBRANCH  28  29
ENDBRANCH  14  28
TORSDOF 5
ENDMDL
MODEL 5
REMARK VINA RESULT:      -6.8      7.507     10.968
REMARK  Name = 
REMARK  10 active torsions:
REMARK  status: ('A' for Active; 'I' for Inactive)
REMARK    1  A    between atoms: C_1  and  O_2
REMARK    2  A    between atoms: O_2  and  C_3
REMARK    3  A    between atoms: C_11  and  O_12
REMARK    4  A    between atoms: C_17  and  C_18
REMARK    5  A    between atoms: C_18  and  C_19
REMARK    6  A    between atoms: C_20  and  C_21
REMARK    7  A    between atoms: C_20  and  C_22
REMARK    8  A    between atoms: C_23  and  O_24
REMARK    9  A    between atoms: C_27  and  C_28
REMARK   10  A    between atoms: C_27  and  C_29
REMARK                            x       y       z     vdW  Elec       q    Type
REMARK                         _______ _______ _______ _____ _____    ______ ____
ROOT
ATOM      1  C   UNL     1      10.655  13.065  17.800  0.00  0.00    +0.000 A 
ATOM      2  C   UNL     1      11.089  13.499  19.034  0.00  0.00    +0.000 A 
ATOM      3  C   UNL     1      10.304  13.186  20.143  0.00  0.00    +0.000 A 
ATOM      4  O   UNL     1      10.285  14.082  21.179  0.00  0.00    +0.000 OA
ATOM      5  C   UNL     1       9.249  13.928  22.073  0.00  0.00    +0.000 A 
ATOM      6  C   UNL     1       8.736  15.066  22.681  0.00  0.00    +0.000 A 
ATOM      7  C   UNL     1       7.841  14.926  23.738  0.00  0.00    +0.000 A 
ATOM      8  C   UNL     1       7.482  13.656  24.230  0.00  0.00    +0.000 A 
ATOM      9  C   UNL     1       7.912  12.526  23.520  0.00  0.00    +0.000 A 
ATOM     10  C   UNL     1       8.755  12.666  22.410  0.00  0.00    +0.000 A 
ATOM     11  C   UNL     1       9.057  11.575  21.452  0.00  0.00    +0.000 A 
ATOM     12  O   UNL     1       8.935  10.386  21.699  0.00  0.00    +0.000 OA
ATOM     13  C   UNL     1       9.499  12.050  20.126  0.00  0.00    +0.000 A 
ATOM     14  C   UNL     1       9.223  11.463  18.896  0.00  0.00    +0.000 A 
ATOM     15  C   UNL     1       9.513  12.263  17.785  0.00  0.00    +0.000 A 
ATOM     16  C   UNL     1       6.743  13.576  25.473  0.00  0.00    +0.000 C 
ATOM     17  C   UNL     1       6.345  14.711  26.051  0.00  0.00    +0.000 C 
ATOM     18  C   UNL     1       6.607  16.083  25.479  0.00  0.00    +0.000 C 
ATOM     19  C   UNL     1       5.249  16.741  25.205  0.00  0.00    +0.000 C 
ATOM     20  C   UNL     1       7.411  16.928  26.471  0.00  0.00    +0.000 C 
ATOM     21  O   UNL     1       7.359  16.102  24.252  0.00  0.00    +0.000 OA
ENDROOT
BRANCH   1  23
ATOM     22  C   UNL     1      11.411  15.081  16.795  0.00  0.00    +0.000 C 
ATOM     23  O   UNL     1      11.200  13.668  16.705  0.00  0.00    +0.000 OA
ENDBRANCH   1  23
BRANCH   9  24
ATOM     24  O   UNL     1       7.534  11.264  23.890  0.00  0.00    +0.000 OA
ATOM     25  H   UNL     1       6.573  11.214  23.989  0.00  0.00    +0.000 HD
ENDBRANCH   9  24
BRANCH  15  26
ATOM     26  O   UNL     1       8.395  12.978  17.284  0.00  0.00    +0.000 OA
ATOM     27  H   UNL     1       7.787  12.305  16.889  0.00  0.00    +0.000 HD
ENDBRANCH  15  26
BRANCH  14  28
ATOM     28  C   UNL     1       9.226   9.953  18.721  0.00  0.00    +0.000 C 
BRANCH  28  29
ATOM     29  C   UNL     1       8.192   9.263  17.887  0.00  0.00    +0.000 C 
ATOM     30  C   UNL     1       7.735   7.998  17.924  0.00  0.00    +0.000 C 
ATOM     31  C   UNL     1       8.284   6.905  18.786  0.00  0.00    +0.000 C 
ATOM     32  C   UNL     1       6.559   7.589  17.079  0.00  0.00    +0.000 C 
ENDBRANCH  28  29
ENDBRANCH  14  28
TORSDOF 5
ENDMDL
MODEL 6
REMARK VINA RESULT:      -6.8      1.590      2.303
REMARK  Name = 
REMARK  10 active torsions:
REMARK  status: ('A' for Active; 'I' for Inactive)
REMARK    1  A    between atoms: C_1  and  O_2
REMARK    2  A    between atoms: O_2  and  C_3
REMARK    3  A    between atoms: C_11  and  O_12
REMARK    4  A    between atoms: C_17  and  C_18
REMARK    5  A    between atoms: C_18  and  C_19
REMARK    6  A    between atoms: C_20  and  C_21
REMARK    7  A    between atoms: C_20  and  C_22
REMARK    8  A    between atoms: C_23  and  O_24
REMARK    9  A    between atoms: C_27  and  C_28
REMARK   10  A    between atoms: C_27  and  C_29
REMARK                            x       y       z     vdW  Elec       q    Type
REMARK                         _______ _______ _______ _____ _____    ______ ____
ROOT
ATOM      1  C   UNL     1       1.224  14.224  19.048  0.00  0.00    +0.000 A 
ATOM      2  C   UNL     1       0.833  13.122  18.318  0.00  0.00    +0.000 A 
ATOM      3  C   UNL     1       0.815  11.889  18.968  0.00  0.00    +0.000 A 
ATOM      4  O   UNL     1       1.101  10.776  18.221  0.00  0.00    +0.000 OA
ATOM      5  C   UNL     1       1.425   9.649  18.944  0.00  0.00    +0.000 A 
ATOM      6  C   UNL     1       2.340   8.762  18.394  0.00  0.00    +0.000 A 
ATOM      7  C   UNL     1       2.527   7.520  18.996  0.00  0.00    +0.000 A 
ATOM      8  C   UNL     1       1.775   7.131  20.121  0.00  0.00    +0.000 A 
ATOM      9  C   UNL     1       0.953   8.090  20.731  0.00  0.00    +0.000 A 
ATOM     10  C   UNL     1       0.818   9.366  20.170  0.00  0.00    +0.000 A 
ATOM     11  C   UNL     1       0.186  10.516  20.861  0.00  0.00    +0.000 A 
ATOM     12  O   UNL     1      -0.598  10.417  21.791  0.00  0.00    +0.000 OA
ATOM     13  C   UNL     1       0.613  11.832  20.344  0.00  0.00    +0.000 A 
ATOM     14  C   UNL     1       0.793  12.997  21.080  0.00  0.00    +0.000 A 
ATOM     15  C   UNL     1       1.473  14.018  20.406  0.00  0.00    +0.000 A 
ATOM     16  C   UNL     1       1.838   5.751  20.556  0.00  0.00    +0.000 C 
ATOM     17  C   UNL     1       2.681   4.926  19.934  0.00  0.00    +0.000 C 
ATOM     18  C   UNL     1       3.593   5.348  18.807  0.00  0.00    +0.000 C 
ATOM     19  C   UNL     1       5.038   5.114  19.264  0.00  0.00    +0.000 C 
ATOM     20  C   UNL     1       3.299   4.524  17.550  0.00  0.00    +0.000 C 
ATOM     21  O   UNL     1       3.476   6.725  18.408  0.00  0.00    +0.000 OA
ENDROOT
BRANCH   1  23
ATOM     22  C   UNL     1       0.999  16.570  18.747  0.00  0.00    +0.000 C 
ATOM     23  O   UNL     1       1.595  15.333  18.345  0.00  0.00    +0.000 OA
ENDBRANCH   1  23
BRANCH   9  24
ATOM     24  O   UNL     1       0.256   7.809  21.874  0.00  0.00    +0.000 OA
ATOM     25  H   UNL     1       0.786   7.257  22.467  0.00  0.00    +0.000 HD
ENDBRANCH   9  24
BRANCH  15  26
ATOM     26  O   UNL     1       2.863  14.062  20.682  0.00  0.00    +0.000 OA
ATOM     27  H   UNL     1       3.315  14.228  19.817  0.00  0.00    +0.000 HD
ENDBRANCH  15  26
BRANCH  14  28
ATOM     28  C   UNL     1      -0.157  13.379  22.203  0.00  0.00    +0.000 C 
BRANCH  28  29
ATOM     29  C   UNL     1      -1.558  13.827  21.921  0.00  0.00    +0.000 C 
ATOM     30  C   UNL     1      -2.729  13.429  22.448  0.00  0.00    +0.000 C 
ATOM     31  C   UNL     1      -2.906  12.294  23.406  0.00  0.00    +0.000 C 
ATOM     32  C   UNL     1      -4.001  14.161  22.112  0.00  0.00    +0.000 C 
ENDBRANCH  28  29
ENDBRANCH  14  28
TORSDOF 5
ENDMDL
MODEL 7
REMARK VINA RESULT:      -6.6      2.069      3.170
REMARK  Name = 
REMARK  10 active torsions:
REMARK  status: ('A' for Active; 'I' for Inactive)
REMARK    1  A    between atoms: C_1  and  O_2
REMARK    2  A    between atoms: O_2  and  C_3
REMARK    3  A    between atoms: C_11  and  O_12
REMARK    4  A    between atoms: C_17  and  C_18
REMARK    5  A    between atoms: C_18  and  C_19
REMARK    6  A    between atoms: C_20  and  C_21
REMARK    7  A    between atoms: C_20  and  C_22
REMARK    8  A    between atoms: C_23  and  O_24
REMARK    9  A    between atoms: C_27  and  C_28
REMARK   10  A    between atoms: C_27  and  C_29
REMARK                            x       y       z     vdW  Elec       q    Type
REMARK                         _______ _______ _______ _____ _____    ______ ____
ROOT
ATOM      1  C   UNL     1       2.282  14.575  18.548  0.00  0.00    +0.000 A 
ATOM      2  C   UNL     1       1.575  13.524  18.005  0.00  0.00    +0.000 A 
ATOM      3  C   UNL     1       1.398  12.387  18.792  0.00  0.00    +0.000 A 
ATOM      4  O   UNL     1       1.342  11.176  18.152  0.00  0.00    +0.000 OA
ATOM      5  C   UNL     1       1.529  10.075  18.958  0.00  0.00    +0.000 A 
ATOM      6  C   UNL     1       2.157   8.965  18.409  0.00  0.00    +0.000 A 
ATOM      7  C   UNL     1       2.171   7.771  19.126  0.00  0.00    +0.000 A 
ATOM      8  C   UNL     1       1.524   7.656  20.371  0.00  0.00    +0.000 A 
ATOM      9  C   UNL     1       1.010   8.821  20.959  0.00  0.00    +0.000 A 
ATOM     10  C   UNL     1       1.059  10.041  20.272  0.00  0.00    +0.000 A 
ATOM     11  C   UNL     1       0.779  11.358  20.895  0.00  0.00    +0.000 A 
ATOM     12  O   UNL     1       0.133  11.515  21.918  0.00  0.00    +0.000 OA
ATOM     13  C   UNL     1       1.388  12.498  20.180  0.00  0.00    +0.000 A 
ATOM     14  C   UNL     1       1.904  13.657  20.747  0.00  0.00    +0.000 A 
ATOM     15  C   UNL     1       2.674  14.442  19.881  0.00  0.00    +0.000 A 
ATOM     16  C   UNL     1       1.366   6.340  20.954  0.00  0.00    +0.000 C 
ATOM     17  C   UNL     1       1.926   5.299  20.336  0.00  0.00    +0.000 C 
ATOM     18  C   UNL     1       2.734   5.410  19.065  0.00  0.00    +0.000 C 
ATOM     19  C   UNL     1       4.151   4.910  19.368  0.00  0.00    +0.000 C 
ATOM     20  C   UNL     1       2.102   4.562  17.958  0.00  0.00    +0.000 C 
ATOM     21  O   UNL     1       2.844   6.739  18.524  0.00  0.00    +0.000 OA
ENDROOT
BRANCH   1  23
ATOM     22  C   UNL     1       2.468  16.875  17.985  0.00  0.00    +0.000 C 
ATOM     23  O   UNL     1       2.766  15.509  17.681  0.00  0.00    +0.000 OA
ENDBRANCH   1  23
BRANCH   9  24
ATOM     24  O   UNL     1       0.441   8.802  22.203  0.00  0.00    +0.000 OA
ATOM     25  H   UNL     1      -0.473   9.116  22.162  0.00  0.00    +0.000 HD
ENDBRANCH   9  24
BRANCH  15  26
ATOM     26  O   UNL     1       4.069  14.206  19.980  0.00  0.00    +0.000 OA
ATOM     27  H   UNL     1       4.245  13.956  20.921  0.00  0.00    +0.000 HD
ENDBRANCH  15  26
BRANCH  14  28
ATOM     28  C   UNL     1       1.222  14.334  21.923  0.00  0.00    +0.000 C 
BRANCH  28  29
ATOM     29  C   UNL     1      -0.068  15.076  21.755  0.00  0.00    +0.000 C 
ATOM     30  C   UNL     1      -1.124  15.197  22.579  0.00  0.00    +0.000 C 
ATOM     31  C   UNL     1      -1.299  14.470  23.875  0.00  0.00    +0.000 C 
ATOM     32  C   UNL     1      -2.244  16.147  22.245  0.00  0.00    +0.000 C 
ENDBRANCH  28  29
ENDBRANCH  14  28
TORSDOF 5
ENDMDL
MODEL 8
REMARK VINA RESULT:      -6.6      1.685      8.880
REMARK  Name = 
REMARK  10 active torsions:
REMARK  status: ('A' for Active; 'I' for Inactive)
REMARK    1  A    between atoms: C_1  and  O_2
REMARK    2  A    between atoms: O_2  and  C_3
REMARK    3  A    between atoms: C_11  and  O_12
REMARK    4  A    between atoms: C_17  and  C_18
REMARK    5  A    between atoms: C_18  and  C_19
REMARK    6  A    between atoms: C_20  and  C_21
REMARK    7  A    between atoms: C_20  and  C_22
REMARK    8  A    between atoms: C_23  and  O_24
REMARK    9  A    between atoms: C_27  and  C_28
REMARK   10  A    between atoms: C_27  and  C_29
REMARK                            x       y       z     vdW  Elec       q    Type
REMARK                         _______ _______ _______ _____ _____    ______ ____
ROOT
ATOM      1  C   UNL     1       4.865   4.051  19.312  0.00  0.00    +0.000 A 
ATOM      2  C   UNL     1       3.519   4.348  19.298  0.00  0.00    +0.000 A 
ATOM      3  C   UNL     1       3.146   5.641  18.937  0.00  0.00    +0.000 A 
ATOM      4  O   UNL     1       2.021   6.162  19.522  0.00  0.00    +0.000 OA
ATOM      5  C   UNL     1       1.888   7.530  19.429  0.00  0.00    +0.000 A 
ATOM      6  C   UNL     1       1.265   8.198  20.475  0.00  0.00    +0.000 A 
ATOM      7  C   UNL     1       0.927   9.539  20.316  0.00  0.00    +0.000 A 
ATOM      8  C   UNL     1       1.163  10.216  19.104  0.00  0.00    +0.000 A 
ATOM      9  C   UNL     1       1.905   9.558  18.113  0.00  0.00    +0.000 A 
ATOM     10  C   UNL     1       2.311   8.231  18.297  0.00  0.00    +0.000 A 
ATOM     11  C   UNL     1       3.300   7.536  17.437  0.00  0.00    +0.000 A 
ATOM     12  O   UNL     1       3.582   7.874  16.299  0.00  0.00    +0.000 OA
ATOM     13  C   UNL     1       3.961   6.390  18.093  0.00  0.00    +0.000 A 
ATOM     14  C   UNL     1       5.278   5.979  17.921  0.00  0.00    +0.000 A 
ATOM     15  C   UNL     1       5.731   5.051  18.866  0.00  0.00    +0.000 A 
ATOM     16  C   UNL     1       0.578  11.528  18.916  0.00  0.00    +0.000 C 
ATOM     17  C   UNL     1      -0.078  12.085  19.935  0.00  0.00    +0.000 C 
ATOM     18  C   UNL     1      -0.237  11.434  21.289  0.00  0.00    +0.000 C 
ATOM     19  C   UNL     1       0.429  12.347  22.325  0.00  0.00    +0.000 C 
ATOM     20  C   UNL     1      -1.721  11.256  21.621  0.00  0.00    +0.000 C 
ATOM     21  O   UNL     1       0.350  10.127  21.412  0.00  0.00    +0.000 OA
ENDROOT
BRANCH   1  23
ATOM     22  C   UNL     1       4.214   1.999  20.317  0.00  0.00    +0.000 C 
ATOM     23  O   UNL     1       5.246   2.939  20.003  0.00  0.00    +0.000 OA
ENDBRANCH   1  23
BRANCH   9  24
ATOM     24  O   UNL     1       2.243  10.182  16.943  0.00  0.00    +0.000 OA
ATOM     25  H   UNL     1       1.811   9.750  16.192  0.00  0.00    +0.000 HD
ENDBRANCH   9  24
BRANCH  15  26
ATOM     26  O   UNL     1       6.437   5.633  19.950  0.00  0.00    +0.000 OA
ATOM     27  H   UNL     1       6.237   5.078  20.745  0.00  0.00    +0.000 HD
ENDBRANCH  15  26
BRANCH  14  28
ATOM     28  C   UNL     1       5.943   6.004  16.556  0.00  0.00    +0.000 C 
BRANCH  28  29
ATOM     29  C   UNL     1       5.494   5.096  15.452  0.00  0.00    +0.000 C 
ATOM     30  C   UNL     1       6.134   4.678  14.346  0.00  0.00    +0.000 C 
ATOM     31  C   UNL     1       7.476   5.156  13.888  0.00  0.00    +0.000 C 
ATOM     32  C   UNL     1       5.519   3.622  13.466  0.00  0.00    +0.000 C 
ENDBRANCH  28  29
ENDBRANCH  14  28
TORSDOF 5
ENDMDL
MODEL 9
REMARK VINA RESULT:      -6.5      1.857      3.036
REMARK  Name = 
REMARK  10 active torsions:
REMARK  status: ('A' for Active; 'I' for Inactive)
REMARK    1  A    between atoms: C_1  and  O_2
REMARK    2  A    between atoms: O_2  and  C_3
REMARK    3  A    between atoms: C_11  and  O_12
REMARK    4  A    between atoms: C_17  and  C_18
REMARK    5  A    between atoms: C_18  and  C_19
REMARK    6  A    between atoms: C_20  and  C_21
REMARK    7  A    between atoms: C_20  and  C_22
REMARK    8  A    between atoms: C_23  and  O_24
REMARK    9  A    between atoms: C_27  and  C_28
REMARK   10  A    between atoms: C_27  and  C_29
REMARK                            x       y       z     vdW  Elec       q    Type
REMARK                         _______ _______ _______ _____ _____    ______ ____
ROOT
ATOM      1  C   UNL     1       0.150  14.912  18.955  0.00  0.00    +0.000 A 
ATOM      2  C   UNL     1      -0.418  13.727  18.540  0.00  0.00    +0.000 A 
ATOM      3  C   UNL     1      -0.112  12.575  19.261  0.00  0.00    +0.000 A 
ATOM      4  O   UNL     1      -0.061  11.391  18.572  0.00  0.00    +0.000 OA
ATOM      5  C   UNL     1       0.583  10.360  19.219  0.00  0.00    +0.000 A 
ATOM      6  C   UNL     1       1.276   9.437  18.447  0.00  0.00    +0.000 A 
ATOM      7  C   UNL     1       1.754   8.274  19.047  0.00  0.00    +0.000 A 
ATOM      8  C   UNL     1       1.511   7.998  20.406  0.00  0.00    +0.000 A 
ATOM      9  C   UNL     1       0.923   9.001  21.190  0.00  0.00    +0.000 A 
ATOM     10  C   UNL     1       0.505  10.202  20.604  0.00  0.00    +0.000 A 
ATOM     11  C   UNL     1       0.111  11.409  21.372  0.00  0.00    +0.000 A 
ATOM     12  O   UNL     1      -0.253  11.398  22.537  0.00  0.00    +0.000 OA
ATOM     13  C   UNL     1       0.228  12.668  20.608  0.00  0.00    +0.000 A 
ATOM     14  C   UNL     1       0.600  13.912  21.104  0.00  0.00    +0.000 A 
ATOM     15  C   UNL     1       0.907  14.866  20.127  0.00  0.00    +0.000 A 
ATOM     16  C   UNL     1       1.821   6.677  20.912  0.00  0.00    +0.000 C 
ATOM     17  C   UNL     1       2.416   5.806  20.096  0.00  0.00    +0.000 C 
ATOM     18  C   UNL     1       2.803   6.118  18.670  0.00  0.00    +0.000 C 
ATOM     19  C   UNL     1       4.325   5.969  18.558  0.00  0.00    +0.000 C 
ATOM     20  C   UNL     1       2.107   5.153  17.707  0.00  0.00    +0.000 C 
ATOM     21  O   UNL     1       2.457   7.439  18.218  0.00  0.00    +0.000 OA
ENDROOT
BRANCH   1  23
ATOM     22  C   UNL     1      -0.409  17.178  18.511  0.00  0.00    +0.000 C 
ATOM     23  O   UNL     1       0.156  15.943  18.062  0.00  0.00    +0.000 OA
ENDBRANCH   1  23
BRANCH   9  24
ATOM     24  O   UNL     1       0.731   8.835  22.534  0.00  0.00    +0.000 OA
ATOM     25  H   UNL     1      -0.027   8.256  22.699  0.00  0.00    +0.000 HD
ENDBRANCH   9  24
BRANCH  15  26
ATOM     26  O   UNL     1       2.292  14.970  19.842  0.00  0.00    +0.000 OA
ATOM     27  H   UNL     1       2.478  14.328  19.113  0.00  0.00    +0.000 HD
ENDBRANCH  15  26
BRANCH  14  28
ATOM     28  C   UNL     1       0.124  14.396  22.464  0.00  0.00    +0.000 C 
BRANCH  28  29
ATOM     29  C   UNL     1      -1.326  14.650  22.738  0.00  0.00    +0.000 C 
ATOM     30  C   UNL     1      -1.939  15.152  23.824  0.00  0.00    +0.000 C 
ATOM     31  C   UNL     1      -1.270  15.474  25.123  0.00  0.00    +0.000 C 
ATOM     32  C   UNL     1      -3.410  15.468  23.789  0.00  0.00    +0.000 C 
ENDBRANCH  28  29
ENDBRANCH  14  28
TORSDOF 5
ENDMDL
