MODEL 1
REMARK VINA RESULT:      -8.4      0.000      0.000
REMARK  Name = 
REMARK  7 active torsions:
REMARK  status: ('A' for Active; 'I' for Inactive)
REMARK    1  A    between atoms: C_1  and  O_2
REMARK    2  A    between atoms: O_2  and  C_3
REMARK    3  A    between atoms: C_9  and  N_10
REMARK    4  A    between atoms: C_11  and  C_13
REMARK    5  A    between atoms: C_14  and  N_15
REMARK    6  A    between atoms: N_15  and  C_16
REMARK    7  A    between atoms: C_16  and  C_17
REMARK                            x       y       z     vdW  Elec       q    Type
REMARK                         _______ _______ _______ _____ _____    ______ ____
ROOT
ATOM      1  C   UNL     1       2.213   7.217  19.246  0.00  0.00    +0.000 A 
ATOM      2  C   UNL     1       1.829   6.776  20.528  0.00  0.00    +0.000 A 
ATOM      3  S   UNL     1       0.915   7.967  21.358  0.00  0.00    +0.000 S 
ATOM      4  C   UNL     1       1.071   9.080  20.100  0.00  0.00    +0.000 A 
ATOM      5  C   UNL     1       1.796   8.590  19.029  0.00  0.00    +0.000 A 
ATOM      6  C   UNL     1       2.087   9.471  17.845  0.00  0.00    +0.000 C 
ATOM      7  C   UNL     1       1.886  10.961  18.167  0.00  0.00    +0.000 C 
ATOM      8  C   UNL     1       0.556  11.201  18.891  0.00  0.00    +0.000 C 
ATOM      9  C   UNL     1       0.509  10.464  20.234  0.00  0.00    +0.000 C 
ENDROOT
BRANCH   1  11
ATOM     10  N   UNL     1       4.368   6.274  18.533  0.00  0.00    +0.000 N 
ATOM     11  C   UNL     1       2.985   6.314  18.364  0.00  0.00    +0.000 C 
ATOM     12  O   UNL     1       2.392   5.659  17.508  0.00  0.00    +0.000 OA
ATOM     13  H   UNL     1       4.785   6.711  19.342  0.00  0.00    +0.000 HD
BRANCH  10  20
ATOM     14  C   UNL     1       6.539   5.177  18.174  0.00  0.00    +0.000 A 
ATOM     15  C   UNL     1       7.409   4.453  17.338  0.00  0.00    +0.000 A 
ATOM     16  C   UNL     1       7.076   4.189  16.010  0.00  0.00    +0.000 A 
ATOM     17  C   UNL     1       5.871   4.652  15.506  0.00  0.00    +0.000 A 
ATOM     18 CL   UNL     1       5.472   4.371  13.855  0.00  0.00    +0.000 Cl
ATOM     19  C   UNL     1       4.985   5.346  16.325  0.00  0.00    +0.000 A 
ATOM     20  C   UNL     1       5.284   5.592  17.674  0.00  0.00    +0.000 A 
BRANCH  14  22
ATOM     21  C   UNL     1       8.227   5.625  19.784  0.00  0.00    +0.000 C 
ATOM     22  O   UNL     1       6.835   5.492  19.480  0.00  0.00    +0.000 OA
ENDBRANCH  14  22
ENDBRANCH  10  20
ENDBRANCH   1  11
BRANCH   2  23
ATOM     23  N   UNL     1       2.161   5.582  21.103  0.00  0.00    +0.000 N 
ATOM     24  H   UNL     1       3.157   5.420  21.280  0.00  0.00    +0.000 HD
BRANCH  23  25
ATOM     25  C   UNL     1       1.390   4.362  20.947  0.00  0.00    +0.000 C 
BRANCH  25  26
ATOM     26  C   UNL     1       2.108   3.412  20.027  0.00  0.00    +0.000 A 
ATOM     27  C   UNL     1       1.440   2.783  18.969  0.00  0.00    +0.000 A 
ATOM     28  C   UNL     1       2.137   1.935  18.114  0.00  0.00    +0.000 A 
ATOM     29  C   UNL     1       3.488   1.742  18.342  0.00  0.00    +0.000 A 
ATOM     30  N   UNL     1       4.172   2.331  19.348  0.00  0.00    +0.000 NA
ATOM     31  C   UNL     1       3.466   3.147  20.166  0.00  0.00    +0.000 A 
ENDBRANCH  25  26
ENDBRANCH  23  25
ENDBRANCH   2  23
TORSDOF 6
ENDMDL
MODEL 2
REMARK VINA RESULT:      -7.2      1.199      1.360
REMARK  Name = 
REMARK  7 active torsions:
REMARK  status: ('A' for Active; 'I' for Inactive)
REMARK    1  A    between atoms: C_1  and  O_2
REMARK    2  A    between atoms: O_2  and  C_3
REMARK    3  A    between atoms: C_9  and  N_10
REMARK    4  A    between atoms: C_11  and  C_13
REMARK    5  A    between atoms: C_14  and  N_15
REMARK    6  A    between atoms: N_15  and  C_16
REMARK    7  A    between atoms: C_16  and  C_17
REMARK                            x       y       z     vdW  Elec       q    Type
REMARK                         _______ _______ _______ _____ _____    ______ ____
ROOT
ATOM      1  C   UNL     1       2.704   7.065  19.326  0.00  0.00    +0.000 A 
ATOM      2  C   UNL     1       2.100   6.512  20.473  0.00  0.00    +0.000 A 
ATOM      3  S   UNL     1       0.780   7.465  21.013  0.00  0.00    +0.000 S 
ATOM      4  C   UNL     1       1.026   8.630  19.818  0.00  0.00    +0.000 A 
ATOM      5  C   UNL     1       2.088   8.333  18.981  0.00  0.00    +0.000 A 
ATOM      6  C   UNL     1       2.489   9.294  17.896  0.00  0.00    +0.000 C 
ATOM      7  C   UNL     1       1.913  10.702  18.126  0.00  0.00    +0.000 C 
ATOM      8  C   UNL     1       0.422  10.644  18.475  0.00  0.00    +0.000 C 
ATOM      9  C   UNL     1       0.180   9.867  19.774  0.00  0.00    +0.000 C 
ENDROOT
BRANCH   1  11
ATOM     10  N   UNL     1       4.161   6.710  17.379  0.00  0.00    +0.000 N 
ATOM     11  C   UNL     1       3.844   6.367  18.692  0.00  0.00    +0.000 C 
ATOM     12  O   UNL     1       4.447   5.502  19.326  0.00  0.00    +0.000 OA
ATOM     13  H   UNL     1       3.737   7.525  16.959  0.00  0.00    +0.000 HD
BRANCH  10  20
ATOM     14  C   UNL     1       6.495   6.148  16.845  0.00  0.00    +0.000 A 
ATOM     15  C   UNL     1       7.423   5.431  16.067  0.00  0.00    +0.000 A 
ATOM     16  C   UNL     1       7.007   4.656  14.985  0.00  0.00    +0.000 A 
ATOM     17  C   UNL     1       5.659   4.597  14.669  0.00  0.00    +0.000 A 
ATOM     18 CL   UNL     1       5.141   3.681  13.307  0.00  0.00    +0.000 Cl
ATOM     19  C   UNL     1       4.723   5.278  15.443  0.00  0.00    +0.000 A 
ATOM     20  C   UNL     1       5.116   6.034  16.558  0.00  0.00    +0.000 A 
BRANCH  14  22
ATOM     21  C   UNL     1       7.870   6.422  18.763  0.00  0.00    +0.000 C 
ATOM     22  O   UNL     1       6.857   6.952  17.902  0.00  0.00    +0.000 OA
ENDBRANCH  14  22
ENDBRANCH  10  20
ENDBRANCH   1  11
BRANCH   2  23
ATOM     23  N   UNL     1       2.507   5.390  21.136  0.00  0.00    +0.000 N 
ATOM     24  H   UNL     1       3.515   5.294  21.298  0.00  0.00    +0.000 HD
BRANCH  23  25
ATOM     25  C   UNL     1       1.798   4.123  21.106  0.00  0.00    +0.000 C 
BRANCH  25  26
ATOM     26  C   UNL     1       2.145   3.367  19.853  0.00  0.00    +0.000 A 
ATOM     27  C   UNL     1       3.168   2.411  19.842  0.00  0.00    +0.000 A 
ATOM     28  C   UNL     1       3.446   1.704  18.677  0.00  0.00    +0.000 A 
ATOM     29  C   UNL     1       2.688   1.974  17.551  0.00  0.00    +0.000 A 
ATOM     30  N   UNL     1       1.691   2.885  17.518  0.00  0.00    +0.000 NA
ATOM     31  C   UNL     1       1.447   3.560  18.666  0.00  0.00    +0.000 A 
ENDBRANCH  25  26
ENDBRANCH  23  25
ENDBRANCH   2  23
TORSDOF 6
ENDMDL
MODEL 3
REMARK VINA RESULT:      -7.2      2.904      6.865
REMARK  Name = 
REMARK  7 active torsions:
REMARK  status: ('A' for Active; 'I' for Inactive)
REMARK    1  A    between atoms: C_1  and  O_2
REMARK    2  A    between atoms: O_2  and  C_3
REMARK    3  A    between atoms: C_9  and  N_10
REMARK    4  A    between atoms: C_11  and  C_13
REMARK    5  A    between atoms: C_14  and  N_15
REMARK    6  A    between atoms: N_15  and  C_16
REMARK    7  A    between atoms: C_16  and  C_17
REMARK                            x       y       z     vdW  Elec       q    Type
REMARK                         _______ _______ _______ _____ _____    ______ ____
ROOT
ATOM      1  C   UNL     1       2.780   5.971  18.165  0.00  0.00    +0.000 A 
ATOM      2  C   UNL     1       3.706   5.456  17.236  0.00  0.00    +0.000 A 
ATOM      3  S   UNL     1       3.843   3.750  17.362  0.00  0.00    +0.000 S 
ATOM      4  C   UNL     1       2.765   3.677  18.658  0.00  0.00    +0.000 A 
ATOM      5  C   UNL     1       2.270   4.917  19.022  0.00  0.00    +0.000 A 
ATOM      6  C   UNL     1       1.343   5.046  20.200  0.00  0.00    +0.000 C 
ATOM      7  C   UNL     1       1.395   3.812  21.117  0.00  0.00    +0.000 C 
ATOM      8  C   UNL     1       1.301   2.513  20.309  0.00  0.00    +0.000 C 
ATOM      9  C   UNL     1       2.478   2.372  19.336  0.00  0.00    +0.000 C 
ENDROOT
BRANCH   1  11
ATOM     10  N   UNL     1       1.969   7.959  19.360  0.00  0.00    +0.000 N 
ATOM     11  C   UNL     1       2.502   7.424  18.189  0.00  0.00    +0.000 C 
ATOM     12  O   UNL     1       2.722   8.095  17.181  0.00  0.00    +0.000 OA
ATOM     13  H   UNL     1       1.948   7.400  20.201  0.00  0.00    +0.000 HD
BRANCH  10  20
ATOM     14  C   UNL     1       0.513   9.586  20.492  0.00  0.00    +0.000 A 
ATOM     15  C   UNL     1       0.092  10.917  20.675  0.00  0.00    +0.000 A 
ATOM     16  C   UNL     1       0.579  11.942  19.866  0.00  0.00    +0.000 A 
ATOM     17  C   UNL     1       1.490  11.644  18.864  0.00  0.00    +0.000 A 
ATOM     18 CL   UNL     1       2.062  12.896  17.831  0.00  0.00    +0.000 Cl
ATOM     19  C   UNL     1       1.940  10.339  18.686  0.00  0.00    +0.000 A 
ATOM     20  C   UNL     1       1.489   9.297  19.512  0.00  0.00    +0.000 A 
BRANCH  14  22
ATOM     21  C   UNL     1      -0.470   8.876  22.535  0.00  0.00    +0.000 C 
ATOM     22  O   UNL     1       0.038   8.534  21.241  0.00  0.00    +0.000 OA
ENDBRANCH  14  22
ENDBRANCH  10  20
ENDBRANCH   1  11
BRANCH   2  23
ATOM     23  N   UNL     1       4.461   6.184  16.362  0.00  0.00    +0.000 N 
ATOM     24  H   UNL     1       3.951   6.731  15.662  0.00  0.00    +0.000 HD
BRANCH  23  25
ATOM     25  C   UNL     1       5.808   5.826  15.955  0.00  0.00    +0.000 C 
BRANCH  25  26
ATOM     26  C   UNL     1       6.751   5.959  17.121  0.00  0.00    +0.000 A 
ATOM     27  C   UNL     1       7.288   7.200  17.482  0.00  0.00    +0.000 A 
ATOM     28  C   UNL     1       8.131   7.299  18.584  0.00  0.00    +0.000 A 
ATOM     29  C   UNL     1       8.412   6.147  19.298  0.00  0.00    +0.000 A 
ATOM     30  N   UNL     1       7.913   4.931  18.987  0.00  0.00    +0.000 NA
ATOM     31  C   UNL     1       7.099   4.866  17.907  0.00  0.00    +0.000 A 
ENDBRANCH  25  26
ENDBRANCH  23  25
ENDBRANCH   2  23
TORSDOF 6
ENDMDL
MODEL 4
REMARK VINA RESULT:      -7.1      2.049      5.589
REMARK  Name = 
REMARK  7 active torsions:
REMARK  status: ('A' for Active; 'I' for Inactive)
REMARK    1  A    between atoms: C_1  and  O_2
REMARK    2  A    between atoms: O_2  and  C_3
REMARK    3  A    between atoms: C_9  and  N_10
REMARK    4  A    between atoms: C_11  and  C_13
REMARK    5  A    between atoms: C_14  and  N_15
REMARK    6  A    between atoms: N_15  and  C_16
REMARK    7  A    between atoms: C_16  and  C_17
REMARK                            x       y       z     vdW  Elec       q    Type
REMARK                         _______ _______ _______ _____ _____    ______ ____
ROOT
ATOM      1  C   UNL     1       3.353   5.799  18.413  0.00  0.00    +0.000 A 
ATOM      2  C   UNL     1       2.742   6.962  18.925  0.00  0.00    +0.000 A 
ATOM      3  S   UNL     1       1.976   6.662  20.430  0.00  0.00    +0.000 S 
ATOM      4  C   UNL     1       2.364   5.021  20.394  0.00  0.00    +0.000 A 
ATOM      5  C   UNL     1       3.083   4.658  19.268  0.00  0.00    +0.000 A 
ATOM      6  C   UNL     1       3.460   3.220  19.042  0.00  0.00    +0.000 C 
ATOM      7  C   UNL     1       2.625   2.258  19.904  0.00  0.00    +0.000 C 
ATOM      8  C   UNL     1       2.559   2.729  21.360  0.00  0.00    +0.000 C 
ATOM      9  C   UNL     1       1.885   4.101  21.476  0.00  0.00    +0.000 C 
ENDROOT
BRANCH   1  11
ATOM     10  N   UNL     1       4.555   4.667  16.593  0.00  0.00    +0.000 N 
ATOM     11  C   UNL     1       4.093   5.865  17.134  0.00  0.00    +0.000 C 
ATOM     12  O   UNL     1       4.296   6.961  16.612  0.00  0.00    +0.000 OA
ATOM     13  H   UNL     1       4.235   3.789  16.977  0.00  0.00    +0.000 HD
BRANCH  10  20
ATOM     14  C   UNL     1       6.759   4.996  15.553  0.00  0.00    +0.000 A 
ATOM     15  C   UNL     1       7.619   4.823  14.452  0.00  0.00    +0.000 A 
ATOM     16  C   UNL     1       7.156   4.274  13.258  0.00  0.00    +0.000 A 
ATOM     17  C   UNL     1       5.827   3.897  13.152  0.00  0.00    +0.000 A 
ATOM     18 CL   UNL     1       5.235   3.262  11.665  0.00  0.00    +0.000 Cl
ATOM     19  C   UNL     1       4.967   4.035  14.238  0.00  0.00    +0.000 A 
ATOM     20  C   UNL     1       5.420   4.552  15.461  0.00  0.00    +0.000 A 
BRANCH  14  22
ATOM     21  C   UNL     1       7.714   4.657  17.701  0.00  0.00    +0.000 C 
ATOM     22  O   UNL     1       7.158   5.562  16.741  0.00  0.00    +0.000 OA
ENDBRANCH  14  22
ENDBRANCH  10  20
ENDBRANCH   1  11
BRANCH   2  23
ATOM     23  N   UNL     1       2.696   8.182  18.314  0.00  0.00    +0.000 N 
ATOM     24  H   UNL     1       3.409   8.863  18.596  0.00  0.00    +0.000 HD
BRANCH  23  25
ATOM     25  C   UNL     1       1.482   8.789  17.797  0.00  0.00    +0.000 C 
BRANCH  25  26
ATOM     26  C   UNL     1       1.117   9.994  18.620  0.00  0.00    +0.000 A 
ATOM     27  C   UNL     1       0.084   9.942  19.564  0.00  0.00    +0.000 A 
ATOM     28  C   UNL     1      -0.211  11.062  20.334  0.00  0.00    +0.000 A 
ATOM     29  C   UNL     1       0.542  12.207  20.138  0.00  0.00    +0.000 A 
ATOM     30  N   UNL     1       1.548  12.300  19.241  0.00  0.00    +0.000 NA
ATOM     31  C   UNL     1       1.808  11.195  18.504  0.00  0.00    +0.000 A 
ENDBRANCH  25  26
ENDBRANCH  23  25
ENDBRANCH   2  23
TORSDOF 6
ENDMDL
MODEL 5
REMARK VINA RESULT:      -7.1      2.923      6.872
REMARK  Name = 
REMARK  7 active torsions:
REMARK  status: ('A' for Active; 'I' for Inactive)
REMARK    1  A    between atoms: C_1  and  O_2
REMARK    2  A    between atoms: O_2  and  C_3
REMARK    3  A    between atoms: C_9  and  N_10
REMARK    4  A    between atoms: C_11  and  C_13
REMARK    5  A    between atoms: C_14  and  N_15
REMARK    6  A    between atoms: N_15  and  C_16
REMARK    7  A    between atoms: C_16  and  C_17
REMARK                            x       y       z     vdW  Elec       q    Type
REMARK                         _______ _______ _______ _____ _____    ______ ____
ROOT
ATOM      1  C   UNL     1       2.419   6.046  18.858  0.00  0.00    +0.000 A 
ATOM      2  C   UNL     1       3.297   5.947  17.761  0.00  0.00    +0.000 A 
ATOM      3  S   UNL     1       3.428   4.330  17.201  0.00  0.00    +0.000 S 
ATOM      4  C   UNL     1       2.412   3.742  18.412  0.00  0.00    +0.000 A 
ATOM      5  C   UNL     1       1.942   4.734  19.255  0.00  0.00    +0.000 A 
ATOM      6  C   UNL     1       1.072   4.380  20.430  0.00  0.00    +0.000 C 
ATOM      7  C   UNL     1       1.158   2.886  20.786  0.00  0.00    +0.000 C 
ATOM      8  C   UNL     1       1.019   2.006  19.539  0.00  0.00    +0.000 C 
ATOM      9  C   UNL     1       2.148   2.272  18.537  0.00  0.00    +0.000 C 
ENDROOT
BRANCH   1  11
ATOM     10  N   UNL     1       1.452   8.300  18.695  0.00  0.00    +0.000 N 
ATOM     11  C   UNL     1       2.151   7.369  19.462  0.00  0.00    +0.000 C 
ATOM     12  O   UNL     1       2.571   7.610  20.593  0.00  0.00    +0.000 OA
ATOM     13  H   UNL     1       1.001   8.005  17.840  0.00  0.00    +0.000 HD
BRANCH  10  20
ATOM     14  C   UNL     1       0.347  10.000  20.087  0.00  0.00    +0.000 A 
ATOM     15  C   UNL     1       0.197  11.347  20.465  0.00  0.00    +0.000 A 
ATOM     16  C   UNL     1       0.874  12.362  19.792  0.00  0.00    +0.000 A 
ATOM     17  C   UNL     1       1.705  12.039  18.731  0.00  0.00    +0.000 A 
ATOM     18 CL   UNL     1       2.509  13.291  17.865  0.00  0.00    +0.000 Cl
ATOM     19  C   UNL     1       1.889  10.711  18.359  0.00  0.00    +0.000 A 
ATOM     20  C   UNL     1       1.245   9.670  19.045  0.00  0.00    +0.000 A 
BRANCH  14  22
ATOM     21  C   UNL     1      -0.365   9.012  22.126  0.00  0.00    +0.000 C 
ATOM     22  O   UNL     1      -0.323   8.965  20.696  0.00  0.00    +0.000 OA
ENDBRANCH  14  22
ENDBRANCH  10  20
ENDBRANCH   1  11
BRANCH   2  23
ATOM     23  N   UNL     1       4.016   6.969  17.209  0.00  0.00    +0.000 N 
ATOM     24  H   UNL     1       3.523   7.859  17.083  0.00  0.00    +0.000 HD
BRANCH  23  25
ATOM     25  C   UNL     1       5.126   6.781  16.292  0.00  0.00    +0.000 C 
BRANCH  25  26
ATOM     26  C   UNL     1       6.248   6.055  16.984  0.00  0.00    +0.000 A 
ATOM     27  C   UNL     1       6.652   6.408  18.277  0.00  0.00    +0.000 A 
ATOM     28  C   UNL     1       7.670   5.698  18.905  0.00  0.00    +0.000 A 
ATOM     29  C   UNL     1       8.256   4.649  18.218  0.00  0.00    +0.000 A 
ATOM     30  N   UNL     1       7.895   4.273  16.972  0.00  0.00    +0.000 NA
ATOM     31  C   UNL     1       6.905   4.985  16.385  0.00  0.00    +0.000 A 
ENDBRANCH  25  26
ENDBRANCH  23  25
ENDBRANCH   2  23
TORSDOF 6
ENDMDL
MODEL 6
REMARK VINA RESULT:      -7.0      1.290      1.474
REMARK  Name = 
REMARK  7 active torsions:
REMARK  status: ('A' for Active; 'I' for Inactive)
REMARK    1  A    between atoms: C_1  and  O_2
REMARK    2  A    between atoms: O_2  and  C_3
REMARK    3  A    between atoms: C_9  and  N_10
REMARK    4  A    between atoms: C_11  and  C_13
REMARK    5  A    between atoms: C_14  and  N_15
REMARK    6  A    between atoms: N_15  and  C_16
REMARK    7  A    between atoms: C_16  and  C_17
REMARK                            x       y       z     vdW  Elec       q    Type
REMARK                         _______ _______ _______ _____ _____    ______ ____
ROOT
ATOM      1  C   UNL     1       2.132   7.673  19.198  0.00  0.00    +0.000 A 
ATOM      2  C   UNL     1       1.760   7.114  20.437  0.00  0.00    +0.000 A 
ATOM      3  S   UNL     1       0.835   8.214  21.374  0.00  0.00    +0.000 S 
ATOM      4  C   UNL     1       0.970   9.438  20.221  0.00  0.00    +0.000 A 
ATOM      5  C   UNL     1       1.697   9.055  19.106  0.00  0.00    +0.000 A 
ATOM      6  C   UNL     1       1.970  10.042  18.005  0.00  0.00    +0.000 C 
ATOM      7  C   UNL     1       1.752  11.495  18.460  0.00  0.00    +0.000 C 
ATOM      8  C   UNL     1       0.423  11.651  19.208  0.00  0.00    +0.000 C 
ATOM      9  C   UNL     1       0.392  10.796  20.480  0.00  0.00    +0.000 C 
ENDROOT
BRANCH   1  11
ATOM     10  N   UNL     1       4.286   6.767  18.438  0.00  0.00    +0.000 N 
ATOM     11  C   UNL     1       2.910   6.864  18.236  0.00  0.00    +0.000 C 
ATOM     12  O   UNL     1       2.330   6.333  17.289  0.00  0.00    +0.000 OA
ATOM     13  H   UNL     1       4.688   7.092  19.306  0.00  0.00    +0.000 HD
BRANCH  10  20
ATOM     14  C   UNL     1       6.430   6.826  17.234  0.00  0.00    +0.000 A 
ATOM     15  C   UNL     1       7.362   6.201  16.386  0.00  0.00    +0.000 A 
ATOM     16  C   UNL     1       7.081   4.973  15.788  0.00  0.00    +0.000 A 
ATOM     17  C   UNL     1       5.861   4.363  16.031  0.00  0.00    +0.000 A 
ATOM     18 CL   UNL     1       5.485   2.870  15.261  0.00  0.00    +0.000 Cl
ATOM     19  C   UNL     1       4.936   4.952  16.889  0.00  0.00    +0.000 A 
ATOM     20  C   UNL     1       5.213   6.169  17.529  0.00  0.00    +0.000 A 
BRANCH  14  22
ATOM     21  C   UNL     1       7.975   8.569  17.701  0.00  0.00    +0.000 C 
ATOM     22  O   UNL     1       6.646   8.051  17.822  0.00  0.00    +0.000 OA
ENDBRANCH  14  22
ENDBRANCH  10  20
ENDBRANCH   1  11
BRANCH   2  23
ATOM     23  N   UNL     1       2.110   5.878  20.900  0.00  0.00    +0.000 N 
ATOM     24  H   UNL     1       3.113   5.691  20.994  0.00  0.00    +0.000 HD
BRANCH  23  25
ATOM     25  C   UNL     1       1.307   4.682  20.715  0.00  0.00    +0.000 C 
BRANCH  25  26
ATOM     26  C   UNL     1       2.012   3.727  19.790  0.00  0.00    +0.000 A 
ATOM     27  C   UNL     1       3.275   3.211  20.106  0.00  0.00    +0.000 A 
ATOM     28  C   UNL     1       3.889   2.304  19.248  0.00  0.00    +0.000 A 
ATOM     29  C   UNL     1       3.218   1.937  18.094  0.00  0.00    +0.000 A 
ATOM     30  N   UNL     1       1.998   2.408  17.753  0.00  0.00    +0.000 NA
ATOM     31  C   UNL     1       1.428   3.292  18.606  0.00  0.00    +0.000 A 
ENDBRANCH  25  26
ENDBRANCH  23  25
ENDBRANCH   2  23
TORSDOF 6
ENDMDL
MODEL 7
REMARK VINA RESULT:      -7.0      3.005      6.967
REMARK  Name = 
REMARK  7 active torsions:
REMARK  status: ('A' for Active; 'I' for Inactive)
REMARK    1  A    between atoms: C_1  and  O_2
REMARK    2  A    between atoms: O_2  and  C_3
REMARK    3  A    between atoms: C_9  and  N_10
REMARK    4  A    between atoms: C_11  and  C_13
REMARK    5  A    between atoms: C_14  and  N_15
REMARK    6  A    between atoms: N_15  and  C_16
REMARK    7  A    between atoms: C_16  and  C_17
REMARK                            x       y       z     vdW  Elec       q    Type
REMARK                         _______ _______ _______ _____ _____    ______ ____
ROOT
ATOM      1  C   UNL     1       2.407   6.325  18.705  0.00  0.00    +0.000 A 
ATOM      2  C   UNL     1       3.360   6.127  17.687  0.00  0.00    +0.000 A 
ATOM      3  S   UNL     1       3.599   4.459  17.361  0.00  0.00    +0.000 S 
ATOM      4  C   UNL     1       2.531   3.985  18.578  0.00  0.00    +0.000 A 
ATOM      5  C   UNL     1       1.962   5.054  19.248  0.00  0.00    +0.000 A 
ATOM      6  C   UNL     1       1.032   4.814  20.405  0.00  0.00    +0.000 C 
ATOM      7  C   UNL     1       1.160   3.388  20.967  0.00  0.00    +0.000 C 
ATOM      8  C   UNL     1       1.143   2.344  19.844  0.00  0.00    +0.000 C 
ATOM      9  C   UNL     1       2.323   2.533  18.886  0.00  0.00    +0.000 C 
ENDROOT
BRANCH   1  11
ATOM     10  N   UNL     1       1.576   8.561  18.113  0.00  0.00    +0.000 N 
ATOM     11  C   UNL     1       2.042   7.701  19.106  0.00  0.00    +0.000 C 
ATOM     12  O   UNL     1       2.184   8.043  20.280  0.00  0.00    +0.000 OA
ATOM     13  H   UNL     1       1.337   8.191  17.204  0.00  0.00    +0.000 HD
BRANCH  10  20
ATOM     14  C   UNL     1       0.017  10.419  18.515  0.00  0.00    +0.000 A 
ATOM     15  C   UNL     1      -0.204  11.791  18.739  0.00  0.00    +0.000 A 
ATOM     16  C   UNL     1       0.845  12.707  18.675  0.00  0.00    +0.000 A 
ATOM     17  C   UNL     1       2.123  12.259  18.382  0.00  0.00    +0.000 A 
ATOM     18 CL   UNL     1       3.415  13.389  18.255  0.00  0.00    +0.000 Cl
ATOM     19  C   UNL     1       2.366  10.903  18.185  0.00  0.00    +0.000 A 
ATOM     20  C   UNL     1       1.333   9.959  18.280  0.00  0.00    +0.000 A 
BRANCH  14  22
ATOM     21  C   UNL     1      -2.178   9.833  17.823  0.00  0.00    +0.000 C 
ATOM     22  O   UNL     1      -0.988   9.480  18.535  0.00  0.00    +0.000 OA
ENDBRANCH  14  22
ENDBRANCH  10  20
ENDBRANCH   1  11
BRANCH   2  23
ATOM     23  N   UNL     1       4.068   7.102  17.046  0.00  0.00    +0.000 N 
ATOM     24  H   UNL     1       3.567   7.973  16.841  0.00  0.00    +0.000 HD
BRANCH  23  25
ATOM     25  C   UNL     1       5.182   6.845  16.149  0.00  0.00    +0.000 C 
BRANCH  25  26
ATOM     26  C   UNL     1       6.274   6.114  16.881  0.00  0.00    +0.000 A 
ATOM     27  C   UNL     1       6.676   6.507  18.164  0.00  0.00    +0.000 A 
ATOM     28  C   UNL     1       7.667   5.792  18.831  0.00  0.00    +0.000 A 
ATOM     29  C   UNL     1       8.227   4.699  18.192  0.00  0.00    +0.000 A 
ATOM     30  N   UNL     1       7.866   4.284  16.958  0.00  0.00    +0.000 NA
ATOM     31  C   UNL     1       6.903   5.002  16.333  0.00  0.00    +0.000 A 
ENDBRANCH  25  26
ENDBRANCH  23  25
ENDBRANCH   2  23
TORSDOF 6
ENDMDL
MODEL 8
REMARK VINA RESULT:      -7.0      3.074      6.873
REMARK  Name = 
REMARK  7 active torsions:
REMARK  status: ('A' for Active; 'I' for Inactive)
REMARK    1  A    between atoms: C_1  and  O_2
REMARK    2  A    between atoms: O_2  and  C_3
REMARK    3  A    between atoms: C_9  and  N_10
REMARK    4  A    between atoms: C_11  and  C_13
REMARK    5  A    between atoms: C_14  and  N_15
REMARK    6  A    between atoms: N_15  and  C_16
REMARK    7  A    between atoms: C_16  and  C_17
REMARK                            x       y       z     vdW  Elec       q    Type
REMARK                         _______ _______ _______ _____ _____    ______ ____
ROOT
ATOM      1  C   UNL     1       2.923   6.172  19.144  0.00  0.00    +0.000 A 
ATOM      2  C   UNL     1       4.260   6.048  18.716  0.00  0.00    +0.000 A 
ATOM      3  S   UNL     1       4.864   4.464  18.981  0.00  0.00    +0.000 S 
ATOM      4  C   UNL     1       3.432   3.952  19.712  0.00  0.00    +0.000 A 
ATOM      5  C   UNL     1       2.467   4.943  19.767  0.00  0.00    +0.000 A 
ATOM      6  C   UNL     1       1.150   4.679  20.443  0.00  0.00    +0.000 C 
ATOM      7  C   UNL     1       1.206   3.449  21.365  0.00  0.00    +0.000 C 
ATOM      8  C   UNL     1       1.869   2.258  20.665  0.00  0.00    +0.000 C 
ATOM      9  C   UNL     1       3.319   2.570  20.281  0.00  0.00    +0.000 C 
ENDROOT
BRANCH   1  11
ATOM     10  N   UNL     1       1.709   8.077  20.111  0.00  0.00    +0.000 N 
ATOM     11  C   UNL     1       2.216   7.459  18.969  0.00  0.00    +0.000 C 
ATOM     12  O   UNL     1       2.080   7.922  17.837  0.00  0.00    +0.000 OA
ATOM     13  H   UNL     1       1.977   7.737  21.024  0.00  0.00    +0.000 HD
BRANCH  10  20
ATOM     14  C   UNL     1       0.690   9.964  21.315  0.00  0.00    +0.000 A 
ATOM     15  C   UNL     1      -0.094  11.132  21.298  0.00  0.00    +0.000 A 
ATOM     16  C   UNL     1      -0.744  11.545  20.137  0.00  0.00    +0.000 A 
ATOM     17  C   UNL     1      -0.619  10.789  18.982  0.00  0.00    +0.000 A 
ATOM     18 CL   UNL     1      -1.457  11.265  17.555  0.00  0.00    +0.000 Cl
ATOM     19  C   UNL     1       0.173   9.644  18.971  0.00  0.00    +0.000 A 
ATOM     20  C   UNL     1       0.866   9.231  20.119  0.00  0.00    +0.000 A 
BRANCH  14  22
ATOM     21  C   UNL     1       0.492   9.318  23.593  0.00  0.00    +0.000 C 
ATOM     22  O   UNL     1       1.325   9.496  22.443  0.00  0.00    +0.000 OA
ENDBRANCH  14  22
ENDBRANCH  10  20
ENDBRANCH   1  11
BRANCH   2  23
ATOM     23  N   UNL     1       5.035   7.045  18.197  0.00  0.00    +0.000 N 
ATOM     24  H   UNL     1       5.184   7.866  18.792  0.00  0.00    +0.000 HD
BRANCH  23  25
ATOM     25  C   UNL     1       5.163   7.322  16.777  0.00  0.00    +0.000 C 
BRANCH  25  26
ATOM     26  C   UNL     1       5.772   6.140  16.074  0.00  0.00    +0.000 A 
ATOM     27  C   UNL     1       5.062   5.431  15.098  0.00  0.00    +0.000 A 
ATOM     28  C   UNL     1       5.661   4.362  14.441  0.00  0.00    +0.000 A 
ATOM     29  C   UNL     1       6.963   4.032  14.780  0.00  0.00    +0.000 A 
ATOM     30  N   UNL     1       7.685   4.690  15.713  0.00  0.00    +0.000 NA
ATOM     31  C   UNL     1       7.072   5.724  16.338  0.00  0.00    +0.000 A 
ENDBRANCH  25  26
ENDBRANCH  23  25
ENDBRANCH   2  23
TORSDOF 6
ENDMDL
MODEL 9
REMARK VINA RESULT:      -6.9      2.011      5.495
REMARK  Name = 
REMARK  7 active torsions:
REMARK  status: ('A' for Active; 'I' for Inactive)
REMARK    1  A    between atoms: C_1  and  O_2
REMARK    2  A    between atoms: O_2  and  C_3
REMARK    3  A    between atoms: C_9  and  N_10
REMARK    4  A    between atoms: C_11  and  C_13
REMARK    5  A    between atoms: C_14  and  N_15
REMARK    6  A    between atoms: N_15  and  C_16
REMARK    7  A    between atoms: C_16  and  C_17
REMARK                            x       y       z     vdW  Elec       q    Type
REMARK                         _______ _______ _______ _____ _____    ______ ____
ROOT
ATOM      1  C   UNL     1       3.037   5.704  18.562  0.00  0.00    +0.000 A 
ATOM      2  C   UNL     1       2.475   6.850  19.160  0.00  0.00    +0.000 A 
ATOM      3  S   UNL     1       1.569   6.450  20.561  0.00  0.00    +0.000 S 
ATOM      4  C   UNL     1       1.836   4.797  20.362  0.00  0.00    +0.000 A 
ATOM      5  C   UNL     1       2.615   4.502  19.257  0.00  0.00    +0.000 A 
ATOM      6  C   UNL     1       2.902   3.071  18.893  0.00  0.00    +0.000 C 
ATOM      7  C   UNL     1       1.930   2.092  19.574  0.00  0.00    +0.000 C 
ATOM      8  C   UNL     1       1.782   2.404  21.068  0.00  0.00    +0.000 C 
ATOM      9  C   UNL     1       1.204   3.806  21.293  0.00  0.00    +0.000 C 
ENDROOT
BRANCH   1  11
ATOM     10  N   UNL     1       4.542   4.714  16.890  0.00  0.00    +0.000 N 
ATOM     11  C   UNL     1       3.882   5.849  17.356  0.00  0.00    +0.000 C 
ATOM     12  O   UNL     1       3.992   6.956  16.829  0.00  0.00    +0.000 OA
ATOM     13  H   UNL     1       4.301   3.807  17.264  0.00  0.00    +0.000 HD
BRANCH  10  20
ATOM     14  C   UNL     1       6.802   5.244  16.078  0.00  0.00    +0.000 A 
ATOM     15  C   UNL     1       7.776   5.168  15.065  0.00  0.00    +0.000 A 
ATOM     16  C   UNL     1       7.477   4.615  13.820  0.00  0.00    +0.000 A 
ATOM     17  C   UNL     1       6.199   4.137  13.577  0.00  0.00    +0.000 A 
ATOM     18 CL   UNL     1       5.807   3.496  12.029  0.00  0.00    +0.000 Cl
ATOM     19  C   UNL     1       5.230   4.178  14.576  0.00  0.00    +0.000 A 
ATOM     20  C   UNL     1       5.519   4.697  15.847  0.00  0.00    +0.000 A 
BRANCH  14  22
ATOM     21  C   UNL     1       7.447   7.179  17.294  0.00  0.00    +0.000 C 
ATOM     22  O   UNL     1       7.037   5.808  17.310  0.00  0.00    +0.000 OA
ENDBRANCH  14  22
ENDBRANCH  10  20
ENDBRANCH   1  11
BRANCH   2  23
ATOM     23  N   UNL     1       2.569   8.130  18.694  0.00  0.00    +0.000 N 
ATOM     24  H   UNL     1       3.069   8.798  19.288  0.00  0.00    +0.000 HD
BRANCH  23  25
ATOM     25  C   UNL     1       1.597   8.748  17.810  0.00  0.00    +0.000 C 
BRANCH  25  26
ATOM     26  C   UNL     1       0.684   9.648  18.597  0.00  0.00    +0.000 A 
ATOM     27  C   UNL     1       1.046  10.119  19.865  0.00  0.00    +0.000 A 
ATOM     28  C   UNL     1       0.197  10.976  20.558  0.00  0.00    +0.000 A 
ATOM     29  C   UNL     1      -0.996  11.341  19.957  0.00  0.00    +0.000 A 
ATOM     30  N   UNL     1      -1.383  10.913  18.736  0.00  0.00    +0.000 NA
ATOM     31  C   UNL     1      -0.538  10.076  18.089  0.00  0.00    +0.000 A 
ENDBRANCH  25  26
ENDBRANCH  23  25
ENDBRANCH   2  23
TORSDOF 6
ENDMDL
