MODEL 1
REMARK VINA RESULT:      -7.3      0.000      0.000
REMARK  Name = 
REMARK  11 active torsions:
REMARK  status: ('A' for Active; 'I' for Inactive)
REMARK    1  A    between atoms: C_1  and  C_2
REMARK    2  A    between atoms: C_2  and  C_3
REMARK    3  A    between atoms: C_6  and  S_7
REMARK    4  A    between atoms: S_7  and  C_8
REMARK    5  A    between atoms: C_8  and  C_9
REMARK    6  A    between atoms: C_14  and  C_15
REMARK    7  A    between atoms: C_16  and  C_17
REMARK    8  A    between atoms: N_19  and  C_20
REMARK    9  A    between atoms: N_19  and  C_21
REMARK   10  A    between atoms: N_23  and  C_24
REMARK   11  A    between atoms: C_24  and  C_25
REMARK                            x       y       z     vdW  Elec       q    Type
REMARK                         _______ _______ _______ _____ _____    ______ ____
ROOT
ATOM      1  C   UNL     1       2.451   6.438  19.704  0.00  0.00    +0.000 C 
ATOM      2  O   UNL     1       2.293   6.740  18.525  0.00  0.00    +0.000 OA
ATOM      3  N   UNL     1       2.101   7.188  20.800  0.00  0.00    +0.000 N 
ATOM      4  C   UNL     1       1.380   8.340  20.731  0.00  0.00    +0.000 A 
ATOM      5  N   UNL     1       0.702   8.863  19.748  0.00  0.00    +0.000 NA
ATOM      6  C   UNL     1      -0.016   9.954  20.224  0.00  0.00    +0.000 A 
ATOM      7  C   UNL     1      -0.804  10.751  19.243  0.00  0.00    +0.000 C 
ATOM      8  C   UNL     1       0.055  10.145  21.605  0.00  0.00    +0.000 A 
ATOM      9  S   UNL     1       1.341   9.183  22.204  0.00  0.00    +0.000 S 
ATOM     10  H   UNL     1       2.515   6.978  21.704  0.00  0.00    +0.000 HD
ENDROOT
BRANCH   8  11
ATOM     11  C   UNL     1      -0.690  11.112  22.408  0.00  0.00    +0.000 C 
ATOM     12  O   UNL     1      -1.502  10.707  23.240  0.00  0.00    +0.000 OA
ATOM     13  N   UNL     1      -0.452  12.498  22.296  0.00  0.00    +0.000 N 
ATOM     14  C   UNL     1       0.479  13.182  21.408  0.00  0.00    +0.000 C 
ATOM     15  C   UNL     1      -1.239  13.395  23.130  0.00  0.00    +0.000 C 
ENDBRANCH   8  11
BRANCH   1  16
ATOM     16  C   UNL     1       3.085   5.112  20.094  0.00  0.00    +0.000 C 
BRANCH  16  17
ATOM     17  S   UNL     1       3.959   4.345  18.706  0.00  0.00    +0.000 S 
BRANCH  17  21
ATOM     18  C   UNL     1       7.041   6.601  18.096  0.00  0.00    +0.000 A 
ATOM     19  N   UNL     1       7.429   5.966  19.187  0.00  0.00    +0.000 NA
ATOM     20  N   UNL     1       6.451   5.067  19.536  0.00  0.00    +0.000 NA
ATOM     21  C   UNL     1       5.468   5.188  18.678  0.00  0.00    +0.000 A 
ATOM     22  N   UNL     1       5.805   6.112  17.723  0.00  0.00    +0.000 N 
BRANCH  18  24
ATOM     23  C   UNL     1       8.283   8.799  18.210  0.00  0.00    +0.000 C 
ATOM     24  C   UNL     1       7.781   7.657  17.339  0.00  0.00    +0.000 C 
ENDBRANCH  18  24
BRANCH  22  25
ATOM     25  C   UNL     1       5.086   6.427  16.506  0.00  0.00    +0.000 C 
ATOM     26  C   UNL     1       5.460   5.548  15.327  0.00  0.00    +0.000 C 
ENDBRANCH  22  25
ENDBRANCH  17  21
ENDBRANCH  16  17
ENDBRANCH   1  16
TORSDOF 6
ENDMDL
MODEL 2
REMARK VINA RESULT:      -7.0      5.504      8.130
REMARK  Name = 
REMARK  11 active torsions:
REMARK  status: ('A' for Active; 'I' for Inactive)
REMARK    1  A    between atoms: C_1  and  C_2
REMARK    2  A    between atoms: C_2  and  C_3
REMARK    3  A    between atoms: C_6  and  S_7
REMARK    4  A    between atoms: S_7  and  C_8
REMARK    5  A    between atoms: C_8  and  C_9
REMARK    6  A    between atoms: C_14  and  C_15
REMARK    7  A    between atoms: C_16  and  C_17
REMARK    8  A    between atoms: N_19  and  C_20
REMARK    9  A    between atoms: N_19  and  C_21
REMARK   10  A    between atoms: N_23  and  C_24
REMARK   11  A    between atoms: C_24  and  C_25
REMARK                            x       y       z     vdW  Elec       q    Type
REMARK                         _______ _______ _______ _____ _____    ______ ____
ROOT
ATOM      1  C   UNL     1       7.834   7.507  17.990  0.00  0.00    +0.000 C 
ATOM      2  O   UNL     1       8.384   7.110  19.013  0.00  0.00    +0.000 OA
ATOM      3  N   UNL     1       7.742   8.807  17.557  0.00  0.00    +0.000 N 
ATOM      4  C   UNL     1       8.389   9.850  18.145  0.00  0.00    +0.000 A 
ATOM      5  N   UNL     1       9.346   9.868  19.031  0.00  0.00    +0.000 NA
ATOM      6  C   UNL     1       9.800  11.173  19.178  0.00  0.00    +0.000 A 
ATOM      7  C   UNL     1      10.847  11.435  20.206  0.00  0.00    +0.000 C 
ATOM      8  C   UNL     1       9.238  12.093  18.291  0.00  0.00    +0.000 A 
ATOM      9  S   UNL     1       7.868  11.359  17.569  0.00  0.00    +0.000 S 
ATOM     10  H   UNL     1       7.046   9.055  16.859  0.00  0.00    +0.000 HD
ENDROOT
BRANCH   8  11
ATOM     11  C   UNL     1       9.609  13.496  18.112  0.00  0.00    +0.000 C 
ATOM     12  O   UNL     1       8.917  14.373  18.628  0.00  0.00    +0.000 OA
ATOM     13  N   UNL     1      10.780  13.862  17.416  0.00  0.00    +0.000 N 
ATOM     14  C   UNL     1      11.749  12.991  16.764  0.00  0.00    +0.000 C 
ATOM     15  C   UNL     1      11.076  15.282  17.281  0.00  0.00    +0.000 C 
ENDBRANCH   8  11
BRANCH   1  16
ATOM     16  C   UNL     1       7.164   6.534  17.033  0.00  0.00    +0.000 C 
BRANCH  16  17
ATOM     17  S   UNL     1       5.364   6.515  17.239  0.00  0.00    +0.000 S 
BRANCH  17  21
ATOM     18  C   UNL     1       4.086   3.591  19.425  0.00  0.00    +0.000 A 
ATOM     19  N   UNL     1       5.389   3.438  19.570  0.00  0.00    +0.000 NA
ATOM     20  N   UNL     1       6.024   4.442  18.878  0.00  0.00    +0.000 NA
ATOM     21  C   UNL     1       5.104   5.171  18.294  0.00  0.00    +0.000 A 
ATOM     22  N   UNL     1       3.862   4.705  18.640  0.00  0.00    +0.000 N 
BRANCH  18  24
ATOM     23  C   UNL     1       2.506   3.235  21.364  0.00  0.00    +0.000 C 
ATOM     24  C   UNL     1       2.995   2.752  20.008  0.00  0.00    +0.000 C 
ENDBRANCH  18  24
BRANCH  22  25
ATOM     25  C   UNL     1       2.580   5.315  18.356  0.00  0.00    +0.000 C 
ATOM     26  C   UNL     1       1.640   4.427  17.559  0.00  0.00    +0.000 C 
ENDBRANCH  22  25
ENDBRANCH  17  21
ENDBRANCH  16  17
ENDBRANCH   1  16
TORSDOF 6
ENDMDL
MODEL 3
REMARK VINA RESULT:      -6.9      5.409      7.807
REMARK  Name = 
REMARK  11 active torsions:
REMARK  status: ('A' for Active; 'I' for Inactive)
REMARK    1  A    between atoms: C_1  and  C_2
REMARK    2  A    between atoms: C_2  and  C_3
REMARK    3  A    between atoms: C_6  and  S_7
REMARK    4  A    between atoms: S_7  and  C_8
REMARK    5  A    between atoms: C_8  and  C_9
REMARK    6  A    between atoms: C_14  and  C_15
REMARK    7  A    between atoms: C_16  and  C_17
REMARK    8  A    between atoms: N_19  and  C_20
REMARK    9  A    between atoms: N_19  and  C_21
REMARK   10  A    between atoms: N_23  and  C_24
REMARK   11  A    between atoms: C_24  and  C_25
REMARK                            x       y       z     vdW  Elec       q    Type
REMARK                         _______ _______ _______ _____ _____    ______ ____
ROOT
ATOM      1  C   UNL     1       7.724   7.367  17.967  0.00  0.00    +0.000 C 
ATOM      2  O   UNL     1       8.254   6.975  19.003  0.00  0.00    +0.000 OA
ATOM      3  N   UNL     1       7.672   8.660  17.508  0.00  0.00    +0.000 N 
ATOM      4  C   UNL     1       8.344   9.696  18.081  0.00  0.00    +0.000 A 
ATOM      5  N   UNL     1       9.294   9.704  18.974  0.00  0.00    +0.000 NA
ATOM      6  C   UNL     1       9.784  10.999  19.099  0.00  0.00    +0.000 A 
ATOM      7  C   UNL     1      10.829  11.252  20.130  0.00  0.00    +0.000 C 
ATOM      8  C   UNL     1       9.255  11.917  18.189  0.00  0.00    +0.000 A 
ATOM      9  S   UNL     1       7.870  11.207  17.470  0.00  0.00    +0.000 S 
ATOM     10  H   UNL     1       6.988   8.914  16.800  0.00  0.00    +0.000 HD
ENDROOT
BRANCH   8  11
ATOM     11  C   UNL     1       9.667  13.304  17.986  0.00  0.00    +0.000 C 
ATOM     12  O   UNL     1      10.512  13.563  17.130  0.00  0.00    +0.000 OA
ATOM     13  N   UNL     1       9.068  14.360  18.705  0.00  0.00    +0.000 N 
ATOM     14  C   UNL     1       8.034  14.280  19.728  0.00  0.00    +0.000 C 
ATOM     15  C   UNL     1       9.538  15.714  18.444  0.00  0.00    +0.000 C 
ENDBRANCH   8  11
BRANCH   1  16
ATOM     16  C   UNL     1       7.034   6.395  17.024  0.00  0.00    +0.000 C 
BRANCH  16  17
ATOM     17  S   UNL     1       5.237   6.388  17.255  0.00  0.00    +0.000 S 
BRANCH  17  21
ATOM     18  C   UNL     1       3.971   3.498  19.492  0.00  0.00    +0.000 A 
ATOM     19  N   UNL     1       5.274   3.322  19.600  0.00  0.00    +0.000 NA
ATOM     20  N   UNL     1       5.906   4.311  18.885  0.00  0.00    +0.000 NA
ATOM     21  C   UNL     1       4.984   5.054  18.324  0.00  0.00    +0.000 A 
ATOM     22  N   UNL     1       3.744   4.612  18.708  0.00  0.00    +0.000 N 
BRANCH  18  24
ATOM     23  C   UNL     1       2.437   3.182  21.475  0.00  0.00    +0.000 C 
ATOM     24  C   UNL     1       2.882   2.681  20.110  0.00  0.00    +0.000 C 
ENDBRANCH  18  24
BRANCH  22  25
ATOM     25  C   UNL     1       2.465   5.243  18.457  0.00  0.00    +0.000 C 
ATOM     26  C   UNL     1       1.535   4.422  17.582  0.00  0.00    +0.000 C 
ENDBRANCH  22  25
ENDBRANCH  17  21
ENDBRANCH  16  17
ENDBRANCH   1  16
TORSDOF 6
ENDMDL
MODEL 4
REMARK VINA RESULT:      -6.9      1.958      2.284
REMARK  Name = 
REMARK  11 active torsions:
REMARK  status: ('A' for Active; 'I' for Inactive)
REMARK    1  A    between atoms: C_1  and  C_2
REMARK    2  A    between atoms: C_2  and  C_3
REMARK    3  A    between atoms: C_6  and  S_7
REMARK    4  A    between atoms: S_7  and  C_8
REMARK    5  A    between atoms: C_8  and  C_9
REMARK    6  A    between atoms: C_14  and  C_15
REMARK    7  A    between atoms: C_16  and  C_17
REMARK    8  A    between atoms: N_19  and  C_20
REMARK    9  A    between atoms: N_19  and  C_21
REMARK   10  A    between atoms: N_23  and  C_24
REMARK   11  A    between atoms: C_24  and  C_25
REMARK                            x       y       z     vdW  Elec       q    Type
REMARK                         _______ _______ _______ _____ _____    ______ ____
ROOT
ATOM      1  C   UNL     1       2.568   4.931  20.553  0.00  0.00    +0.000 C 
ATOM      2  O   UNL     1       1.783   4.561  21.421  0.00  0.00    +0.000 OA
ATOM      3  N   UNL     1       2.564   6.139  19.901  0.00  0.00    +0.000 N 
ATOM      4  C   UNL     1       1.755   7.180  20.237  0.00  0.00    +0.000 A 
ATOM      5  N   UNL     1       1.016   7.377  21.293  0.00  0.00    +0.000 NA
ATOM      6  C   UNL     1       0.521   8.675  21.262  0.00  0.00    +0.000 A 
ATOM      7  C   UNL     1      -0.418   9.089  22.342  0.00  0.00    +0.000 C 
ATOM      8  C   UNL     1       1.015   9.466  20.223  0.00  0.00    +0.000 A 
ATOM      9  S   UNL     1       1.777   8.431  19.090  0.00  0.00    +0.000 S 
ATOM     10  H   UNL     1       3.072   6.238  19.026  0.00  0.00    +0.000 HD
ENDROOT
BRANCH   8  11
ATOM     11  C   UNL     1       0.789  10.894  20.009  0.00  0.00    +0.000 C 
ATOM     12  O   UNL     1       1.544  11.710  20.538  0.00  0.00    +0.000 OA
ATOM     13  N   UNL     1      -0.235  11.356  19.156  0.00  0.00    +0.000 N 
ATOM     14  C   UNL     1      -1.209  10.569  18.411  0.00  0.00    +0.000 C 
ATOM     15  C   UNL     1      -0.394  12.795  18.999  0.00  0.00    +0.000 C 
ENDBRANCH   8  11
BRANCH   1  16
ATOM     16  C   UNL     1       3.701   4.030  20.087  0.00  0.00    +0.000 C 
BRANCH  16  17
ATOM     17  S   UNL     1       4.107   4.300  18.343  0.00  0.00    +0.000 S 
BRANCH  17  21
ATOM     18  C   UNL     1       7.216   6.567  17.951  0.00  0.00    +0.000 A 
ATOM     19  N   UNL     1       7.544   5.910  19.048  0.00  0.00    +0.000 NA
ATOM     20  N   UNL     1       6.549   5.003  19.324  0.00  0.00    +0.000 NA
ATOM     21  C   UNL     1       5.614   5.143  18.416  0.00  0.00    +0.000 A 
ATOM     22  N   UNL     1       6.003   6.086  17.500  0.00  0.00    +0.000 N 
BRANCH  18  24
ATOM     23  C   UNL     1       7.914   8.995  17.938  0.00  0.00    +0.000 C 
ATOM     24  C   UNL     1       7.996   7.637  17.258  0.00  0.00    +0.000 C 
ENDBRANCH  18  24
BRANCH  22  25
ATOM     25  C   UNL     1       5.352   6.426  16.252  0.00  0.00    +0.000 C 
ATOM     26  C   UNL     1       5.639   5.452  15.124  0.00  0.00    +0.000 C 
ENDBRANCH  22  25
ENDBRANCH  17  21
ENDBRANCH  16  17
ENDBRANCH   1  16
TORSDOF 6
ENDMDL
MODEL 5
REMARK VINA RESULT:      -6.8      2.468      3.148
REMARK  Name = 
REMARK  11 active torsions:
REMARK  status: ('A' for Active; 'I' for Inactive)
REMARK    1  A    between atoms: C_1  and  C_2
REMARK    2  A    between atoms: C_2  and  C_3
REMARK    3  A    between atoms: C_6  and  S_7
REMARK    4  A    between atoms: S_7  and  C_8
REMARK    5  A    between atoms: C_8  and  C_9
REMARK    6  A    between atoms: C_14  and  C_15
REMARK    7  A    between atoms: C_16  and  C_17
REMARK    8  A    between atoms: N_19  and  C_20
REMARK    9  A    between atoms: N_19  and  C_21
REMARK   10  A    between atoms: N_23  and  C_24
REMARK   11  A    between atoms: C_24  and  C_25
REMARK                            x       y       z     vdW  Elec       q    Type
REMARK                         _______ _______ _______ _____ _____    ______ ____
ROOT
ATOM      1  C   UNL     1       2.988   5.505  19.806  0.00  0.00    +0.000 C 
ATOM      2  O   UNL     1       2.389   5.159  20.819  0.00  0.00    +0.000 OA
ATOM      3  N   UNL     1       2.802   6.665  19.095  0.00  0.00    +0.000 N 
ATOM      4  C   UNL     1       2.005   7.688  19.508  0.00  0.00    +0.000 A 
ATOM      5  N   UNL     1       1.450   7.920  20.665  0.00  0.00    +0.000 NA
ATOM      6  C   UNL     1       0.883   9.190  20.646  0.00  0.00    +0.000 A 
ATOM      7  C   UNL     1       0.124   9.631  21.849  0.00  0.00    +0.000 C 
ATOM      8  C   UNL     1       1.142   9.931  19.491  0.00  0.00    +0.000 A 
ATOM      9  S   UNL     1       1.755   8.857  18.304  0.00  0.00    +0.000 S 
ATOM     10  H   UNL     1       3.144   6.728  18.140  0.00  0.00    +0.000 HD
ENDROOT
BRANCH   8  11
ATOM     11  C   UNL     1       0.801  11.329  19.237  0.00  0.00    +0.000 C 
ATOM     12  O   UNL     1       1.664  12.195  19.378  0.00  0.00    +0.000 OA
ATOM     13  N   UNL     1      -0.478  11.700  18.772  0.00  0.00    +0.000 N 
ATOM     14  C   UNL     1      -1.624  10.839  18.509  0.00  0.00    +0.000 C 
ATOM     15  C   UNL     1      -0.737  13.115  18.546  0.00  0.00    +0.000 C 
ENDBRANCH   8  11
BRANCH   1  16
ATOM     16  C   UNL     1       4.074   4.629  19.200  0.00  0.00    +0.000 C 
BRANCH  16  17
ATOM     17  S   UNL     1       5.724   5.339  19.432  0.00  0.00    +0.000 S 
BRANCH  17  21
ATOM     18  C   UNL     1       7.033   4.738  15.842  0.00  0.00    +0.000 A 
ATOM     19  N   UNL     1       8.021   4.211  16.541  0.00  0.00    +0.000 NA
ATOM     20  N   UNL     1       7.703   4.298  17.875  0.00  0.00    +0.000 NA
ATOM     21  C   UNL     1       6.546   4.906  17.974  0.00  0.00    +0.000 A 
ATOM     22  N   UNL     1       6.058   5.168  16.720  0.00  0.00    +0.000 N 
BRANCH  18  24
ATOM     23  C   UNL     1       6.047   3.786  13.720  0.00  0.00    +0.000 C 
ATOM     24  C   UNL     1       6.924   4.854  14.356  0.00  0.00    +0.000 C 
ENDBRANCH  18  24
BRANCH  22  25
ATOM     25  C   UNL     1       4.746   5.671  16.371  0.00  0.00    +0.000 C 
ATOM     26  C   UNL     1       4.700   7.174  16.157  0.00  0.00    +0.000 C 
ENDBRANCH  22  25
ENDBRANCH  17  21
ENDBRANCH  16  17
ENDBRANCH   1  16
TORSDOF 6
ENDMDL
MODEL 6
REMARK VINA RESULT:      -6.8      5.500      7.403
REMARK  Name = 
REMARK  11 active torsions:
REMARK  status: ('A' for Active; 'I' for Inactive)
REMARK    1  A    between atoms: C_1  and  C_2
REMARK    2  A    between atoms: C_2  and  C_3
REMARK    3  A    between atoms: C_6  and  S_7
REMARK    4  A    between atoms: S_7  and  C_8
REMARK    5  A    between atoms: C_8  and  C_9
REMARK    6  A    between atoms: C_14  and  C_15
REMARK    7  A    between atoms: C_16  and  C_17
REMARK    8  A    between atoms: N_19  and  C_20
REMARK    9  A    between atoms: N_19  and  C_21
REMARK   10  A    between atoms: N_23  and  C_24
REMARK   11  A    between atoms: C_24  and  C_25
REMARK                            x       y       z     vdW  Elec       q    Type
REMARK                         _______ _______ _______ _____ _____    ______ ____
ROOT
ATOM      1  C   UNL     1       8.007   7.609  18.120  0.00  0.00    +0.000 C 
ATOM      2  O   UNL     1       7.479   7.825  17.033  0.00  0.00    +0.000 OA
ATOM      3  N   UNL     1       8.713   8.504  18.885  0.00  0.00    +0.000 N 
ATOM      4  C   UNL     1       8.808   9.832  18.605  0.00  0.00    +0.000 A 
ATOM      5  N   UNL     1       8.141  10.574  17.766  0.00  0.00    +0.000 NA
ATOM      6  C   UNL     1       8.474  11.907  17.979  0.00  0.00    +0.000 A 
ATOM      7  C   UNL     1       7.881  12.927  17.070  0.00  0.00    +0.000 C 
ATOM      8  C   UNL     1       9.308  12.135  19.075  0.00  0.00    +0.000 A 
ATOM      9  S   UNL     1       9.963  10.627  19.561  0.00  0.00    +0.000 S 
ATOM     10  H   UNL     1       9.329   8.161  19.617  0.00  0.00    +0.000 HD
ENDROOT
BRANCH   8  11
ATOM     11  C   UNL     1       9.717  13.425  19.628  0.00  0.00    +0.000 C 
ATOM     12  O   UNL     1      10.526  14.116  19.009  0.00  0.00    +0.000 OA
ATOM     13  N   UNL     1       9.155  13.924  20.821  0.00  0.00    +0.000 N 
ATOM     14  C   UNL     1       8.166  13.290  21.684  0.00  0.00    +0.000 C 
ATOM     15  C   UNL     1       9.619  15.216  21.305  0.00  0.00    +0.000 C 
ENDBRANCH   8  11
BRANCH   1  16
ATOM     16  C   UNL     1       7.918   6.239  18.775  0.00  0.00    +0.000 C 
BRANCH  16  17
ATOM     17  S   UNL     1       7.271   4.986  17.637  0.00  0.00    +0.000 S 
BRANCH  17  21
ATOM     18  C   UNL     1       3.611   4.344  18.711  0.00  0.00    +0.000 A 
ATOM     19  N   UNL     1       4.247   3.591  19.589  0.00  0.00    +0.000 NA
ATOM     20  N   UNL     1       5.598   3.730  19.382  0.00  0.00    +0.000 NA
ATOM     21  C   UNL     1       5.768   4.536  18.362  0.00  0.00    +0.000 A 
ATOM     22  N   UNL     1       4.549   4.987  17.927  0.00  0.00    +0.000 N 
BRANCH  18  24
ATOM     23  C   UNL     1       1.391   3.252  18.201  0.00  0.00    +0.000 C 
ATOM     24  C   UNL     1       2.135   4.529  18.562  0.00  0.00    +0.000 C 
ENDBRANCH  18  24
BRANCH  22  25
ATOM     25  C   UNL     1       4.288   6.016  16.942  0.00  0.00    +0.000 C 
ATOM     26  C   UNL     1       3.962   7.372  17.541  0.00  0.00    +0.000 C 
ENDBRANCH  22  25
ENDBRANCH  17  21
ENDBRANCH  16  17
ENDBRANCH   1  16
TORSDOF 6
ENDMDL
MODEL 7
REMARK VINA RESULT:      -6.8      5.889      8.412
REMARK  Name = 
REMARK  11 active torsions:
REMARK  status: ('A' for Active; 'I' for Inactive)
REMARK    1  A    between atoms: C_1  and  C_2
REMARK    2  A    between atoms: C_2  and  C_3
REMARK    3  A    between atoms: C_6  and  S_7
REMARK    4  A    between atoms: S_7  and  C_8
REMARK    5  A    between atoms: C_8  and  C_9
REMARK    6  A    between atoms: C_14  and  C_15
REMARK    7  A    between atoms: C_16  and  C_17
REMARK    8  A    between atoms: N_19  and  C_20
REMARK    9  A    between atoms: N_19  and  C_21
REMARK   10  A    between atoms: N_23  and  C_24
REMARK   11  A    between atoms: C_24  and  C_25
REMARK                            x       y       z     vdW  Elec       q    Type
REMARK                         _______ _______ _______ _____ _____    ______ ____
ROOT
ATOM      1  C   UNL     1       8.168   8.178  18.147  0.00  0.00    +0.000 C 
ATOM      2  O   UNL     1       8.750   7.753  19.141  0.00  0.00    +0.000 OA
ATOM      3  N   UNL     1       8.105   9.483  17.725  0.00  0.00    +0.000 N 
ATOM      4  C   UNL     1       8.820  10.497  18.285  0.00  0.00    +0.000 A 
ATOM      5  N   UNL     1       9.819  10.472  19.122  0.00  0.00    +0.000 NA
ATOM      6  C   UNL     1      10.330  11.758  19.252  0.00  0.00    +0.000 A 
ATOM      7  C   UNL     1      11.435  11.973  20.228  0.00  0.00    +0.000 C 
ATOM      8  C   UNL     1       9.762  12.705  18.397  0.00  0.00    +0.000 A 
ATOM      9  S   UNL     1       8.331  12.028  17.740  0.00  0.00    +0.000 S 
ATOM     10  H   UNL     1       7.385   9.762  17.063  0.00  0.00    +0.000 HD
ENDROOT
BRANCH   8  11
ATOM     11  C   UNL     1      10.178  14.093  18.206  0.00  0.00    +0.000 C 
ATOM     12  O   UNL     1       9.621  14.983  18.849  0.00  0.00    +0.000 OA
ATOM     13  N   UNL     1      11.247  14.427  17.349  0.00  0.00    +0.000 N 
ATOM     14  C   UNL     1      12.056  13.535  16.530  0.00  0.00    +0.000 C 
ATOM     15  C   UNL     1      11.597  15.834  17.213  0.00  0.00    +0.000 C 
ENDBRANCH   8  11
BRANCH   1  16
ATOM     16  C   UNL     1       7.414   7.237  17.220  0.00  0.00    +0.000 C 
BRANCH  16  17
ATOM     17  S   UNL     1       7.448   5.527  17.817  0.00  0.00    +0.000 S 
BRANCH  17  21
ATOM     18  C   UNL     1       3.702   4.700  18.310  0.00  0.00    +0.000 A 
ATOM     19  N   UNL     1       4.036   5.013  19.547  0.00  0.00    +0.000 NA
ATOM     20  N   UNL     1       5.358   5.385  19.559  0.00  0.00    +0.000 NA
ATOM     21  C   UNL     1       5.821   5.262  18.340  0.00  0.00    +0.000 A 
ATOM     22  N   UNL     1       4.808   4.873  17.502  0.00  0.00    +0.000 N 
BRANCH  18  24
ATOM     23  C   UNL     1       2.182   2.743  17.815  0.00  0.00    +0.000 C 
ATOM     24  C   UNL     1       2.367   4.253  17.807  0.00  0.00    +0.000 C 
ENDBRANCH  18  24
BRANCH  22  25
ATOM     25  C   UNL     1       4.843   4.783  16.057  0.00  0.00    +0.000 C 
ATOM     26  C   UNL     1       5.793   3.722  15.530  0.00  0.00    +0.000 C 
ENDBRANCH  22  25
ENDBRANCH  17  21
ENDBRANCH  16  17
ENDBRANCH   1  16
TORSDOF 6
ENDMDL
MODEL 8
REMARK VINA RESULT:      -6.8      5.950      8.456
REMARK  Name = 
REMARK  11 active torsions:
REMARK  status: ('A' for Active; 'I' for Inactive)
REMARK    1  A    between atoms: C_1  and  C_2
REMARK    2  A    between atoms: C_2  and  C_3
REMARK    3  A    between atoms: C_6  and  S_7
REMARK    4  A    between atoms: S_7  and  C_8
REMARK    5  A    between atoms: C_8  and  C_9
REMARK    6  A    between atoms: C_14  and  C_15
REMARK    7  A    between atoms: C_16  and  C_17
REMARK    8  A    between atoms: N_19  and  C_20
REMARK    9  A    between atoms: N_19  and  C_21
REMARK   10  A    between atoms: N_23  and  C_24
REMARK   11  A    between atoms: C_24  and  C_25
REMARK                            x       y       z     vdW  Elec       q    Type
REMARK                         _______ _______ _______ _____ _____    ______ ____
ROOT
ATOM      1  C   UNL     1       8.192   8.612  18.223  0.00  0.00    +0.000 C 
ATOM      2  O   UNL     1       8.838   8.151  19.159  0.00  0.00    +0.000 OA
ATOM      3  N   UNL     1       8.208   9.909  17.772  0.00  0.00    +0.000 N 
ATOM      4  C   UNL     1       9.073  10.858  18.221  0.00  0.00    +0.000 A 
ATOM      5  N   UNL     1      10.152  10.752  18.946  0.00  0.00    +0.000 NA
ATOM      6  C   UNL     1      10.794  11.984  18.983  0.00  0.00    +0.000 A 
ATOM      7  C   UNL     1      12.016  12.108  19.826  0.00  0.00    +0.000 C 
ATOM      8  C   UNL     1      10.228  12.965  18.167  0.00  0.00    +0.000 A 
ATOM      9  S   UNL     1       8.675  12.420  17.688  0.00  0.00    +0.000 S 
ATOM     10  H   UNL     1       7.449  10.245  17.183  0.00  0.00    +0.000 HD
ENDROOT
BRANCH   8  11
ATOM     11  C   UNL     1      10.750  14.302  17.891  0.00  0.00    +0.000 C 
ATOM     12  O   UNL     1      11.509  14.468  16.937  0.00  0.00    +0.000 OA
ATOM     13  N   UNL     1      10.351  15.418  18.656  0.00  0.00    +0.000 N 
ATOM     14  C   UNL     1       9.444  15.449  19.796  0.00  0.00    +0.000 C 
ATOM     15  C   UNL     1      10.920  16.715  18.318  0.00  0.00    +0.000 C 
ENDBRANCH   8  11
BRANCH   1  16
ATOM     16  C   UNL     1       7.254   7.733  17.410  0.00  0.00    +0.000 C 
BRANCH  16  17
ATOM     17  S   UNL     1       7.459   5.978  17.808  0.00  0.00    +0.000 S 
BRANCH  17  21
ATOM     18  C   UNL     1       3.824   4.707  18.174  0.00  0.00    +0.000 A 
ATOM     19  N   UNL     1       4.111   4.957  19.437  0.00  0.00    +0.000 NA
ATOM     20  N   UNL     1       5.385   5.471  19.499  0.00  0.00    +0.000 NA
ATOM     21  C   UNL     1       5.868   5.494  18.281  0.00  0.00    +0.000 A 
ATOM     22  N   UNL     1       4.911   5.063  17.400  0.00  0.00    +0.000 N 
BRANCH  18  24
ATOM     23  C   UNL     1       2.510   2.637  17.563  0.00  0.00    +0.000 C 
ATOM     24  C   UNL     1       2.551   4.157  17.616  0.00  0.00    +0.000 C 
ENDBRANCH  18  24
BRANCH  22  25
ATOM     25  C   UNL     1       4.966   5.091  15.953  0.00  0.00    +0.000 C 
ATOM     26  C   UNL     1       5.705   3.913  15.344  0.00  0.00    +0.000 C 
ENDBRANCH  22  25
ENDBRANCH  17  21
ENDBRANCH  16  17
ENDBRANCH   1  16
TORSDOF 6
ENDMDL
MODEL 9
REMARK VINA RESULT:      -6.8      1.598      1.918
REMARK  Name = 
REMARK  11 active torsions:
REMARK  status: ('A' for Active; 'I' for Inactive)
REMARK    1  A    between atoms: C_1  and  C_2
REMARK    2  A    between atoms: C_2  and  C_3
REMARK    3  A    between atoms: C_6  and  S_7
REMARK    4  A    between atoms: S_7  and  C_8
REMARK    5  A    between atoms: C_8  and  C_9
REMARK    6  A    between atoms: C_14  and  C_15
REMARK    7  A    between atoms: C_16  and  C_17
REMARK    8  A    between atoms: N_19  and  C_20
REMARK    9  A    between atoms: N_19  and  C_21
REMARK   10  A    between atoms: N_23  and  C_24
REMARK   11  A    between atoms: C_24  and  C_25
REMARK                            x       y       z     vdW  Elec       q    Type
REMARK                         _______ _______ _______ _____ _____    ______ ____
ROOT
ATOM      1  C   UNL     1       2.390   5.851  19.414  0.00  0.00    +0.000 C 
ATOM      2  O   UNL     1       1.951   5.280  20.409  0.00  0.00    +0.000 OA
ATOM      3  N   UNL     1       2.209   7.168  19.074  0.00  0.00    +0.000 N 
ATOM      4  C   UNL     1       1.621   8.088  19.887  0.00  0.00    +0.000 A 
ATOM      5  N   UNL     1       1.316   8.033  21.153  0.00  0.00    +0.000 NA
ATOM      6  C   UNL     1       0.902   9.292  21.573  0.00  0.00    +0.000 A 
ATOM      7  C   UNL     1       0.429   9.437  22.978  0.00  0.00    +0.000 C 
ATOM      8  C   UNL     1       1.027  10.300  20.614  0.00  0.00    +0.000 A 
ATOM      9  S   UNL     1       1.288   9.552  19.095  0.00  0.00    +0.000 S 
ATOM     10  H   UNL     1       2.375   7.466  18.116  0.00  0.00    +0.000 HD
ENDROOT
BRANCH   8  11
ATOM     11  C   UNL     1       0.804  11.732  20.798  0.00  0.00    +0.000 C 
ATOM     12  O   UNL     1       1.724  12.437  21.214  0.00  0.00    +0.000 OA
ATOM     13  N   UNL     1      -0.421  12.336  20.446  0.00  0.00    +0.000 N 
ATOM     14  C   UNL     1      -1.616  11.699  19.909  0.00  0.00    +0.000 C 
ATOM     15  C   UNL     1      -0.562  13.769  20.663  0.00  0.00    +0.000 C 
ENDBRANCH   8  11
BRANCH   1  16
ATOM     16  C   UNL     1       3.242   5.107  18.397  0.00  0.00    +0.000 C 
BRANCH  16  17
ATOM     17  S   UNL     1       4.573   4.166  19.187  0.00  0.00    +0.000 S 
BRANCH  17  21
ATOM     18  C   UNL     1       7.275   6.745  18.181  0.00  0.00    +0.000 A 
ATOM     19  N   UNL     1       7.835   6.229  19.258  0.00  0.00    +0.000 NA
ATOM     20  N   UNL     1       7.015   5.238  19.742  0.00  0.00    +0.000 NA
ATOM     21  C   UNL     1       5.953   5.186  18.976  0.00  0.00    +0.000 A 
ATOM     22  N   UNL     1       6.083   6.086  17.951  0.00  0.00    +0.000 N 
BRANCH  18  24
ATOM     23  C   UNL     1       8.299   9.052  18.076  0.00  0.00    +0.000 C 
ATOM     24  C   UNL     1       7.803   7.837  17.308  0.00  0.00    +0.000 C 
ENDBRANCH  18  24
BRANCH  22  25
ATOM     25  C   UNL     1       5.225   6.237  16.794  0.00  0.00    +0.000 C 
ATOM     26  C   UNL     1       5.701   5.472  15.572  0.00  0.00    +0.000 C 
ENDBRANCH  22  25
ENDBRANCH  17  21
ENDBRANCH  16  17
ENDBRANCH   1  16
TORSDOF 6
ENDMDL
