MODEL 1
REMARK VINA RESULT:      -8.0      0.000      0.000
REMARK  Name = 
REMARK  9 active torsions:
REMARK  status: ('A' for Active; 'I' for Inactive)
REMARK    1  A    between atoms: C_1  and  O_2
REMARK    2  A    between atoms: O_2  and  C_3
REMARK    3  A    between atoms: C_6  and  C_7
REMARK    4  A    between atoms: N_8  and  N_9
REMARK    5  A    between atoms: C_10  and  C_12
REMARK    6  A    between atoms: C_12  and  C_13
REMARK    7  A    between atoms: N_15  and  C_16
REMARK    8  A    between atoms: C_16  and  C_17
REMARK    9  A    between atoms: C_24  and  N_25
REMARK                            x       y       z     vdW  Elec       q    Type
REMARK                         _______ _______ _______ _____ _____    ______ ____
ROOT
ATOM      1  N   UNL     1       8.662   8.143  18.951  0.00  0.00    +0.000 N 
ATOM      2  C   UNL     1       7.917   7.317  18.122  0.00  0.00    +0.000 C 
ATOM      3  O   UNL     1       7.368   7.692  17.084  0.00  0.00    +0.000 OA
ATOM      4  H   UNL     1       9.089   7.790  19.808  0.00  0.00    +0.000 HD
ENDROOT
BRANCH   1   6
ATOM      5  C   UNL     1       9.396  10.259  19.386  0.00  0.00    +0.000 C 
ATOM      6  N   UNL     1       8.825   9.435  18.575  0.00  0.00    +0.000 NA
BRANCH   5  10
ATOM      7  C   UNL     1       9.775  14.322  18.019  0.00  0.00    +0.000 A 
ATOM      8  C   UNL     1      10.317  13.263  17.290  0.00  0.00    +0.000 A 
ATOM      9  C   UNL     1      10.197  11.952  17.756  0.00  0.00    +0.000 A 
ATOM     10  C   UNL     1       9.546  11.672  18.965  0.00  0.00    +0.000 A 
ATOM     11  C   UNL     1       9.037  12.714  19.735  0.00  0.00    +0.000 A 
ATOM     12  C   UNL     1       9.172  14.029  19.253  0.00  0.00    +0.000 A 
BRANCH  12  13
ATOM     13  N   UNL     1       8.613  15.101  20.053  0.00  0.00    +0.000 N 
ATOM     14  O   UNL     1       9.359  15.664  20.864  0.00  0.00    +0.000 OA
ATOM     15  O   UNL     1       7.401  15.325  19.913  0.00  0.00    +0.000 OA
ENDBRANCH  12  13
BRANCH   7  17
ATOM     16  C   UNL     1      11.111  16.130  17.282  0.00  0.00    +0.000 C 
ATOM     17  O   UNL     1       9.814  15.619  17.588  0.00  0.00    +0.000 OA
ENDBRANCH   7  17
ENDBRANCH   5  10
ENDBRANCH   1   6
BRANCH   2  18
ATOM     18  C   UNL     1       7.726   5.899  18.585  0.00  0.00    +0.000 C 
BRANCH  18  19
ATOM     19  C   UNL     1       7.044   4.994  17.598  0.00  0.00    +0.000 C 
ATOM     20  O   UNL     1       7.632   4.564  16.608  0.00  0.00    +0.000 OA
ATOM     21  N   UNL     1       5.738   4.676  17.899  0.00  0.00    +0.000 N 
ATOM     22  H   UNL     1       5.220   5.288  18.520  0.00  0.00    +0.000 HD
BRANCH  21  23
ATOM     23  C   UNL     1       4.972   3.840  16.998  0.00  0.00    +0.000 C 
BRANCH  23  24
ATOM     24  C   UNL     1       3.614   3.465  17.517  0.00  0.00    +0.000 A 
ATOM     25  C   UNL     1       2.515   4.329  17.519  0.00  0.00    +0.000 A 
ATOM     26  C   UNL     1       1.313   3.921  18.094  0.00  0.00    +0.000 A 
ATOM     27  C   UNL     1       1.249   2.663  18.666  0.00  0.00    +0.000 A 
ATOM     28  N   UNL     1       2.290   1.805  18.699  0.00  0.00    +0.000 NA
ATOM     29  C   UNL     1       3.443   2.227  18.134  0.00  0.00    +0.000 A 
ENDBRANCH  23  24
ENDBRANCH  21  23
ENDBRANCH  18  19
ENDBRANCH   2  18
TORSDOF 8
ENDMDL
MODEL 2
REMARK VINA RESULT:      -7.9      1.856      2.694
REMARK  Name = 
REMARK  9 active torsions:
REMARK  status: ('A' for Active; 'I' for Inactive)
REMARK    1  A    between atoms: C_1  and  O_2
REMARK    2  A    between atoms: O_2  and  C_3
REMARK    3  A    between atoms: C_6  and  C_7
REMARK    4  A    between atoms: N_8  and  N_9
REMARK    5  A    between atoms: C_10  and  C_12
REMARK    6  A    between atoms: C_12  and  C_13
REMARK    7  A    between atoms: N_15  and  C_16
REMARK    8  A    between atoms: C_16  and  C_17
REMARK    9  A    between atoms: C_24  and  N_25
REMARK                            x       y       z     vdW  Elec       q    Type
REMARK                         _______ _______ _______ _____ _____    ______ ____
ROOT
ATOM      1  N   UNL     1       7.704   7.195  17.586  0.00  0.00    +0.000 N 
ATOM      2  C   UNL     1       7.672   5.959  18.216  0.00  0.00    +0.000 C 
ATOM      3  O   UNL     1       8.085   5.755  19.360  0.00  0.00    +0.000 OA
ATOM      4  H   UNL     1       7.361   7.313  16.632  0.00  0.00    +0.000 HD
ENDROOT
BRANCH   1   6
ATOM      5  C   UNL     1       8.392   9.368  17.678  0.00  0.00    +0.000 C 
ATOM      6  N   UNL     1       8.189   8.249  18.286  0.00  0.00    +0.000 NA
BRANCH   5  10
ATOM      7  C   UNL     1      10.106  12.569  19.987  0.00  0.00    +0.000 A 
ATOM      8  C   UNL     1       9.855  11.322  20.560  0.00  0.00    +0.000 A 
ATOM      9  C   UNL     1       9.284  10.299  19.800  0.00  0.00    +0.000 A 
ATOM     10  C   UNL     1       8.942  10.504  18.457  0.00  0.00    +0.000 A 
ATOM     11  C   UNL     1       9.140  11.752  17.873  0.00  0.00    +0.000 A 
ATOM     12  C   UNL     1       9.710  12.772  18.656  0.00  0.00    +0.000 A 
BRANCH  12  13
ATOM     13  N   UNL     1       9.935  14.059  18.027  0.00  0.00    +0.000 N 
ATOM     14  O   UNL     1       9.016  14.888  18.065  0.00  0.00    +0.000 OA
ATOM     15  O   UNL     1      11.012  14.205  17.431  0.00  0.00    +0.000 OA
ENDBRANCH  12  13
BRANCH   7  17
ATOM     16  C   UNL     1       9.903  14.249  21.640  0.00  0.00    +0.000 C 
ATOM     17  O   UNL     1      10.712  13.591  20.666  0.00  0.00    +0.000 OA
ENDBRANCH   7  17
ENDBRANCH   5  10
ENDBRANCH   1   6
BRANCH   2  18
ATOM     18  C   UNL     1       7.161   4.804  17.401  0.00  0.00    +0.000 C 
BRANCH  18  19
ATOM     19  C   UNL     1       5.679   4.808  17.151  0.00  0.00    +0.000 C 
ATOM     20  O   UNL     1       5.123   5.754  16.598  0.00  0.00    +0.000 OA
ATOM     21  N   UNL     1       5.011   3.676  17.567  0.00  0.00    +0.000 N 
ATOM     22  H   UNL     1       5.438   3.094  18.278  0.00  0.00    +0.000 HD
BRANCH  21  23
ATOM     23  C   UNL     1       3.575   3.588  17.409  0.00  0.00    +0.000 C 
BRANCH  23  24
ATOM     24  C   UNL     1       2.818   3.557  18.705  0.00  0.00    +0.000 A 
ATOM     25  C   UNL     1       2.469   2.381  19.376  0.00  0.00    +0.000 A 
ATOM     26  C   UNL     1       1.696   2.445  20.534  0.00  0.00    +0.000 A 
ATOM     27  C   UNL     1       1.279   3.688  20.980  0.00  0.00    +0.000 A 
ATOM     28  N   UNL     1       1.580   4.845  20.354  0.00  0.00    +0.000 NA
ATOM     29  C   UNL     1       2.331   4.752  19.234  0.00  0.00    +0.000 A 
ENDBRANCH  23  24
ENDBRANCH  21  23
ENDBRANCH  18  19
ENDBRANCH   2  18
TORSDOF 8
ENDMDL
MODEL 3
REMARK VINA RESULT:      -7.9      1.885      2.651
REMARK  Name = 
REMARK  9 active torsions:
REMARK  status: ('A' for Active; 'I' for Inactive)
REMARK    1  A    between atoms: C_1  and  O_2
REMARK    2  A    between atoms: O_2  and  C_3
REMARK    3  A    between atoms: C_6  and  C_7
REMARK    4  A    between atoms: N_8  and  N_9
REMARK    5  A    between atoms: C_10  and  C_12
REMARK    6  A    between atoms: C_12  and  C_13
REMARK    7  A    between atoms: N_15  and  C_16
REMARK    8  A    between atoms: C_16  and  C_17
REMARK    9  A    between atoms: C_24  and  N_25
REMARK                            x       y       z     vdW  Elec       q    Type
REMARK                         _______ _______ _______ _____ _____    ______ ____
ROOT
ATOM      1  N   UNL     1       7.774   7.426  17.379  0.00  0.00    +0.000 N 
ATOM      2  C   UNL     1       7.439   6.271  18.072  0.00  0.00    +0.000 C 
ATOM      3  O   UNL     1       7.687   6.084  19.265  0.00  0.00    +0.000 OA
ATOM      4  H   UNL     1       7.559   7.531  16.387  0.00  0.00    +0.000 HD
ENDROOT
BRANCH   1   6
ATOM      5  C   UNL     1       8.176   9.646  17.717  0.00  0.00    +0.000 C 
ATOM      6  N   UNL     1       8.381   8.423  18.068  0.00  0.00    +0.000 NA
BRANCH   5  10
ATOM      7  C   UNL     1      10.278  12.658  19.958  0.00  0.00    +0.000 A 
ATOM      8  C   UNL     1       9.839  11.482  20.567  0.00  0.00    +0.000 A 
ATOM      9  C   UNL     1       9.146  10.522  19.828  0.00  0.00    +0.000 A 
ATOM     10  C   UNL     1       8.865  10.721  18.470  0.00  0.00    +0.000 A 
ATOM     11  C   UNL     1       9.251  11.906  17.848  0.00  0.00    +0.000 A 
ATOM     12  C   UNL     1       9.944  12.864  18.611  0.00  0.00    +0.000 A 
BRANCH  12  13
ATOM     13  N   UNL     1      10.363  14.082  17.943  0.00  0.00    +0.000 N 
ATOM     14  O   UNL     1      11.463  14.079  17.377  0.00  0.00    +0.000 OA
ATOM     15  O   UNL     1       9.612  15.062  18.054  0.00  0.00    +0.000 OA
ENDBRANCH  12  13
BRANCH   7  17
ATOM     16  C   UNL     1      10.273  14.440  21.514  0.00  0.00    +0.000 C 
ATOM     17  O   UNL     1      11.009  13.609  20.617  0.00  0.00    +0.000 OA
ENDBRANCH   7  17
ENDBRANCH   5  10
ENDBRANCH   1   6
BRANCH   2  18
ATOM     18  C   UNL     1       6.799   5.171  17.272  0.00  0.00    +0.000 C 
BRANCH  18  19
ATOM     19  C   UNL     1       5.309   5.288  17.108  0.00  0.00    +0.000 C 
ATOM     20  O   UNL     1       4.734   4.840  16.119  0.00  0.00    +0.000 OA
ATOM     21  N   UNL     1       4.652   5.908  18.149  0.00  0.00    +0.000 N 
ATOM     22  H   UNL     1       5.180   6.523  18.758  0.00  0.00    +0.000 HD
BRANCH  21  23
ATOM     23  C   UNL     1       3.220   6.108  18.080  0.00  0.00    +0.000 C 
BRANCH  23  24
ATOM     24  C   UNL     1       2.418   5.012  18.722  0.00  0.00    +0.000 A 
ATOM     25  C   UNL     1       1.918   3.905  18.029  0.00  0.00    +0.000 A 
ATOM     26  C   UNL     1       1.116   2.977  18.690  0.00  0.00    +0.000 A 
ATOM     27  C   UNL     1       0.823   3.192  20.025  0.00  0.00    +0.000 A 
ATOM     28  N   UNL     1       1.272   4.253  20.727  0.00  0.00    +0.000 NA
ATOM     29  C   UNL     1       2.048   5.137  20.060  0.00  0.00    +0.000 A 
ENDBRANCH  23  24
ENDBRANCH  21  23
ENDBRANCH  18  19
ENDBRANCH   2  18
TORSDOF 8
ENDMDL
MODEL 4
REMARK VINA RESULT:      -7.8      1.439      1.715
REMARK  Name = 
REMARK  9 active torsions:
REMARK  status: ('A' for Active; 'I' for Inactive)
REMARK    1  A    between atoms: C_1  and  O_2
REMARK    2  A    between atoms: O_2  and  C_3
REMARK    3  A    between atoms: C_6  and  C_7
REMARK    4  A    between atoms: N_8  and  N_9
REMARK    5  A    between atoms: C_10  and  C_12
REMARK    6  A    between atoms: C_12  and  C_13
REMARK    7  A    between atoms: N_15  and  C_16
REMARK    8  A    between atoms: C_16  and  C_17
REMARK    9  A    between atoms: C_24  and  N_25
REMARK                            x       y       z     vdW  Elec       q    Type
REMARK                         _______ _______ _______ _____ _____    ______ ____
ROOT
ATOM      1  N   UNL     1       8.609   8.239  18.940  0.00  0.00    +0.000 N 
ATOM      2  C   UNL     1       7.898   7.379  18.116  0.00  0.00    +0.000 C 
ATOM      3  O   UNL     1       7.542   7.656  16.969  0.00  0.00    +0.000 OA
ATOM      4  H   UNL     1       8.872   7.969  19.889  0.00  0.00    +0.000 HD
ENDROOT
BRANCH   1   6
ATOM      5  C   UNL     1       9.470  10.332  19.227  0.00  0.00    +0.000 C 
ATOM      6  N   UNL     1       8.963   9.447  18.438  0.00  0.00    +0.000 NA
BRANCH   5  10
ATOM      7  C   UNL     1      10.544  14.100  17.448  0.00  0.00    +0.000 A 
ATOM      8  C   UNL     1      11.365  12.981  17.316  0.00  0.00    +0.000 A 
ATOM      9  C   UNL     1      11.009  11.770  17.911  0.00  0.00    +0.000 A 
ATOM     10  C   UNL     1       9.831  11.655  18.663  0.00  0.00    +0.000 A 
ATOM     11  C   UNL     1       9.016  12.768  18.850  0.00  0.00    +0.000 A 
ATOM     12  C   UNL     1       9.395  13.981  18.246  0.00  0.00    +0.000 A 
BRANCH  12  13
ATOM     13  N   UNL     1       8.522  15.125  18.427  0.00  0.00    +0.000 N 
ATOM     14  O   UNL     1       7.601  15.281  17.617  0.00  0.00    +0.000 OA
ATOM     15  O   UNL     1       8.814  15.906  19.346  0.00  0.00    +0.000 OA
ENDBRANCH  12  13
BRANCH   7  17
ATOM     16  C   UNL     1      12.035  15.924  17.231  0.00  0.00    +0.000 C 
ATOM     17  O   UNL     1      10.813  15.297  16.843  0.00  0.00    +0.000 OA
ENDBRANCH   7  17
ENDBRANCH   5  10
ENDBRANCH   1   6
BRANCH   2  18
ATOM     18  C   UNL     1       7.491   6.061  18.714  0.00  0.00    +0.000 C 
BRANCH  18  19
ATOM     19  C   UNL     1       6.285   5.422  18.085  0.00  0.00    +0.000 C 
ATOM     20  O   UNL     1       6.360   4.339  17.507  0.00  0.00    +0.000 OA
ATOM     21  N   UNL     1       5.108   6.125  18.223  0.00  0.00    +0.000 N 
ATOM     22  H   UNL     1       5.157   7.121  18.411  0.00  0.00    +0.000 HD
BRANCH  21  23
ATOM     23  C   UNL     1       3.891   5.621  17.624  0.00  0.00    +0.000 C 
BRANCH  23  24
ATOM     24  C   UNL     1       2.983   4.912  18.587  0.00  0.00    +0.000 A 
ATOM     25  C   UNL     1       2.616   3.568  18.466  0.00  0.00    +0.000 A 
ATOM     26  C   UNL     1       1.705   3.014  19.363  0.00  0.00    +0.000 A 
ATOM     27  C   UNL     1       1.172   3.828  20.348  0.00  0.00    +0.000 A 
ATOM     28  N   UNL     1       1.487   5.132  20.490  0.00  0.00    +0.000 NA
ATOM     29  C   UNL     1       2.374   5.642  19.607  0.00  0.00    +0.000 A 
ENDBRANCH  23  24
ENDBRANCH  21  23
ENDBRANCH  18  19
ENDBRANCH   2  18
TORSDOF 8
ENDMDL
MODEL 5
REMARK VINA RESULT:      -7.7      6.464      9.747
REMARK  Name = 
REMARK  9 active torsions:
REMARK  status: ('A' for Active; 'I' for Inactive)
REMARK    1  A    between atoms: C_1  and  O_2
REMARK    2  A    between atoms: O_2  and  C_3
REMARK    3  A    between atoms: C_6  and  C_7
REMARK    4  A    between atoms: N_8  and  N_9
REMARK    5  A    between atoms: C_10  and  C_12
REMARK    6  A    between atoms: C_12  and  C_13
REMARK    7  A    between atoms: N_15  and  C_16
REMARK    8  A    between atoms: C_16  and  C_17
REMARK    9  A    between atoms: C_24  and  N_25
REMARK                            x       y       z     vdW  Elec       q    Type
REMARK                         _______ _______ _______ _____ _____    ______ ____
ROOT
ATOM      1  N   UNL     1       1.671   6.658  20.823  0.00  0.00    +0.000 N 
ATOM      2  C   UNL     1       1.444   8.015  20.636  0.00  0.00    +0.000 C 
ATOM      3  O   UNL     1       1.782   8.640  19.629  0.00  0.00    +0.000 OA
ATOM      4  H   UNL     1       1.383   6.185  21.680  0.00  0.00    +0.000 HD
ENDROOT
BRANCH   1   6
ATOM      5  C   UNL     1       3.550   6.048  19.682  0.00  0.00    +0.000 C 
ATOM      6  N   UNL     1       2.270   5.973  19.819  0.00  0.00    +0.000 NA
BRANCH   5  10
ATOM      7  C   UNL     1       5.272   3.946  16.345  0.00  0.00    +0.000 A 
ATOM      8  C   UNL     1       3.936   3.760  16.703  0.00  0.00    +0.000 A 
ATOM      9  C   UNL     1       3.398   4.439  17.797  0.00  0.00    +0.000 A 
ATOM     10  C   UNL     1       4.184   5.308  18.565  0.00  0.00    +0.000 A 
ATOM     11  C   UNL     1       5.532   5.478  18.258  0.00  0.00    +0.000 A 
ATOM     12  C   UNL     1       6.058   4.781  17.156  0.00  0.00    +0.000 A 
BRANCH  12  13
ATOM     13  N   UNL     1       7.457   4.988  16.832  0.00  0.00    +0.000 N 
ATOM     14  O   UNL     1       8.282   4.204  17.316  0.00  0.00    +0.000 OA
ATOM     15  O   UNL     1       7.726   5.986  16.148  0.00  0.00    +0.000 OA
ENDBRANCH  12  13
BRANCH   7  17
ATOM     16  C   UNL     1       5.633   4.020  14.009  0.00  0.00    +0.000 C 
ATOM     17  O   UNL     1       5.840   3.351  15.252  0.00  0.00    +0.000 OA
ENDBRANCH   7  17
ENDBRANCH   5  10
ENDBRANCH   1   6
BRANCH   2  18
ATOM     18  C   UNL     1       0.809   8.752  21.782  0.00  0.00    +0.000 C 
BRANCH  18  19
ATOM     19  C   UNL     1       0.180  10.068  21.420  0.00  0.00    +0.000 C 
ATOM     20  O   UNL     1       0.329  11.066  22.123  0.00  0.00    +0.000 OA
ATOM     21  N   UNL     1      -0.547  10.069  20.250  0.00  0.00    +0.000 N 
ATOM     22  H   UNL     1      -0.897   9.185  19.895  0.00  0.00    +0.000 HD
BRANCH  21  23
ATOM     23  C   UNL     1      -1.227  11.273  19.823  0.00  0.00    +0.000 C 
BRANCH  23  24
ATOM     24  C   UNL     1      -2.063  11.099  18.588  0.00  0.00    +0.000 A 
ATOM     25  C   UNL     1      -3.345  11.635  18.434  0.00  0.00    +0.000 A 
ATOM     26  C   UNL     1      -4.080  11.356  17.283  0.00  0.00    +0.000 A 
ATOM     27  C   UNL     1      -3.516  10.532  16.324  0.00  0.00    +0.000 A 
ATOM     28  N   UNL     1      -2.289   9.983  16.441  0.00  0.00    +0.000 NA
ATOM     29  C   UNL     1      -1.599  10.271  17.567  0.00  0.00    +0.000 A 
ENDBRANCH  23  24
ENDBRANCH  21  23
ENDBRANCH  18  19
ENDBRANCH   2  18
TORSDOF 8
ENDMDL
MODEL 6
REMARK VINA RESULT:      -7.7      1.622      1.991
REMARK  Name = 
REMARK  9 active torsions:
REMARK  status: ('A' for Active; 'I' for Inactive)
REMARK    1  A    between atoms: C_1  and  O_2
REMARK    2  A    between atoms: O_2  and  C_3
REMARK    3  A    between atoms: C_6  and  C_7
REMARK    4  A    between atoms: N_8  and  N_9
REMARK    5  A    between atoms: C_10  and  C_12
REMARK    6  A    between atoms: C_12  and  C_13
REMARK    7  A    between atoms: N_15  and  C_16
REMARK    8  A    between atoms: C_16  and  C_17
REMARK    9  A    between atoms: C_24  and  N_25
REMARK                            x       y       z     vdW  Elec       q    Type
REMARK                         _______ _______ _______ _____ _____    ______ ____
ROOT
ATOM      1  N   UNL     1       8.040   7.491  18.227  0.00  0.00    +0.000 N 
ATOM      2  C   UNL     1       7.071   6.880  17.444  0.00  0.00    +0.000 C 
ATOM      3  O   UNL     1       6.489   7.432  16.508  0.00  0.00    +0.000 OA
ATOM      4  H   UNL     1       8.487   6.997  19.001  0.00  0.00    +0.000 HD
ENDROOT
BRANCH   1   6
ATOM      5  C   UNL     1       9.009   9.476  18.800  0.00  0.00    +0.000 C 
ATOM      6  N   UNL     1       8.393   8.763  17.920  0.00  0.00    +0.000 NA
BRANCH   5  10
ATOM      7  C   UNL     1      10.098  13.476  17.646  0.00  0.00    +0.000 A 
ATOM      8  C   UNL     1      10.997  12.418  17.513  0.00  0.00    +0.000 A 
ATOM      9  C   UNL     1      10.632  11.129  17.906  0.00  0.00    +0.000 A 
ATOM     10  C   UNL     1       9.367  10.872  18.451  0.00  0.00    +0.000 A 
ATOM     11  C   UNL     1       8.467  11.917  18.637  0.00  0.00    +0.000 A 
ATOM     12  C   UNL     1       8.854  13.210  18.240  0.00  0.00    +0.000 A 
BRANCH  12  13
ATOM     13  N   UNL     1       7.896  14.285  18.416  0.00  0.00    +0.000 N 
ATOM     14  O   UNL     1       7.093  14.496  17.499  0.00  0.00    +0.000 OA
ATOM     15  O   UNL     1       8.004  14.962  19.449  0.00  0.00    +0.000 OA
ENDBRANCH  12  13
BRANCH   7  17
ATOM     16  C   UNL     1      11.755  15.123  17.274  0.00  0.00    +0.000 C 
ATOM     17  O   UNL     1      10.379  14.748  17.228  0.00  0.00    +0.000 OA
ENDBRANCH   7  17
ENDBRANCH   5  10
ENDBRANCH   1   6
BRANCH   2  18
ATOM     18  C   UNL     1       6.678   5.482  17.833  0.00  0.00    +0.000 C 
BRANCH  18  19
ATOM     19  C   UNL     1       5.604   5.391  18.880  0.00  0.00    +0.000 C 
ATOM     20  O   UNL     1       5.787   4.792  19.938  0.00  0.00    +0.000 OA
ATOM     21  N   UNL     1       4.428   6.040  18.572  0.00  0.00    +0.000 N 
ATOM     22  H   UNL     1       4.220   6.231  17.598  0.00  0.00    +0.000 HD
BRANCH  21  23
ATOM     23  C   UNL     1       3.312   5.988  19.492  0.00  0.00    +0.000 C 
BRANCH  23  24
ATOM     24  C   UNL     1       2.404   4.811  19.286  0.00  0.00    +0.000 A 
ATOM     25  C   UNL     1       1.871   4.045  20.328  0.00  0.00    +0.000 A 
ATOM     26  C   UNL     1       1.100   2.921  20.040  0.00  0.00    +0.000 A 
ATOM     27  C   UNL     1       0.896   2.584  18.713  0.00  0.00    +0.000 A 
ATOM     28  N   UNL     1       1.404   3.285  17.678  0.00  0.00    +0.000 NA
ATOM     29  C   UNL     1       2.148   4.371  17.988  0.00  0.00    +0.000 A 
ENDBRANCH  23  24
ENDBRANCH  21  23
ENDBRANCH  18  19
ENDBRANCH   2  18
TORSDOF 8
ENDMDL
MODEL 7
REMARK VINA RESULT:      -7.7      1.392      1.728
REMARK  Name = 
REMARK  9 active torsions:
REMARK  status: ('A' for Active; 'I' for Inactive)
REMARK    1  A    between atoms: C_1  and  O_2
REMARK    2  A    between atoms: O_2  and  C_3
REMARK    3  A    between atoms: C_6  and  C_7
REMARK    4  A    between atoms: N_8  and  N_9
REMARK    5  A    between atoms: C_10  and  C_12
REMARK    6  A    between atoms: C_12  and  C_13
REMARK    7  A    between atoms: N_15  and  C_16
REMARK    8  A    between atoms: C_16  and  C_17
REMARK    9  A    between atoms: C_24  and  N_25
REMARK                            x       y       z     vdW  Elec       q    Type
REMARK                         _______ _______ _______ _____ _____    ______ ____
ROOT
ATOM      1  N   UNL     1       8.626   8.346  18.738  0.00  0.00    +0.000 N 
ATOM      2  C   UNL     1       7.822   7.632  17.861  0.00  0.00    +0.000 C 
ATOM      3  O   UNL     1       7.115   8.150  16.994  0.00  0.00    +0.000 OA
ATOM      4  H   UNL     1       9.186   7.874  19.449  0.00  0.00    +0.000 HD
ENDROOT
BRANCH   1   6
ATOM      5  C   UNL     1       9.782  10.272  18.338  0.00  0.00    +0.000 C 
ATOM      6  N   UNL     1       8.661   9.695  18.609  0.00  0.00    +0.000 NA
BRANCH   5  10
ATOM      7  C   UNL     1       9.914  14.546  17.856  0.00  0.00    +0.000 A 
ATOM      8  C   UNL     1      11.055  13.765  17.671  0.00  0.00    +0.000 A 
ATOM      9  C   UNL     1      10.997  12.381  17.846  0.00  0.00    +0.000 A 
ATOM     10  C   UNL     1       9.804  11.750  18.221  0.00  0.00    +0.000 A 
ATOM     11  C   UNL     1       8.661  12.511  18.457  0.00  0.00    +0.000 A 
ATOM     12  C   UNL     1       8.740  13.904  18.282  0.00  0.00    +0.000 A 
BRANCH  12  13
ATOM     13  N   UNL     1       7.536  14.681  18.505  0.00  0.00    +0.000 N 
ATOM     14  O   UNL     1       7.337  15.121  19.644  0.00  0.00    +0.000 OA
ATOM     15  O   UNL     1       6.756  14.784  17.547  0.00  0.00    +0.000 OA
ENDBRANCH  12  13
BRANCH   7  17
ATOM     16  C   UNL     1      10.844  16.388  16.699  0.00  0.00    +0.000 C 
ATOM     17  O   UNL     1       9.896  15.898  17.647  0.00  0.00    +0.000 OA
ENDBRANCH   7  17
ENDBRANCH   5  10
ENDBRANCH   1   6
BRANCH   2  18
ATOM     18  C   UNL     1       7.779   6.142  18.053  0.00  0.00    +0.000 C 
BRANCH  18  19
ATOM     19  C   UNL     1       6.714   5.653  18.995  0.00  0.00    +0.000 C 
ATOM     20  O   UNL     1       6.999   5.108  20.059  0.00  0.00    +0.000 OA
ATOM     21  N   UNL     1       5.418   5.879  18.583  0.00  0.00    +0.000 N 
ATOM     22  H   UNL     1       5.242   6.027  17.596  0.00  0.00    +0.000 HD
BRANCH  21  23
ATOM     23  C   UNL     1       4.313   5.417  19.395  0.00  0.00    +0.000 C 
BRANCH  23  24
ATOM     24  C   UNL     1       3.643   4.180  18.870  0.00  0.00    +0.000 A 
ATOM     25  C   UNL     1       3.987   2.883  19.261  0.00  0.00    +0.000 A 
ATOM     26  C   UNL     1       3.364   1.789  18.662  0.00  0.00    +0.000 A 
ATOM     27  C   UNL     1       2.425   2.026  17.673  0.00  0.00    +0.000 A 
ATOM     28  N   UNL     1       2.075   3.260  17.256  0.00  0.00    +0.000 NA
ATOM     29  C   UNL     1       2.694   4.302  17.855  0.00  0.00    +0.000 A 
ENDBRANCH  23  24
ENDBRANCH  21  23
ENDBRANCH  18  19
ENDBRANCH   2  18
TORSDOF 8
ENDMDL
MODEL 8
REMARK VINA RESULT:      -7.5      1.257      1.627
REMARK  Name = 
REMARK  9 active torsions:
REMARK  status: ('A' for Active; 'I' for Inactive)
REMARK    1  A    between atoms: C_1  and  O_2
REMARK    2  A    between atoms: O_2  and  C_3
REMARK    3  A    between atoms: C_6  and  C_7
REMARK    4  A    between atoms: N_8  and  N_9
REMARK    5  A    between atoms: C_10  and  C_12
REMARK    6  A    between atoms: C_12  and  C_13
REMARK    7  A    between atoms: N_15  and  C_16
REMARK    8  A    between atoms: C_16  and  C_17
REMARK    9  A    between atoms: C_24  and  N_25
REMARK                            x       y       z     vdW  Elec       q    Type
REMARK                         _______ _______ _______ _____ _____    ______ ____
ROOT
ATOM      1  N   UNL     1       8.837   8.540  19.104  0.00  0.00    +0.000 N 
ATOM      2  C   UNL     1       8.111   7.745  18.229  0.00  0.00    +0.000 C 
ATOM      3  O   UNL     1       7.574   8.160  17.200  0.00  0.00    +0.000 OA
ATOM      4  H   UNL     1       9.254   8.154  19.952  0.00  0.00    +0.000 HD
ENDROOT
BRANCH   1   6
ATOM      5  C   UNL     1       9.537  10.643  19.644  0.00  0.00    +0.000 C 
ATOM      6  N   UNL     1       8.994   9.849  18.787  0.00  0.00    +0.000 NA
BRANCH   5  10
ATOM      7  C   UNL     1       9.798  14.806  18.588  0.00  0.00    +0.000 A 
ATOM      8  C   UNL     1       9.101  13.902  17.786  0.00  0.00    +0.000 A 
ATOM      9  C   UNL     1       9.039  12.552  18.136  0.00  0.00    +0.000 A 
ATOM     10  C   UNL     1       9.682  12.075  19.287  0.00  0.00    +0.000 A 
ATOM     11  C   UNL     1      10.422  12.947  20.080  0.00  0.00    +0.000 A 
ATOM     12  C   UNL     1      10.478  14.303  19.708  0.00  0.00    +0.000 A 
BRANCH  12  13
ATOM     13  N   UNL     1      11.231  15.205  20.558  0.00  0.00    +0.000 N 
ATOM     14  O   UNL     1      12.317  15.622  20.137  0.00  0.00    +0.000 OA
ATOM     15  O   UNL     1      10.758  15.432  21.682  0.00  0.00    +0.000 OA
ENDBRANCH  12  13
BRANCH   7  17
ATOM     16  C   UNL     1      10.281  16.504  17.013  0.00  0.00    +0.000 C 
ATOM     17  O   UNL     1       9.848  16.148  18.326  0.00  0.00    +0.000 OA
ENDBRANCH   7  17
ENDBRANCH   5  10
ENDBRANCH   1   6
BRANCH   2  18
ATOM     18  C   UNL     1       7.925   6.307  18.627  0.00  0.00    +0.000 C 
BRANCH  18  19
ATOM     19  C   UNL     1       7.138   5.474  17.655  0.00  0.00    +0.000 C 
ATOM     20  O   UNL     1       7.660   4.556  17.026  0.00  0.00    +0.000 OA
ATOM     21  N   UNL     1       5.805   5.805  17.545  0.00  0.00    +0.000 N 
ATOM     22  H   UNL     1       5.511   6.734  17.824  0.00  0.00    +0.000 HD
BRANCH  21  23
ATOM     23  C   UNL     1       4.960   5.092  16.610  0.00  0.00    +0.000 C 
BRANCH  23  24
ATOM     24  C   UNL     1       3.872   4.287  17.260  0.00  0.00    +0.000 A 
ATOM     25  C   UNL     1       3.859   2.890  17.308  0.00  0.00    +0.000 A 
ATOM     26  C   UNL     1       2.768   2.224  17.863  0.00  0.00    +0.000 A 
ATOM     27  C   UNL     1       1.710   2.978  18.342  0.00  0.00    +0.000 A 
ATOM     28  N   UNL     1       1.675   4.326  18.301  0.00  0.00    +0.000 NA
ATOM     29  C   UNL     1       2.747   4.944  17.758  0.00  0.00    +0.000 A 
ENDBRANCH  23  24
ENDBRANCH  21  23
ENDBRANCH  18  19
ENDBRANCH   2  18
TORSDOF 8
ENDMDL
MODEL 9
REMARK VINA RESULT:      -7.4      1.680      2.419
REMARK  Name = 
REMARK  9 active torsions:
REMARK  status: ('A' for Active; 'I' for Inactive)
REMARK    1  A    between atoms: C_1  and  O_2
REMARK    2  A    between atoms: O_2  and  C_3
REMARK    3  A    between atoms: C_6  and  C_7
REMARK    4  A    between atoms: N_8  and  N_9
REMARK    5  A    between atoms: C_10  and  C_12
REMARK    6  A    between atoms: C_12  and  C_13
REMARK    7  A    between atoms: N_15  and  C_16
REMARK    8  A    between atoms: C_16  and  C_17
REMARK    9  A    between atoms: C_24  and  N_25
REMARK                            x       y       z     vdW  Elec       q    Type
REMARK                         _______ _______ _______ _____ _____    ______ ____
ROOT
ATOM      1  N   UNL     1       7.471   7.451  17.162  0.00  0.00    +0.000 N 
ATOM      2  C   UNL     1       7.426   6.316  17.959  0.00  0.00    +0.000 C 
ATOM      3  O   UNL     1       7.564   6.324  19.184  0.00  0.00    +0.000 OA
ATOM      4  H   UNL     1       7.363   7.394  16.149  0.00  0.00    +0.000 HD
ENDROOT
BRANCH   1   6
ATOM      5  C   UNL     1       8.840   9.089  17.969  0.00  0.00    +0.000 C 
ATOM      6  N   UNL     1       7.644   8.647  17.775  0.00  0.00    +0.000 NA
BRANCH   5  10
ATOM      7  C   UNL     1       9.467  12.810  20.035  0.00  0.00    +0.000 A 
ATOM      8  C   UNL     1       9.549  11.591  20.707  0.00  0.00    +0.000 A 
ATOM      9  C   UNL     1       9.329  10.393  20.024  0.00  0.00    +0.000 A 
ATOM     10  C   UNL     1       9.009  10.389  18.660  0.00  0.00    +0.000 A 
ATOM     11  C   UNL     1       8.875  11.594  17.975  0.00  0.00    +0.000 A 
ATOM     12  C   UNL     1       9.096  12.791  18.681  0.00  0.00    +0.000 A 
BRANCH  12  13
ATOM     13  N   UNL     1       8.979  14.037  17.949  0.00  0.00    +0.000 N 
ATOM     14  O   UNL     1      10.021  14.564  17.539  0.00  0.00    +0.000 OA
ATOM     15  O   UNL     1       7.841  14.520  17.853  0.00  0.00    +0.000 OA
ENDBRANCH  12  13
BRANCH   7  17
ATOM     16  C   UNL     1       9.556  14.040  22.054  0.00  0.00    +0.000 C 
ATOM     17  O   UNL     1       9.726  14.011  20.638  0.00  0.00    +0.000 OA
ENDBRANCH   7  17
ENDBRANCH   5  10
ENDBRANCH   1   6
BRANCH   2  18
ATOM     18  C   UNL     1       7.268   5.002  17.244  0.00  0.00    +0.000 C 
BRANCH  18  19
ATOM     19  C   UNL     1       5.861   4.666  16.835  0.00  0.00    +0.000 C 
ATOM     20  O   UNL     1       5.621   4.090  15.776  0.00  0.00    +0.000 OA
ATOM     21  N   UNL     1       4.885   5.031  17.736  0.00  0.00    +0.000 N 
ATOM     22  H   UNL     1       5.093   5.761  18.408  0.00  0.00    +0.000 HD
BRANCH  21  23
ATOM     23  C   UNL     1       3.491   4.789  17.428  0.00  0.00    +0.000 C 
BRANCH  23  24
ATOM     24  C   UNL     1       2.692   4.260  18.583  0.00  0.00    +0.000 A 
ATOM     25  C   UNL     1       2.100   5.071  19.557  0.00  0.00    +0.000 A 
ATOM     26  C   UNL     1       1.442   4.489  20.639  0.00  0.00    +0.000 A 
ATOM     27  C   UNL     1       1.410   3.108  20.725  0.00  0.00    +0.000 A 
ATOM     28  N   UNL     1       1.981   2.290  19.817  0.00  0.00    +0.000 NA
ATOM     29  C   UNL     1       2.611   2.882  18.777  0.00  0.00    +0.000 A 
ENDBRANCH  23  24
ENDBRANCH  21  23
ENDBRANCH  18  19
ENDBRANCH   2  18
TORSDOF 8
ENDMDL
