MODEL 1
REMARK VINA RESULT:      -7.3      0.000      0.000
REMARK  Name = 
REMARK  6 active torsions:
REMARK  status: ('A' for Active; 'I' for Inactive)
REMARK    1  A    between atoms: C_1  and  C_2
REMARK    2  A    between atoms: C_2  and  C_3
REMARK    3  A    between atoms: C_5  and  C_6
REMARK    4  A    between atoms: C_8  and  C_9
REMARK    5  A    between atoms: N_10  and  C_11
REMARK    6  A    between atoms: N_13  and  C_14
REMARK                            x       y       z     vdW  Elec       q    Type
REMARK                         _______ _______ _______ _____ _____    ______ ____
ROOT
ATOM      1  C   UNL     1       6.365   4.195  14.001  0.00  0.00    +0.000 A 
ATOM      2  N   UNL     1       5.453   3.504  14.762  0.00  0.00    +0.000 NA
ATOM      3  C   UNL     1       5.417   4.203  15.882  0.00  0.00    +0.000 A 
ATOM      4  N   UNL     1       6.437   5.138  15.871  0.00  0.00    +0.000 N 
ATOM      5  N   UNL     1       6.936   5.243  14.609  0.00  0.00    +0.000 NA
ENDROOT
BRANCH   3   6
ATOM      6  C   UNL     1       4.361   4.093  16.934  0.00  0.00    +0.000 A 
ATOM      7  C   UNL     1       3.706   5.154  17.590  0.00  0.00    +0.000 A 
ATOM      8  C   UNL     1       2.858   4.555  18.501  0.00  0.00    +0.000 A 
ATOM      9  C   UNL     1       1.895   5.148  19.459  0.00  0.00    +0.000 C 
ATOM     10  N   UNL     1       3.095   3.210  18.391  0.00  0.00    +0.000 N 
ATOM     11  C   UNL     1       2.592   2.135  19.217  0.00  0.00    +0.000 C 
ATOM     12  N   UNL     1       3.947   2.905  17.398  0.00  0.00    +0.000 NA
ENDBRANCH   3   6
BRANCH   4  13
ATOM     13  C   UNL     1       7.066   5.796  16.956  0.00  0.00    +0.000 A 
ATOM     14  C   UNL     1       7.488   5.073  18.075  0.00  0.00    +0.000 A 
ATOM     15  C   UNL     1       8.114   5.762  19.096  0.00  0.00    +0.000 A 
ATOM     16  N   UNL     1       8.339   7.092  19.073  0.00  0.00    +0.000 NA
ATOM     17  C   UNL     1       7.934   7.760  17.970  0.00  0.00    +0.000 A 
ATOM     18  C   UNL     1       7.321   7.164  16.882  0.00  0.00    +0.000 A 
ENDBRANCH   4  13
BRANCH   1  20
ATOM     19  C   UNL     1       5.532   3.074  11.926  0.00  0.00    +0.000 C 
ATOM     20  C   UNL     1       6.666   3.839  12.592  0.00  0.00    +0.000 C 
ENDBRANCH   1  20
TORSDOF 3
ENDMDL
MODEL 2
REMARK VINA RESULT:      -7.3      0.201      1.073
REMARK  Name = 
REMARK  6 active torsions:
REMARK  status: ('A' for Active; 'I' for Inactive)
REMARK    1  A    between atoms: C_1  and  C_2
REMARK    2  A    between atoms: C_2  and  C_3
REMARK    3  A    between atoms: C_5  and  C_6
REMARK    4  A    between atoms: C_8  and  C_9
REMARK    5  A    between atoms: N_10  and  C_11
REMARK    6  A    between atoms: N_13  and  C_14
REMARK                            x       y       z     vdW  Elec       q    Type
REMARK                         _______ _______ _______ _____ _____    ______ ____
ROOT
ATOM      1  C   UNL     1       6.189   4.120  14.057  0.00  0.00    +0.000 A 
ATOM      2  N   UNL     1       5.296   3.471  14.874  0.00  0.00    +0.000 NA
ATOM      3  C   UNL     1       5.316   4.205  15.972  0.00  0.00    +0.000 A 
ATOM      4  N   UNL     1       6.351   5.119  15.892  0.00  0.00    +0.000 N 
ATOM      5  N   UNL     1       6.802   5.175  14.610  0.00  0.00    +0.000 NA
ENDROOT
BRANCH   3   6
ATOM      6  C   UNL     1       4.299   4.148  17.066  0.00  0.00    +0.000 A 
ATOM      7  C   UNL     1       3.735   5.241  17.755  0.00  0.00    +0.000 A 
ATOM      8  C   UNL     1       2.891   4.684  18.697  0.00  0.00    +0.000 A 
ATOM      9  C   UNL     1       2.005   5.325  19.698  0.00  0.00    +0.000 C 
ATOM     10  N   UNL     1       3.045   3.329  18.570  0.00  0.00    +0.000 N 
ATOM     11  C   UNL     1       2.513   2.278  19.409  0.00  0.00    +0.000 C 
ATOM     12  N   UNL     1       3.835   2.983  17.540  0.00  0.00    +0.000 NA
ENDBRANCH   3   6
BRANCH   4  13
ATOM     13  C   UNL     1       7.033   5.799  16.930  0.00  0.00    +0.000 A 
ATOM     14  C   UNL     1       7.211   7.184  16.872  0.00  0.00    +0.000 A 
ATOM     15  C   UNL     1       7.867   7.799  17.921  0.00  0.00    +0.000 A 
ATOM     16  N   UNL     1       8.345   7.138  18.996  0.00  0.00    +0.000 NA
ATOM     17  C   UNL     1       8.143   5.803  19.029  0.00  0.00    +0.000 A 
ATOM     18  C   UNL     1       7.479   5.092  18.046  0.00  0.00    +0.000 A 
ENDBRANCH   4  13
BRANCH   1  20
ATOM     19  C   UNL     1       5.152   3.305  11.932  0.00  0.00    +0.000 C 
ATOM     20  C   UNL     1       6.429   3.714  12.650  0.00  0.00    +0.000 C 
ENDBRANCH   1  20
TORSDOF 3
ENDMDL
MODEL 3
REMARK VINA RESULT:      -7.1      2.689      5.210
REMARK  Name = 
REMARK  6 active torsions:
REMARK  status: ('A' for Active; 'I' for Inactive)
REMARK    1  A    between atoms: C_1  and  C_2
REMARK    2  A    between atoms: C_2  and  C_3
REMARK    3  A    between atoms: C_5  and  C_6
REMARK    4  A    between atoms: C_8  and  C_9
REMARK    5  A    between atoms: N_10  and  C_11
REMARK    6  A    between atoms: N_13  and  C_14
REMARK                            x       y       z     vdW  Elec       q    Type
REMARK                         _______ _______ _______ _____ _____    ______ ____
ROOT
ATOM      1  C   UNL     1       5.622   5.025  16.863  0.00  0.00    +0.000 A 
ATOM      2  N   UNL     1       4.854   6.161  16.781  0.00  0.00    +0.000 NA
ATOM      3  C   UNL     1       3.924   5.952  17.695  0.00  0.00    +0.000 A 
ATOM      4  N   UNL     1       4.005   4.645  18.140  0.00  0.00    +0.000 N 
ATOM      5  N   UNL     1       5.185   4.105  17.732  0.00  0.00    +0.000 NA
ENDROOT
BRANCH   3   6
ATOM      6  C   UNL     1       3.018   6.999  18.258  0.00  0.00    +0.000 A 
ATOM      7  C   UNL     1       2.607   8.191  17.627  0.00  0.00    +0.000 A 
ATOM      8  C   UNL     1       1.820   8.845  18.555  0.00  0.00    +0.000 A 
ATOM      9  C   UNL     1       1.086  10.130  18.465  0.00  0.00    +0.000 C 
ATOM     10  N   UNL     1       1.857   8.065  19.680  0.00  0.00    +0.000 N 
ATOM     11  C   UNL     1       1.332   8.354  20.997  0.00  0.00    +0.000 C 
ATOM     12  N   UNL     1       2.515   6.908  19.497  0.00  0.00    +0.000 NA
ENDBRANCH   3   6
BRANCH   4  13
ATOM     13  C   UNL     1       3.016   3.842  18.758  0.00  0.00    +0.000 A 
ATOM     14  C   UNL     1       1.897   3.416  18.036  0.00  0.00    +0.000 A 
ATOM     15  C   UNL     1       0.973   2.618  18.682  0.00  0.00    +0.000 A 
ATOM     16  N   UNL     1       1.089   2.229  19.969  0.00  0.00    +0.000 NA
ATOM     17  C   UNL     1       2.189   2.644  20.634  0.00  0.00    +0.000 A 
ATOM     18  C   UNL     1       3.187   3.424  20.076  0.00  0.00    +0.000 A 
ENDBRANCH   4  13
BRANCH   1  20
ATOM     19  C   UNL     1       6.607   4.572  14.608  0.00  0.00    +0.000 C 
ATOM     20  C   UNL     1       6.871   4.845  16.082  0.00  0.00    +0.000 C 
ENDBRANCH   1  20
TORSDOF 3
ENDMDL
MODEL 4
REMARK VINA RESULT:      -7.1      0.760      1.667
REMARK  Name = 
REMARK  6 active torsions:
REMARK  status: ('A' for Active; 'I' for Inactive)
REMARK    1  A    between atoms: C_1  and  C_2
REMARK    2  A    between atoms: C_2  and  C_3
REMARK    3  A    between atoms: C_5  and  C_6
REMARK    4  A    between atoms: C_8  and  C_9
REMARK    5  A    between atoms: N_10  and  C_11
REMARK    6  A    between atoms: N_13  and  C_14
REMARK                            x       y       z     vdW  Elec       q    Type
REMARK                         _______ _______ _______ _____ _____    ______ ____
ROOT
ATOM      1  C   UNL     1       6.312   4.152  14.005  0.00  0.00    +0.000 A 
ATOM      2  N   UNL     1       5.433   3.452  14.795  0.00  0.00    +0.000 NA
ATOM      3  C   UNL     1       5.424   4.153  15.915  0.00  0.00    +0.000 A 
ATOM      4  N   UNL     1       6.432   5.098  15.871  0.00  0.00    +0.000 N 
ATOM      5  N   UNL     1       6.890   5.207  14.594  0.00  0.00    +0.000 NA
ENDROOT
BRANCH   3   6
ATOM      6  C   UNL     1       4.402   4.033  16.999  0.00  0.00    +0.000 A 
ATOM      7  C   UNL     1       3.852   2.843  17.516  0.00  0.00    +0.000 A 
ATOM      8  C   UNL     1       2.926   3.245  18.458  0.00  0.00    +0.000 A 
ATOM      9  C   UNL     1       2.048   2.451  19.351  0.00  0.00    +0.000 C 
ATOM     10  N   UNL     1       2.923   4.614  18.406  0.00  0.00    +0.000 N 
ATOM     11  C   UNL     1       2.033   5.541  19.071  0.00  0.00    +0.000 C 
ATOM     12  N   UNL     1       3.861   5.112  17.584  0.00  0.00    +0.000 NA
ENDBRANCH   3   6
BRANCH   4  13
ATOM     13  C   UNL     1       7.087   5.766  16.934  0.00  0.00    +0.000 A 
ATOM     14  C   UNL     1       7.302   7.146  16.878  0.00  0.00    +0.000 A 
ATOM     15  C   UNL     1       7.928   7.750  17.952  0.00  0.00    +0.000 A 
ATOM     16  N   UNL     1       8.344   7.082  19.048  0.00  0.00    +0.000 NA
ATOM     17  C   UNL     1       8.107   5.752  19.078  0.00  0.00    +0.000 A 
ATOM     18  C   UNL     1       7.467   5.054  18.070  0.00  0.00    +0.000 A 
ENDBRANCH   4  13
BRANCH   1  20
ATOM     19  C   UNL     1       5.375   3.141  11.917  0.00  0.00    +0.000 C 
ATOM     20  C   UNL     1       6.573   3.796  12.588  0.00  0.00    +0.000 C 
ENDBRANCH   1  20
TORSDOF 3
ENDMDL
MODEL 5
REMARK VINA RESULT:      -7.1      3.253      5.920
REMARK  Name = 
REMARK  6 active torsions:
REMARK  status: ('A' for Active; 'I' for Inactive)
REMARK    1  A    between atoms: C_1  and  C_2
REMARK    2  A    between atoms: C_2  and  C_3
REMARK    3  A    between atoms: C_5  and  C_6
REMARK    4  A    between atoms: C_8  and  C_9
REMARK    5  A    between atoms: N_10  and  C_11
REMARK    6  A    between atoms: N_13  and  C_14
REMARK                            x       y       z     vdW  Elec       q    Type
REMARK                         _______ _______ _______ _____ _____    ______ ____
ROOT
ATOM      1  C   UNL     1       5.404   6.122  17.628  0.00  0.00    +0.000 A 
ATOM      2  N   UNL     1       4.554   7.186  17.448  0.00  0.00    +0.000 NA
ATOM      3  C   UNL     1       3.514   6.860  18.195  0.00  0.00    +0.000 A 
ATOM      4  N   UNL     1       3.647   5.550  18.617  0.00  0.00    +0.000 N 
ATOM      5  N   UNL     1       4.923   5.133  18.394  0.00  0.00    +0.000 NA
ENDROOT
BRANCH   3   6
ATOM      6  C   UNL     1       2.434   7.799  18.626  0.00  0.00    +0.000 A 
ATOM      7  C   UNL     1       1.757   8.737  17.821  0.00  0.00    +0.000 A 
ATOM      8  C   UNL     1       0.891   9.394  18.673  0.00  0.00    +0.000 A 
ATOM      9  C   UNL     1      -0.098  10.466  18.407  0.00  0.00    +0.000 C 
ATOM     10  N   UNL     1       1.139   8.877  19.917  0.00  0.00    +0.000 N 
ATOM     11  C   UNL     1       0.623   9.313  21.196  0.00  0.00    +0.000 C 
ATOM     12  N   UNL     1       2.015   7.859  19.898  0.00  0.00    +0.000 NA
ENDBRANCH   3   6
BRANCH   4  13
ATOM     13  C   UNL     1       2.653   4.638  19.048  0.00  0.00    +0.000 A 
ATOM     14  C   UNL     1       1.956   3.858  18.119  0.00  0.00    +0.000 A 
ATOM     15  C   UNL     1       1.011   2.970  18.596  0.00  0.00    +0.000 A 
ATOM     16  N   UNL     1       0.723   2.815  19.905  0.00  0.00    +0.000 NA
ATOM     17  C   UNL     1       1.424   3.572  20.778  0.00  0.00    +0.000 A 
ATOM     18  C   UNL     1       2.408   4.472  20.409  0.00  0.00    +0.000 A 
ENDBRANCH   4  13
BRANCH   1  20
ATOM     19  C   UNL     1       7.606   7.294  17.450  0.00  0.00    +0.000 C 
ATOM     20  C   UNL     1       6.772   6.084  17.056  0.00  0.00    +0.000 C 
ENDBRANCH   1  20
TORSDOF 3
ENDMDL
MODEL 6
REMARK VINA RESULT:      -7.1      0.996      1.379
REMARK  Name = 
REMARK  6 active torsions:
REMARK  status: ('A' for Active; 'I' for Inactive)
REMARK    1  A    between atoms: C_1  and  C_2
REMARK    2  A    between atoms: C_2  and  C_3
REMARK    3  A    between atoms: C_5  and  C_6
REMARK    4  A    between atoms: C_8  and  C_9
REMARK    5  A    between atoms: N_10  and  C_11
REMARK    6  A    between atoms: N_13  and  C_14
REMARK                            x       y       z     vdW  Elec       q    Type
REMARK                         _______ _______ _______ _____ _____    ______ ____
ROOT
ATOM      1  C   UNL     1       6.124   4.150  14.099  0.00  0.00    +0.000 A 
ATOM      2  N   UNL     1       5.134   3.618  14.889  0.00  0.00    +0.000 NA
ATOM      3  C   UNL     1       5.166   4.392  15.958  0.00  0.00    +0.000 A 
ATOM      4  N   UNL     1       6.283   5.206  15.902  0.00  0.00    +0.000 N 
ATOM      5  N   UNL     1       6.802   5.168  14.644  0.00  0.00    +0.000 NA
ENDROOT
BRANCH   3   6
ATOM      6  C   UNL     1       4.094   4.472  16.997  0.00  0.00    +0.000 A 
ATOM      7  C   UNL     1       3.129   3.489  17.295  0.00  0.00    +0.000 A 
ATOM      8  C   UNL     1       2.339   4.038  18.286  0.00  0.00    +0.000 A 
ATOM      9  C   UNL     1       1.180   3.476  19.020  0.00  0.00    +0.000 C 
ATOM     10  N   UNL     1       2.817   5.308  18.472  0.00  0.00    +0.000 N 
ATOM     11  C   UNL     1       2.263   6.372  19.281  0.00  0.00    +0.000 C 
ATOM     12  N   UNL     1       3.924   5.564  17.756  0.00  0.00    +0.000 NA
ENDBRANCH   3   6
BRANCH   4  13
ATOM     13  C   UNL     1       6.971   5.864  16.950  0.00  0.00    +0.000 A 
ATOM     14  C   UNL     1       7.431   5.145  18.057  0.00  0.00    +0.000 A 
ATOM     15  C   UNL     1       8.114   5.833  19.041  0.00  0.00    +0.000 A 
ATOM     16  N   UNL     1       8.359   7.159  18.993  0.00  0.00    +0.000 NA
ATOM     17  C   UNL     1       7.915   7.823  17.903  0.00  0.00    +0.000 A 
ATOM     18  C   UNL     1       7.244   7.227  16.850  0.00  0.00    +0.000 A 
ENDBRANCH   4  13
BRANCH   1  20
ATOM     19  C   UNL     1       5.127   3.316  11.961  0.00  0.00    +0.000 C 
ATOM     20  C   UNL     1       6.397   3.666  12.722  0.00  0.00    +0.000 C 
ENDBRANCH   1  20
TORSDOF 3
ENDMDL
MODEL 7
REMARK VINA RESULT:      -7.1      2.672      5.131
REMARK  Name = 
REMARK  6 active torsions:
REMARK  status: ('A' for Active; 'I' for Inactive)
REMARK    1  A    between atoms: C_1  and  C_2
REMARK    2  A    between atoms: C_2  and  C_3
REMARK    3  A    between atoms: C_5  and  C_6
REMARK    4  A    between atoms: C_8  and  C_9
REMARK    5  A    between atoms: N_10  and  C_11
REMARK    6  A    between atoms: N_13  and  C_14
REMARK                            x       y       z     vdW  Elec       q    Type
REMARK                         _______ _______ _______ _____ _____    ______ ____
ROOT
ATOM      1  C   UNL     1       5.457   5.031  16.491  0.00  0.00    +0.000 A 
ATOM      2  N   UNL     1       4.708   6.180  16.567  0.00  0.00    +0.000 NA
ATOM      3  C   UNL     1       3.890   5.930  17.573  0.00  0.00    +0.000 A 
ATOM      4  N   UNL     1       3.995   4.598  17.928  0.00  0.00    +0.000 N 
ATOM      5  N   UNL     1       5.107   4.066  17.351  0.00  0.00    +0.000 NA
ENDROOT
BRANCH   3   6
ATOM      6  C   UNL     1       3.078   6.954  18.300  0.00  0.00    +0.000 A 
ATOM      7  C   UNL     1       2.549   6.846  19.601  0.00  0.00    +0.000 A 
ATOM      8  C   UNL     1       1.843   8.015  19.808  0.00  0.00    +0.000 A 
ATOM      9  C   UNL     1       1.090   8.493  20.993  0.00  0.00    +0.000 C 
ATOM     10  N   UNL     1       1.929   8.708  18.629  0.00  0.00    +0.000 N 
ATOM     11  C   UNL     1       1.245   9.923  18.244  0.00  0.00    +0.000 C 
ATOM     12  N   UNL     1       2.733   8.118  17.730  0.00  0.00    +0.000 NA
ENDBRANCH   3   6
BRANCH   4  13
ATOM     13  C   UNL     1       3.070   3.773  18.613  0.00  0.00    +0.000 A 
ATOM     14  C   UNL     1       3.322   3.365  19.927  0.00  0.00    +0.000 A 
ATOM     15  C   UNL     1       2.377   2.578  20.555  0.00  0.00    +0.000 A 
ATOM     16  N   UNL     1       1.227   2.179  19.971  0.00  0.00    +0.000 NA
ATOM     17  C   UNL     1       1.006   2.603  18.707  0.00  0.00    +0.000 A 
ATOM     18  C   UNL     1       1.874   3.413  17.997  0.00  0.00    +0.000 A 
ENDBRANCH   4  13
BRANCH   1  20
ATOM     19  C   UNL     1       6.206   4.203  14.252  0.00  0.00    +0.000 C 
ATOM     20  C   UNL     1       6.600   4.881  15.556  0.00  0.00    +0.000 C 
ENDBRANCH   1  20
TORSDOF 3
ENDMDL
MODEL 8
REMARK VINA RESULT:      -7.1      3.246      5.911
REMARK  Name = 
REMARK  6 active torsions:
REMARK  status: ('A' for Active; 'I' for Inactive)
REMARK    1  A    between atoms: C_1  and  C_2
REMARK    2  A    between atoms: C_2  and  C_3
REMARK    3  A    between atoms: C_5  and  C_6
REMARK    4  A    between atoms: C_8  and  C_9
REMARK    5  A    between atoms: N_10  and  C_11
REMARK    6  A    between atoms: N_13  and  C_14
REMARK                            x       y       z     vdW  Elec       q    Type
REMARK                         _______ _______ _______ _____ _____    ______ ____
ROOT
ATOM      1  C   UNL     1       5.406   6.056  17.696  0.00  0.00    +0.000 A 
ATOM      2  N   UNL     1       4.556   7.116  17.496  0.00  0.00    +0.000 NA
ATOM      3  C   UNL     1       3.517   6.803  18.250  0.00  0.00    +0.000 A 
ATOM      4  N   UNL     1       3.650   5.501  18.696  0.00  0.00    +0.000 N 
ATOM      5  N   UNL     1       4.927   5.082  18.480  0.00  0.00    +0.000 NA
ENDROOT
BRANCH   3   6
ATOM      6  C   UNL     1       2.436   7.749  18.663  0.00  0.00    +0.000 A 
ATOM      7  C   UNL     1       1.752   8.665  17.839  0.00  0.00    +0.000 A 
ATOM      8  C   UNL     1       0.888   9.341  18.680  0.00  0.00    +0.000 A 
ATOM      9  C   UNL     1      -0.105  10.403  18.393  0.00  0.00    +0.000 C 
ATOM     10  N   UNL     1       1.145   8.855  19.935  0.00  0.00    +0.000 N 
ATOM     11  C   UNL     1       0.634   9.321  21.205  0.00  0.00    +0.000 C 
ATOM     12  N   UNL     1       2.024   7.839  19.936  0.00  0.00    +0.000 NA
ENDBRANCH   3   6
BRANCH   4  13
ATOM     13  C   UNL     1       2.657   4.597  19.144  0.00  0.00    +0.000 A 
ATOM     14  C   UNL     1       2.410   4.437  20.511  0.00  0.00    +0.000 A 
ATOM     15  C   UNL     1       1.416   3.557  20.893  0.00  0.00    +0.000 A 
ATOM     16  N   UNL     1       0.673   2.842  20.021  0.00  0.00    +0.000 NA
ATOM     17  C   UNL     1       0.926   3.031  18.708  0.00  0.00    +0.000 A 
ATOM     18  C   UNL     1       1.880   3.905  18.217  0.00  0.00    +0.000 A 
ENDBRANCH   4  13
BRANCH   1  20
ATOM     19  C   UNL     1       7.633   7.187  17.559  0.00  0.00    +0.000 C 
ATOM     20  C   UNL     1       6.775   6.009  17.124  0.00  0.00    +0.000 C 
ENDBRANCH   1  20
TORSDOF 3
ENDMDL
MODEL 9
REMARK VINA RESULT:      -7.1      2.708      5.137
REMARK  Name = 
REMARK  6 active torsions:
REMARK  status: ('A' for Active; 'I' for Inactive)
REMARK    1  A    between atoms: C_1  and  C_2
REMARK    2  A    between atoms: C_2  and  C_3
REMARK    3  A    between atoms: C_5  and  C_6
REMARK    4  A    between atoms: C_8  and  C_9
REMARK    5  A    between atoms: N_10  and  C_11
REMARK    6  A    between atoms: N_13  and  C_14
REMARK                            x       y       z     vdW  Elec       q    Type
REMARK                         _______ _______ _______ _____ _____    ______ ____
ROOT
ATOM      1  C   UNL     1       5.452   5.246  16.338  0.00  0.00    +0.000 A 
ATOM      2  N   UNL     1       4.674   6.372  16.450  0.00  0.00    +0.000 NA
ATOM      3  C   UNL     1       3.878   6.079  17.463  0.00  0.00    +0.000 A 
ATOM      4  N   UNL     1       4.025   4.742  17.787  0.00  0.00    +0.000 N 
ATOM      5  N   UNL     1       5.141   4.253  17.182  0.00  0.00    +0.000 NA
ENDROOT
BRANCH   3   6
ATOM      6  C   UNL     1       3.052   7.064  18.224  0.00  0.00    +0.000 A 
ATOM      7  C   UNL     1       2.585   6.934  19.547  0.00  0.00    +0.000 A 
ATOM      8  C   UNL     1       1.834   8.069  19.784  0.00  0.00    +0.000 A 
ATOM      9  C   UNL     1       1.110   8.512  21.000  0.00  0.00    +0.000 C 
ATOM     10  N   UNL     1       1.836   8.762  18.602  0.00  0.00    +0.000 N 
ATOM     11  C   UNL     1       1.079   9.943  18.247  0.00  0.00    +0.000 C 
ATOM     12  N   UNL     1       2.627   8.209  17.669  0.00  0.00    +0.000 NA
ENDBRANCH   3   6
BRANCH   4  13
ATOM     13  C   UNL     1       3.132   3.878  18.466  0.00  0.00    +0.000 A 
ATOM     14  C   UNL     1       1.912   3.520  17.885  0.00  0.00    +0.000 A 
ATOM     15  C   UNL     1       1.088   2.658  18.583  0.00  0.00    +0.000 A 
ATOM     16  N   UNL     1       1.394   2.145  19.793  0.00  0.00    +0.000 NA
ATOM     17  C   UNL     1       2.587   2.498  20.320  0.00  0.00    +0.000 A 
ATOM     18  C   UNL     1       3.497   3.333  19.696  0.00  0.00    +0.000 A 
ENDBRANCH   4  13
BRANCH   1  20
ATOM     19  C   UNL     1       6.352   4.099  14.305  0.00  0.00    +0.000 C 
ATOM     20  C   UNL     1       6.584   5.146  15.383  0.00  0.00    +0.000 C 
ENDBRANCH   1  20
TORSDOF 3
ENDMDL
