MODEL 1
REMARK VINA RESULT:      -8.5      0.000      0.000
REMARK  Name = 
REMARK  10 active torsions:
REMARK  status: ('A' for Active; 'I' for Inactive)
REMARK    1  A    between atoms: C_2  and  C_3
REMARK    2  A    between atoms: C_3  and  N_4
REMARK    3  A    between atoms: C_5  and  C_7
REMARK    4  A    between atoms: C_9  and  C_10
REMARK    5  A    between atoms: C_20  and  O_21
REMARK    6  A    between atoms: O_21  and  C_22
REMARK    7  A    between atoms: C_22  and  C_23
REMARK    8  A    between atoms: C_23  and  C_24
REMARK    9  A    between atoms: C_24  and  C_25
REMARK   10  A    between atoms: C_25  and  O_26
REMARK                            x       y       z     vdW  Elec       q    Type
REMARK                         _______ _______ _______ _____ _____    ______ ____
ROOT
ATOM      1  C   UNL     1       6.993   5.156  15.836  0.00  0.00    +0.000 C 
ATOM      2  C   UNL     1       6.343   4.178  16.493  0.00  0.00    +0.000 C 
ATOM      3  C   UNL     1       6.037   4.246  17.953  0.00  0.00    +0.000 C 
ATOM      4  C   UNL     1       6.309   5.642  18.491  0.00  0.00    +0.000 C 
ATOM      5  C   UNL     1       7.617   6.160  17.894  0.00  0.00    +0.000 C 
ATOM      6  O   UNL     1       7.498   6.291  16.459  0.00  0.00    +0.000 OA
ENDROOT
BRANCH   3   7
ATOM      7  C   UNL     1       4.625   3.816  18.293  0.00  0.00    +0.000 A 
ATOM      8  C   UNL     1       3.778   3.264  17.297  0.00  0.00    +0.000 A 
ATOM      9  C   UNL     1       2.478   2.862  17.597  0.00  0.00    +0.000 A 
ATOM     10  C   UNL     1       2.040   3.025  18.898  0.00  0.00    +0.000 A 
ATOM     11  C   UNL     1       2.845   3.568  19.867  0.00  0.00    +0.000 A 
ATOM     12  C   UNL     1       4.137   3.973  19.599  0.00  0.00    +0.000 A 
ATOM     13  O   UNL     1       2.224   3.647  21.070  0.00  0.00    +0.000 OA
ATOM     14  C   UNL     1       0.927   3.099  20.744  0.00  0.00    +0.000 C 
ATOM     15  O   UNL     1       0.812   2.689  19.365  0.00  0.00    +0.000 OA
ENDBRANCH   3   7
BRANCH   1  17
ATOM     16  N   UNL     1       6.389   4.002  13.786  0.00  0.00    +0.000 N 
ATOM     17  C   UNL     1       7.170   4.978  14.350  0.00  0.00    +0.000 C 
ATOM     18  O   UNL     1       7.950   5.665  13.696  0.00  0.00    +0.000 OA
ATOM     19  H   UNL     1       5.780   3.451  14.378  0.00  0.00    +0.000 HD
BRANCH  16  20
ATOM     20  C   UNL     1       6.471   3.758  12.368  0.00  0.00    +0.000 C 
BRANCH  20  22
ATOM     21  C   UNL     1       3.954   3.066  11.293  0.00  0.00    +0.000 C 
ATOM     22  C   UNL     1       5.117   3.385  11.790  0.00  0.00    +0.000 C 
ENDBRANCH  20  22
ENDBRANCH  16  20
ENDBRANCH   1  17
BRANCH   5  23
ATOM     23  O   UNL     1       7.953   7.430  18.472  0.00  0.00    +0.000 OA
BRANCH  23  24
ATOM     24  C   UNL     1       8.063   8.466  17.494  0.00  0.00    +0.000 C 
BRANCH  24  25
ATOM     25  C   UNL     1       8.084   9.830  18.160  0.00  0.00    +0.000 C 
BRANCH  25  26
ATOM     26  C   UNL     1       9.455  10.100  18.778  0.00  0.00    +0.000 C 
BRANCH  26  27
ATOM     27  C   UNL     1       9.383  11.145  19.876  0.00  0.00    +0.000 C 
BRANCH  27  28
ATOM     28  O   UNL     1       9.411  10.502  21.142  0.00  0.00    +0.000 OA
ATOM     29  H   UNL     1       8.488  10.331  21.400  0.00  0.00    +0.000 HD
ENDBRANCH  27  28
ENDBRANCH  26  27
ENDBRANCH  25  26
ENDBRANCH  24  25
ENDBRANCH  23  24
ENDBRANCH   5  23
TORSDOF 10
ENDMDL
MODEL 2
REMARK VINA RESULT:      -8.4      1.094      1.124
REMARK  Name = 
REMARK  10 active torsions:
REMARK  status: ('A' for Active; 'I' for Inactive)
REMARK    1  A    between atoms: C_2  and  C_3
REMARK    2  A    between atoms: C_3  and  N_4
REMARK    3  A    between atoms: C_5  and  C_7
REMARK    4  A    between atoms: C_9  and  C_10
REMARK    5  A    between atoms: C_20  and  O_21
REMARK    6  A    between atoms: O_21  and  C_22
REMARK    7  A    between atoms: C_22  and  C_23
REMARK    8  A    between atoms: C_23  and  C_24
REMARK    9  A    between atoms: C_24  and  C_25
REMARK   10  A    between atoms: C_25  and  O_26
REMARK                            x       y       z     vdW  Elec       q    Type
REMARK                         _______ _______ _______ _____ _____    ______ ____
ROOT
ATOM      1  C   UNL     1       6.708   5.219  15.474  0.00  0.00    +0.000 C 
ATOM      2  C   UNL     1       6.296   4.302  16.367  0.00  0.00    +0.000 C 
ATOM      3  C   UNL     1       5.995   4.634  17.792  0.00  0.00    +0.000 C 
ATOM      4  C   UNL     1       5.957   6.142  17.991  0.00  0.00    +0.000 C 
ATOM      5  C   UNL     1       7.112   6.776  17.219  0.00  0.00    +0.000 C 
ATOM      6  O   UNL     1       6.955   6.547  15.799  0.00  0.00    +0.000 OA
ENDROOT
BRANCH   3   7
ATOM      7  C   UNL     1       4.715   4.003  18.301  0.00  0.00    +0.000 A 
ATOM      8  C   UNL     1       4.017   3.050  17.515  0.00  0.00    +0.000 A 
ATOM      9  C   UNL     1       2.841   2.460  17.972  0.00  0.00    +0.000 A 
ATOM     10  C   UNL     1       2.375   2.838  19.217  0.00  0.00    +0.000 A 
ATOM     11  C   UNL     1       3.034   3.767  19.982  0.00  0.00    +0.000 A 
ATOM     12  C   UNL     1       4.202   4.367  19.555  0.00  0.00    +0.000 A 
ATOM     13  O   UNL     1       2.409   4.003  21.162  0.00  0.00    +0.000 OA
ATOM     14  C   UNL     1       1.270   3.120  21.048  0.00  0.00    +0.000 C 
ATOM     15  O   UNL     1       1.253   2.368  19.817  0.00  0.00    +0.000 OA
ENDBRANCH   3   7
BRANCH   1  17
ATOM     16  N   UNL     1       6.136   3.674  13.688  0.00  0.00    +0.000 N 
ATOM     17  C   UNL     1       6.907   4.747  14.056  0.00  0.00    +0.000 C 
ATOM     18  O   UNL     1       7.695   5.294  13.289  0.00  0.00    +0.000 OA
ATOM     19  H   UNL     1       5.520   3.249  14.370  0.00  0.00    +0.000 HD
BRANCH  16  20
ATOM     20  C   UNL     1       6.240   3.151  12.350  0.00  0.00    +0.000 C 
BRANCH  20  22
ATOM     21  C   UNL     1       3.745   3.199  11.028  0.00  0.00    +0.000 C 
ATOM     22  C   UNL     1       4.898   3.177  11.638  0.00  0.00    +0.000 C 
ENDBRANCH  20  22
ENDBRANCH  16  20
ENDBRANCH   1  17
BRANCH   5  23
ATOM     23  O   UNL     1       7.165   8.186  17.481  0.00  0.00    +0.000 OA
BRANCH  23  24
ATOM     24  C   UNL     1       8.363   8.574  18.157  0.00  0.00    +0.000 C 
BRANCH  24  25
ATOM     25  C   UNL     1       8.450  10.085  18.266  0.00  0.00    +0.000 C 
BRANCH  25  26
ATOM     26  C   UNL     1       9.857  10.510  18.680  0.00  0.00    +0.000 C 
BRANCH  26  27
ATOM     27  C   UNL     1      10.445  11.528  17.720  0.00  0.00    +0.000 C 
BRANCH  27  28
ATOM     28  O   UNL     1      11.861  11.412  17.718  0.00  0.00    +0.000 OA
ATOM     29  H   UNL     1      12.217  12.229  17.326  0.00  0.00    +0.000 HD
ENDBRANCH  27  28
ENDBRANCH  26  27
ENDBRANCH  25  26
ENDBRANCH  24  25
ENDBRANCH  23  24
ENDBRANCH   5  23
TORSDOF 10
ENDMDL
MODEL 3
REMARK VINA RESULT:      -8.4      2.302      6.659
REMARK  Name = 
REMARK  10 active torsions:
REMARK  status: ('A' for Active; 'I' for Inactive)
REMARK    1  A    between atoms: C_2  and  C_3
REMARK    2  A    between atoms: C_3  and  N_4
REMARK    3  A    between atoms: C_5  and  C_7
REMARK    4  A    between atoms: C_9  and  C_10
REMARK    5  A    between atoms: C_20  and  O_21
REMARK    6  A    between atoms: O_21  and  C_22
REMARK    7  A    between atoms: C_22  and  C_23
REMARK    8  A    between atoms: C_23  and  C_24
REMARK    9  A    between atoms: C_24  and  C_25
REMARK   10  A    between atoms: C_25  and  O_26
REMARK                            x       y       z     vdW  Elec       q    Type
REMARK                         _______ _______ _______ _____ _____    ______ ____
ROOT
ATOM      1  C   UNL     1       7.016   6.690  17.181  0.00  0.00    +0.000 C 
ATOM      2  C   UNL     1       5.700   6.763  17.451  0.00  0.00    +0.000 C 
ATOM      3  C   UNL     1       4.669   6.005  16.680  0.00  0.00    +0.000 C 
ATOM      4  C   UNL     1       5.330   4.976  15.775  0.00  0.00    +0.000 C 
ATOM      5  C   UNL     1       6.559   5.605  15.120  0.00  0.00    +0.000 C 
ATOM      6  O   UNL     1       7.540   5.958  16.123  0.00  0.00    +0.000 OA
ENDROOT
BRANCH   3   7
ATOM      7  C   UNL     1       3.627   5.343  17.557  0.00  0.00    +0.000 A 
ATOM      8  C   UNL     1       3.164   5.981  18.737  0.00  0.00    +0.000 A 
ATOM      9  C   UNL     1       2.203   5.384  19.550  0.00  0.00    +0.000 A 
ATOM     10  C   UNL     1       1.720   4.147  19.171  0.00  0.00    +0.000 A 
ATOM     11  C   UNL     1       2.167   3.514  18.038  0.00  0.00    +0.000 A 
ATOM     12  C   UNL     1       3.117   4.082  17.213  0.00  0.00    +0.000 A 
ATOM     13  O   UNL     1       1.574   2.309  17.850  0.00  0.00    +0.000 OA
ATOM     14  C   UNL     1       0.705   2.251  19.004  0.00  0.00    +0.000 C 
ATOM     15  O   UNL     1       0.786   3.425  19.838  0.00  0.00    +0.000 OA
ENDBRANCH   3   7
BRANCH   1  17
ATOM     16  N   UNL     1       8.045   8.798  17.811  0.00  0.00    +0.000 N 
ATOM     17  C   UNL     1       7.941   7.459  18.088  0.00  0.00    +0.000 C 
ATOM     18  O   UNL     1       8.547   6.923  19.013  0.00  0.00    +0.000 OA
ATOM     19  H   UNL     1       7.540   9.181  17.021  0.00  0.00    +0.000 HD
BRANCH  16  20
ATOM     20  C   UNL     1       8.895   9.629  18.626  0.00  0.00    +0.000 C 
BRANCH  20  22
ATOM     21  C   UNL     1       8.871  12.310  17.740  0.00  0.00    +0.000 C 
ATOM     22  C   UNL     1       8.882  11.072  18.150  0.00  0.00    +0.000 C 
ENDBRANCH  20  22
ENDBRANCH  16  20
ENDBRANCH   1  17
BRANCH   5  23
ATOM     23  O   UNL     1       7.136   4.691  14.176  0.00  0.00    +0.000 OA
BRANCH  23  24
ATOM     24  C   UNL     1       6.174   3.783  13.634  0.00  0.00    +0.000 C 
BRANCH  24  25
ATOM     25  C   UNL     1       6.405   3.586  12.146  0.00  0.00    +0.000 C 
BRANCH  25  26
ATOM     26  C   UNL     1       5.753   2.288  11.673  0.00  0.00    +0.000 C 
BRANCH  26  27
ATOM     27  C   UNL     1       6.779   1.296  11.157  0.00  0.00    +0.000 C 
BRANCH  27  28
ATOM     28  O   UNL     1       6.224  -0.011  11.180  0.00  0.00    +0.000 OA
ATOM     29  H   UNL     1       5.614  -0.053  11.938  0.00  0.00    +0.000 HD
ENDBRANCH  27  28
ENDBRANCH  26  27
ENDBRANCH  25  26
ENDBRANCH  24  25
ENDBRANCH  23  24
ENDBRANCH   5  23
TORSDOF 10
ENDMDL
MODEL 4
REMARK VINA RESULT:      -8.2      2.026      6.396
REMARK  Name = 
REMARK  10 active torsions:
REMARK  status: ('A' for Active; 'I' for Inactive)
REMARK    1  A    between atoms: C_2  and  C_3
REMARK    2  A    between atoms: C_3  and  N_4
REMARK    3  A    between atoms: C_5  and  C_7
REMARK    4  A    between atoms: C_9  and  C_10
REMARK    5  A    between atoms: C_20  and  O_21
REMARK    6  A    between atoms: O_21  and  C_22
REMARK    7  A    between atoms: C_22  and  C_23
REMARK    8  A    between atoms: C_23  and  C_24
REMARK    9  A    between atoms: C_24  and  C_25
REMARK   10  A    between atoms: C_25  and  O_26
REMARK                            x       y       z     vdW  Elec       q    Type
REMARK                         _______ _______ _______ _____ _____    ______ ____
ROOT
ATOM      1  C   UNL     1       6.808   6.379  17.184  0.00  0.00    +0.000 C 
ATOM      2  C   UNL     1       5.538   6.250  17.608  0.00  0.00    +0.000 C 
ATOM      3  C   UNL     1       4.509   5.464  16.862  0.00  0.00    +0.000 C 
ATOM      4  C   UNL     1       5.161   4.645  15.758  0.00  0.00    +0.000 C 
ATOM      5  C   UNL     1       6.217   5.500  15.060  0.00  0.00    +0.000 C 
ATOM      6  O   UNL     1       7.271   5.852  15.985  0.00  0.00    +0.000 OA
ENDROOT
BRANCH   3   7
ATOM      7  C   UNL     1       3.669   4.573  17.754  0.00  0.00    +0.000 A 
ATOM      8  C   UNL     1       3.039   3.414  17.230  0.00  0.00    +0.000 A 
ATOM      9  C   UNL     1       2.266   2.585  18.040  0.00  0.00    +0.000 A 
ATOM     10  C   UNL     1       2.130   2.932  19.370  0.00  0.00    +0.000 A 
ATOM     11  C   UNL     1       2.724   4.057  19.886  0.00  0.00    +0.000 A 
ATOM     12  C   UNL     1       3.497   4.896  19.108  0.00  0.00    +0.000 A 
ATOM     13  O   UNL     1       2.461   4.221  21.206  0.00  0.00    +0.000 OA
ATOM     14  C   UNL     1       1.620   3.073  21.462  0.00  0.00    +0.000 C 
ATOM     15  O   UNL     1       1.420   2.244  20.298  0.00  0.00    +0.000 OA
ENDBRANCH   3   7
BRANCH   1  17
ATOM     16  N   UNL     1       7.890   8.474  17.767  0.00  0.00    +0.000 N 
ATOM     17  C   UNL     1       7.749   7.146  18.077  0.00  0.00    +0.000 C 
ATOM     18  O   UNL     1       8.337   6.617  19.018  0.00  0.00    +0.000 OA
ATOM     19  H   UNL     1       7.398   8.851  16.966  0.00  0.00    +0.000 HD
BRANCH  16  20
ATOM     20  C   UNL     1       8.757   9.302  18.566  0.00  0.00    +0.000 C 
BRANCH  20  22
ATOM     21  C   UNL     1       8.672  11.996  17.726  0.00  0.00    +0.000 C 
ATOM     22  C   UNL     1       8.712  10.752  18.114  0.00  0.00    +0.000 C 
ENDBRANCH  20  22
ENDBRANCH  16  20
ENDBRANCH   1  17
BRANCH   5  23
ATOM     23  O   UNL     1       6.767   4.788  13.942  0.00  0.00    +0.000 OA
BRANCH  23  24
ATOM     24  C   UNL     1       5.881   3.784  13.441  0.00  0.00    +0.000 C 
BRANCH  24  25
ATOM     25  C   UNL     1       6.486   3.094  12.232  0.00  0.00    +0.000 C 
BRANCH  25  26
ATOM     26  C   UNL     1       5.385   2.571  11.311  0.00  0.00    +0.000 C 
BRANCH  26  27
ATOM     27  C   UNL     1       4.074   3.304  11.525  0.00  0.00    +0.000 C 
BRANCH  27  28
ATOM     28  O   UNL     1       3.301   3.245  10.335  0.00  0.00    +0.000 OA
ATOM     29  H   UNL     1       3.148   4.161  10.044  0.00  0.00    +0.000 HD
ENDBRANCH  27  28
ENDBRANCH  26  27
ENDBRANCH  25  26
ENDBRANCH  24  25
ENDBRANCH  23  24
ENDBRANCH   5  23
TORSDOF 10
ENDMDL
MODEL 5
REMARK VINA RESULT:      -8.0      1.218      1.264
REMARK  Name = 
REMARK  10 active torsions:
REMARK  status: ('A' for Active; 'I' for Inactive)
REMARK    1  A    between atoms: C_2  and  C_3
REMARK    2  A    between atoms: C_3  and  N_4
REMARK    3  A    between atoms: C_5  and  C_7
REMARK    4  A    between atoms: C_9  and  C_10
REMARK    5  A    between atoms: C_20  and  O_21
REMARK    6  A    between atoms: O_21  and  C_22
REMARK    7  A    between atoms: C_22  and  C_23
REMARK    8  A    between atoms: C_23  and  C_24
REMARK    9  A    between atoms: C_24  and  C_25
REMARK   10  A    between atoms: C_25  and  O_26
REMARK                            x       y       z     vdW  Elec       q    Type
REMARK                         _______ _______ _______ _____ _____    ______ ____
ROOT
ATOM      1  C   UNL     1       6.755   5.111  15.373  0.00  0.00    +0.000 C 
ATOM      2  C   UNL     1       6.251   4.207  16.233  0.00  0.00    +0.000 C 
ATOM      3  C   UNL     1       5.963   4.521  17.665  0.00  0.00    +0.000 C 
ATOM      4  C   UNL     1       6.059   6.019  17.912  0.00  0.00    +0.000 C 
ATOM      5  C   UNL     1       7.276   6.570  17.172  0.00  0.00    +0.000 C 
ATOM      6  O   UNL     1       7.117   6.400  15.744  0.00  0.00    +0.000 OA
ENDROOT
BRANCH   3   7
ATOM      7  C   UNL     1       4.626   3.992  18.141  0.00  0.00    +0.000 A 
ATOM      8  C   UNL     1       3.586   3.720  17.215  0.00  0.00    +0.000 A 
ATOM      9  C   UNL     1       2.353   3.230  17.639  0.00  0.00    +0.000 A 
ATOM     10  C   UNL     1       2.175   3.024  18.993  0.00  0.00    +0.000 A 
ATOM     11  C   UNL     1       3.169   3.294  19.900  0.00  0.00    +0.000 A 
ATOM     12  C   UNL     1       4.401   3.778  19.509  0.00  0.00    +0.000 A 
ATOM     13  O   UNL     1       2.790   3.031  21.176  0.00  0.00    +0.000 OA
ATOM     14  C   UNL     1       1.436   2.572  20.969  0.00  0.00    +0.000 C 
ATOM     15  O   UNL     1       1.046   2.553  19.580  0.00  0.00    +0.000 OA
ENDBRANCH   3   7
BRANCH   1  17
ATOM     16  N   UNL     1       6.144   3.609  13.565  0.00  0.00    +0.000 N 
ATOM     17  C   UNL     1       6.929   4.668  13.944  0.00  0.00    +0.000 C 
ATOM     18  O   UNL     1       7.710   5.225  13.176  0.00  0.00    +0.000 OA
ATOM     19  H   UNL     1       5.535   3.175  14.247  0.00  0.00    +0.000 HD
BRANCH  16  20
ATOM     20  C   UNL     1       6.223   3.114  12.214  0.00  0.00    +0.000 C 
BRANCH  20  22
ATOM     21  C   UNL     1       3.705   3.190  10.938  0.00  0.00    +0.000 C 
ATOM     22  C   UNL     1       4.868   3.155  11.528  0.00  0.00    +0.000 C 
ENDBRANCH  20  22
ENDBRANCH  16  20
ENDBRANCH   1  17
BRANCH   5  23
ATOM     23  O   UNL     1       7.452   7.961  17.480  0.00  0.00    +0.000 OA
BRANCH  23  24
ATOM     24  C   UNL     1       8.364   8.172  18.560  0.00  0.00    +0.000 C 
BRANCH  24  25
ATOM     25  C   UNL     1       9.076   9.504  18.406  0.00  0.00    +0.000 C 
BRANCH  25  26
ATOM     26  C   UNL     1       8.113  10.563  17.872  0.00  0.00    +0.000 C 
BRANCH  26  27
ATOM     27  C   UNL     1       8.747  11.942  17.851  0.00  0.00    +0.000 C 
BRANCH  27  28
ATOM     28  O   UNL     1       8.006  12.789  16.984  0.00  0.00    +0.000 OA
ATOM     29  H   UNL     1       7.348  12.233  16.531  0.00  0.00    +0.000 HD
ENDBRANCH  27  28
ENDBRANCH  26  27
ENDBRANCH  25  26
ENDBRANCH  24  25
ENDBRANCH  23  24
ENDBRANCH   5  23
TORSDOF 10
ENDMDL
MODEL 6
REMARK VINA RESULT:      -8.0      2.272      6.600
REMARK  Name = 
REMARK  10 active torsions:
REMARK  status: ('A' for Active; 'I' for Inactive)
REMARK    1  A    between atoms: C_2  and  C_3
REMARK    2  A    between atoms: C_3  and  N_4
REMARK    3  A    between atoms: C_5  and  C_7
REMARK    4  A    between atoms: C_9  and  C_10
REMARK    5  A    between atoms: C_20  and  O_21
REMARK    6  A    between atoms: O_21  and  C_22
REMARK    7  A    between atoms: C_22  and  C_23
REMARK    8  A    between atoms: C_23  and  C_24
REMARK    9  A    between atoms: C_24  and  C_25
REMARK   10  A    between atoms: C_25  and  O_26
REMARK                            x       y       z     vdW  Elec       q    Type
REMARK                         _______ _______ _______ _____ _____    ______ ____
ROOT
ATOM      1  C   UNL     1       6.991   6.739  17.180  0.00  0.00    +0.000 C 
ATOM      2  C   UNL     1       5.676   6.808  17.450  0.00  0.00    +0.000 C 
ATOM      3  C   UNL     1       4.648   6.040  16.685  0.00  0.00    +0.000 C 
ATOM      4  C   UNL     1       5.313   5.007  15.788  0.00  0.00    +0.000 C 
ATOM      5  C   UNL     1       6.538   5.636  15.127  0.00  0.00    +0.000 C 
ATOM      6  O   UNL     1       7.518   6.000  16.126  0.00  0.00    +0.000 OA
ENDROOT
BRANCH   3   7
ATOM      7  C   UNL     1       3.608   5.380  17.568  0.00  0.00    +0.000 A 
ATOM      8  C   UNL     1       3.150   6.022  18.747  0.00  0.00    +0.000 A 
ATOM      9  C   UNL     1       2.192   5.427  19.566  0.00  0.00    +0.000 A 
ATOM     10  C   UNL     1       1.708   4.188  19.193  0.00  0.00    +0.000 A 
ATOM     11  C   UNL     1       2.152   3.552  18.061  0.00  0.00    +0.000 A 
ATOM     12  C   UNL     1       3.099   4.118  17.230  0.00  0.00    +0.000 A 
ATOM     13  O   UNL     1       1.559   2.346  17.879  0.00  0.00    +0.000 OA
ATOM     14  C   UNL     1       0.694   2.291  19.036  0.00  0.00    +0.000 C 
ATOM     15  O   UNL     1       0.777   3.468  19.866  0.00  0.00    +0.000 OA
ENDBRANCH   3   7
BRANCH   1  17
ATOM     16  N   UNL     1       8.040   8.849  17.770  0.00  0.00    +0.000 N 
ATOM     17  C   UNL     1       7.914   7.519  18.080  0.00  0.00    +0.000 C 
ATOM     18  O   UNL     1       8.500   6.999  19.026  0.00  0.00    +0.000 OA
ATOM     19  H   UNL     1       7.550   9.218  16.964  0.00  0.00    +0.000 HD
BRANCH  16  20
ATOM     20  C   UNL     1       8.888   9.689  18.576  0.00  0.00    +0.000 C 
BRANCH  20  22
ATOM     21  C   UNL     1       8.790  12.378  17.721  0.00  0.00    +0.000 C 
ATOM     22  C   UNL     1       8.835  11.136  18.116  0.00  0.00    +0.000 C 
ENDBRANCH  20  22
ENDBRANCH  16  20
ENDBRANCH   1  17
BRANCH   5  23
ATOM     23  O   UNL     1       7.118   4.717  14.190  0.00  0.00    +0.000 OA
BRANCH  23  24
ATOM     24  C   UNL     1       6.199   3.705  13.773  0.00  0.00    +0.000 C 
BRANCH  24  25
ATOM     25  C   UNL     1       6.060   3.699  12.262  0.00  0.00    +0.000 C 
BRANCH  25  26
ATOM     26  C   UNL     1       4.799   2.943  11.845  0.00  0.00    +0.000 C 
BRANCH  26  27
ATOM     27  C   UNL     1       4.034   3.677  10.759  0.00  0.00    +0.000 C 
BRANCH  27  28
ATOM     28  O   UNL     1       2.888   2.921  10.397  0.00  0.00    +0.000 OA
ATOM     29  H   UNL     1       2.404   2.719  11.217  0.00  0.00    +0.000 HD
ENDBRANCH  27  28
ENDBRANCH  26  27
ENDBRANCH  25  26
ENDBRANCH  24  25
ENDBRANCH  23  24
ENDBRANCH   5  23
TORSDOF 10
ENDMDL
MODEL 7
REMARK VINA RESULT:      -7.7      3.722      6.948
REMARK  Name = 
REMARK  10 active torsions:
REMARK  status: ('A' for Active; 'I' for Inactive)
REMARK    1  A    between atoms: C_2  and  C_3
REMARK    2  A    between atoms: C_3  and  N_4
REMARK    3  A    between atoms: C_5  and  C_7
REMARK    4  A    between atoms: C_9  and  C_10
REMARK    5  A    between atoms: C_20  and  O_21
REMARK    6  A    between atoms: O_21  and  C_22
REMARK    7  A    between atoms: C_22  and  C_23
REMARK    8  A    between atoms: C_23  and  C_24
REMARK    9  A    between atoms: C_24  and  C_25
REMARK   10  A    between atoms: C_25  and  O_26
REMARK                            x       y       z     vdW  Elec       q    Type
REMARK                         _______ _______ _______ _____ _____    ______ ____
ROOT
ATOM      1  C   UNL     1       5.872   6.444  17.816  0.00  0.00    +0.000 C 
ATOM      2  C   UNL     1       4.677   7.008  17.568  0.00  0.00    +0.000 C 
ATOM      3  C   UNL     1       3.391   6.447  18.082  0.00  0.00    +0.000 C 
ATOM      4  C   UNL     1       3.658   5.358  19.110  0.00  0.00    +0.000 C 
ATOM      5  C   UNL     1       4.808   4.480  18.619  0.00  0.00    +0.000 C 
ATOM      6  O   UNL     1       6.025   5.254  18.517  0.00  0.00    +0.000 OA
ENDROOT
BRANCH   3   7
ATOM      7  C   UNL     1       2.462   7.497  18.656  0.00  0.00    +0.000 A 
ATOM      8  C   UNL     1       1.965   8.545  17.839  0.00  0.00    +0.000 A 
ATOM      9  C   UNL     1       1.107   9.515  18.354  0.00  0.00    +0.000 A 
ATOM     10  C   UNL     1       0.762   9.424  19.689  0.00  0.00    +0.000 A 
ATOM     11  C   UNL     1       1.246   8.422  20.492  0.00  0.00    +0.000 A 
ATOM     12  C   UNL     1       2.095   7.446  20.009  0.00  0.00    +0.000 A 
ATOM     13  O   UNL     1       0.794   8.517  21.767  0.00  0.00    +0.000 OA
ATOM     14  C   UNL     1      -0.025   9.705  21.678  0.00  0.00    +0.000 C 
ATOM     15  O   UNL     1      -0.059  10.275  20.353  0.00  0.00    +0.000 OA
ENDBRANCH   3   7
BRANCH   1  17
ATOM     16  N   UNL     1       7.381   8.345  17.916  0.00  0.00    +0.000 N 
ATOM     17  C   UNL     1       7.087   7.162  17.288  0.00  0.00    +0.000 C 
ATOM     18  O   UNL     1       7.767   6.711  16.369  0.00  0.00    +0.000 OA
ATOM     19  H   UNL     1       6.772   8.679  18.653  0.00  0.00    +0.000 HD
BRANCH  16  20
ATOM     20  C   UNL     1       8.530   9.106  17.497  0.00  0.00    +0.000 C 
BRANCH  20  22
ATOM     21  C   UNL     1       9.453  10.802  19.557  0.00  0.00    +0.000 C 
ATOM     22  C   UNL     1       9.027  10.019  18.606  0.00  0.00    +0.000 C 
ENDBRANCH  20  22
ENDBRANCH  16  20
ENDBRANCH   1  17
BRANCH   5  23
ATOM     23  O   UNL     1       5.005   3.378  19.517  0.00  0.00    +0.000 OA
BRANCH  23  24
ATOM     24  C   UNL     1       3.806   2.635  19.745  0.00  0.00    +0.000 C 
BRANCH  24  25
ATOM     25  C   UNL     1       3.609   1.592  18.660  0.00  0.00    +0.000 C 
BRANCH  25  26
ATOM     26  C   UNL     1       2.521   2.036  17.685  0.00  0.00    +0.000 C 
BRANCH  26  27
ATOM     27  C   UNL     1       1.373   2.728  18.397  0.00  0.00    +0.000 C 
BRANCH  27  28
ATOM     28  O   UNL     1       0.952   3.849  17.633  0.00  0.00    +0.000 OA
ATOM     29  H   UNL     1       0.132   3.595  17.174  0.00  0.00    +0.000 HD
ENDBRANCH  27  28
ENDBRANCH  26  27
ENDBRANCH  25  26
ENDBRANCH  24  25
ENDBRANCH  23  24
ENDBRANCH   5  23
TORSDOF 10
ENDMDL
MODEL 8
REMARK VINA RESULT:      -7.6      1.111      1.296
REMARK  Name = 
REMARK  10 active torsions:
REMARK  status: ('A' for Active; 'I' for Inactive)
REMARK    1  A    between atoms: C_2  and  C_3
REMARK    2  A    between atoms: C_3  and  N_4
REMARK    3  A    between atoms: C_5  and  C_7
REMARK    4  A    between atoms: C_9  and  C_10
REMARK    5  A    between atoms: C_20  and  O_21
REMARK    6  A    between atoms: O_21  and  C_22
REMARK    7  A    between atoms: C_22  and  C_23
REMARK    8  A    between atoms: C_23  and  C_24
REMARK    9  A    between atoms: C_24  and  C_25
REMARK   10  A    between atoms: C_25  and  O_26
REMARK                            x       y       z     vdW  Elec       q    Type
REMARK                         _______ _______ _______ _____ _____    ______ ____
ROOT
ATOM      1  C   UNL     1       6.797   5.373  15.503  0.00  0.00    +0.000 C 
ATOM      2  C   UNL     1       6.173   4.580  16.393  0.00  0.00    +0.000 C 
ATOM      3  C   UNL     1       5.801   5.036  17.766  0.00  0.00    +0.000 C 
ATOM      4  C   UNL     1       5.973   6.543  17.892  0.00  0.00    +0.000 C 
ATOM      5  C   UNL     1       7.275   6.954  17.207  0.00  0.00    +0.000 C 
ATOM      6  O   UNL     1       7.212   6.667  15.791  0.00  0.00    +0.000 OA
ENDROOT
BRANCH   3   7
ATOM      7  C   UNL     1       4.400   4.630  18.176  0.00  0.00    +0.000 A 
ATOM      8  C   UNL     1       3.384   5.606  18.342  0.00  0.00    +0.000 A 
ATOM      9  C   UNL     1       2.091   5.245  18.716  0.00  0.00    +0.000 A 
ATOM     10  C   UNL     1       1.834   3.904  18.924  0.00  0.00    +0.000 A 
ATOM     11  C   UNL     1       2.811   2.951  18.779  0.00  0.00    +0.000 A 
ATOM     12  C   UNL     1       4.100   3.280  18.408  0.00  0.00    +0.000 A 
ATOM     13  O   UNL     1       2.356   1.700  19.037  0.00  0.00    +0.000 OA
ATOM     14  C   UNL     1       0.978   1.975  19.373  0.00  0.00    +0.000 C 
ATOM     15  O   UNL     1       0.639   3.376  19.289  0.00  0.00    +0.000 OA
ENDBRANCH   3   7
BRANCH   1  17
ATOM     16  N   UNL     1       6.200   3.781  13.768  0.00  0.00    +0.000 N 
ATOM     17  C   UNL     1       7.048   4.794  14.134  0.00  0.00    +0.000 C 
ATOM     18  O   UNL     1       7.941   5.211  13.401  0.00  0.00    +0.000 OA
ATOM     19  H   UNL     1       5.496   3.463  14.423  0.00  0.00    +0.000 HD
BRANCH  16  20
ATOM     20  C   UNL     1       6.345   3.166  12.473  0.00  0.00    +0.000 C 
BRANCH  20  22
ATOM     21  C   UNL     1       3.899   3.141  11.062  0.00  0.00    +0.000 C 
ATOM     22  C   UNL     1       5.028   3.153  11.714  0.00  0.00    +0.000 C 
ENDBRANCH  20  22
ENDBRANCH  16  20
ENDBRANCH   1  17
BRANCH   5  23
ATOM     23  O   UNL     1       7.517   8.354  17.409  0.00  0.00    +0.000 OA
BRANCH  23  24
ATOM     24  C   UNL     1       8.508   8.601  18.410  0.00  0.00    +0.000 C 
BRANCH  24  25
ATOM     25  C   UNL     1       8.823  10.083  18.496  0.00  0.00    +0.000 C 
BRANCH  25  26
ATOM     26  C   UNL     1       9.838  10.349  19.606  0.00  0.00    +0.000 C 
BRANCH  26  27
ATOM     27  C   UNL     1       9.261  11.227  20.701  0.00  0.00    +0.000 C 
BRANCH  27  28
ATOM     28  O   UNL     1      10.043  12.407  20.821  0.00  0.00    +0.000 OA
ATOM     29  H   UNL     1      10.954  12.130  21.025  0.00  0.00    +0.000 HD
ENDBRANCH  27  28
ENDBRANCH  26  27
ENDBRANCH  25  26
ENDBRANCH  24  25
ENDBRANCH  23  24
ENDBRANCH   5  23
TORSDOF 10
ENDMDL
MODEL 9
REMARK VINA RESULT:      -7.6      1.350      1.756
REMARK  Name = 
REMARK  10 active torsions:
REMARK  status: ('A' for Active; 'I' for Inactive)
REMARK    1  A    between atoms: C_2  and  C_3
REMARK    2  A    between atoms: C_3  and  N_4
REMARK    3  A    between atoms: C_5  and  C_7
REMARK    4  A    between atoms: C_9  and  C_10
REMARK    5  A    between atoms: C_20  and  O_21
REMARK    6  A    between atoms: O_21  and  C_22
REMARK    7  A    between atoms: C_22  and  C_23
REMARK    8  A    between atoms: C_23  and  C_24
REMARK    9  A    between atoms: C_24  and  C_25
REMARK   10  A    between atoms: C_25  and  O_26
REMARK                            x       y       z     vdW  Elec       q    Type
REMARK                         _______ _______ _______ _____ _____    ______ ____
ROOT
ATOM      1  C   UNL     1       6.766   5.523  15.854  0.00  0.00    +0.000 C 
ATOM      2  C   UNL     1       6.214   4.688  16.753  0.00  0.00    +0.000 C 
ATOM      3  C   UNL     1       5.829   5.117  18.131  0.00  0.00    +0.000 C 
ATOM      4  C   UNL     1       5.894   6.632  18.256  0.00  0.00    +0.000 C 
ATOM      5  C   UNL     1       7.154   7.136  17.553  0.00  0.00    +0.000 C 
ATOM      6  O   UNL     1       7.091   6.845  16.138  0.00  0.00    +0.000 OA
ENDROOT
BRANCH   3   7
ATOM      7  C   UNL     1       4.468   4.610  18.561  0.00  0.00    +0.000 A 
ATOM      8  C   UNL     1       3.785   5.210  19.650  0.00  0.00    +0.000 A 
ATOM      9  C   UNL     1       2.531   4.756  20.053  0.00  0.00    +0.000 A 
ATOM     10  C   UNL     1       1.977   3.698  19.359  0.00  0.00    +0.000 A 
ATOM     11  C   UNL     1       2.633   3.102  18.311  0.00  0.00    +0.000 A 
ATOM     12  C   UNL     1       3.875   3.532  17.888  0.00  0.00    +0.000 A 
ATOM     13  O   UNL     1       1.923   2.079  17.771  0.00  0.00    +0.000 OA
ATOM     14  C   UNL     1       0.746   2.093  18.609  0.00  0.00    +0.000 C 
ATOM     15  O   UNL     1       0.771   3.131  19.611  0.00  0.00    +0.000 OA
ENDBRANCH   3   7
BRANCH   1  17
ATOM     16  N   UNL     1       6.182   3.973  14.078  0.00  0.00    +0.000 N 
ATOM     17  C   UNL     1       7.039   4.965  14.482  0.00  0.00    +0.000 C 
ATOM     18  O   UNL     1       7.956   5.378  13.776  0.00  0.00    +0.000 OA
ATOM     19  H   UNL     1       5.458   3.656  14.712  0.00  0.00    +0.000 HD
BRANCH  16  20
ATOM     20  C   UNL     1       6.347   3.378  12.777  0.00  0.00    +0.000 C 
BRANCH  20  22
ATOM     21  C   UNL     1       3.908   3.315  11.355  0.00  0.00    +0.000 C 
ATOM     22  C   UNL     1       5.034   3.345  12.012  0.00  0.00    +0.000 C 
ENDBRANCH  20  22
ENDBRANCH  16  20
ENDBRANCH   1  17
BRANCH   5  23
ATOM     23  O   UNL     1       7.296   8.550  17.753  0.00  0.00    +0.000 OA
BRANCH  23  24
ATOM     24  C   UNL     1       8.662   8.971  17.732  0.00  0.00    +0.000 C 
BRANCH  24  25
ATOM     25  C   UNL     1       8.939   9.941  18.867  0.00  0.00    +0.000 C 
BRANCH  25  26
ATOM     26  C   UNL     1       9.798  11.105  18.376  0.00  0.00    +0.000 C 
BRANCH  26  27
ATOM     27  C   UNL     1       9.010  12.401  18.314  0.00  0.00    +0.000 C 
BRANCH  27  28
ATOM     28  O   UNL     1       9.281  13.060  17.086  0.00  0.00    +0.000 OA
ATOM     29  H   UNL     1       8.939  12.492  16.372  0.00  0.00    +0.000 HD
ENDBRANCH  27  28
ENDBRANCH  26  27
ENDBRANCH  25  26
ENDBRANCH  24  25
ENDBRANCH  23  24
ENDBRANCH   5  23
TORSDOF 10
ENDMDL
