MODEL 1
REMARK VINA RESULT:      -7.1      0.000      0.000
REMARK  Name = 
REMARK  15 active torsions:
REMARK  status: ('A' for Active; 'I' for Inactive)
REMARK    1  A    between atoms: C_1  and  C_2
REMARK    2  A    between atoms: C_2  and  N_3
REMARK    3  A    between atoms: C_4  and  C_5
REMARK    4  A    between atoms: C_5  and  C_6
REMARK    5  A    between atoms: C_6  and  C_7
REMARK    6  A    between atoms: C_7  and  O_8
REMARK    7  A    between atoms: C_7  and  C_9
REMARK    8  A    between atoms: C_9  and  C_10
REMARK    9  A    between atoms: C_10  and  O_11
REMARK   10  A    between atoms: C_10  and  C_12
REMARK   11  A    between atoms: C_12  and  C_13
REMARK   12  A    between atoms: C_13  and  O_15
REMARK   13  A    between atoms: C_16  and  C_17
REMARK   14  A    between atoms: C_24  and  C_25
REMARK   15  A    between atoms: C_26  and  C_27
REMARK                            x       y       z     vdW  Elec       q    Type
REMARK                         _______ _______ _______ _____ _____    ______ ____
ROOT
ATOM      1  N   UNL     1       4.693   5.803  16.910  0.00  0.00    +0.000 N 
ATOM      2  C   UNL     1       3.794   5.682  17.968  0.00  0.00    +0.000 A 
ATOM      3  C   UNL     1       3.584   4.311  18.165  0.00  0.00    +0.000 A 
ATOM      4  C   UNL     1       4.312   3.608  17.135  0.00  0.00    +0.000 A 
ATOM      5  C   UNL     1       4.291   2.130  16.890  0.00  0.00    +0.000 C 
ATOM      6  C   UNL     1       5.012   4.551  16.381  0.00  0.00    +0.000 A 
ENDROOT
BRANCH   3   7
ATOM      7  C   UNL     1       2.803   3.739  19.277  0.00  0.00    +0.000 A 
ATOM      8  C   UNL     1       1.408   3.847  19.332  0.00  0.00    +0.000 A 
ATOM      9  C   UNL     1       0.680   3.414  20.442  0.00  0.00    +0.000 A 
ATOM     10  C   UNL     1       1.344   2.785  21.479  0.00  0.00    +0.000 A 
ATOM     11  F   UNL     1       0.652   2.360  22.544  0.00  0.00    +0.000 F 
ATOM     12  C   UNL     1       2.716   2.592  21.428  0.00  0.00    +0.000 A 
ATOM     13  C   UNL     1       3.446   3.091  20.343  0.00  0.00    +0.000 A 
ENDBRANCH   3   7
BRANCH   6  14
ATOM     14  C   UNL     1       5.897   4.357  15.230  0.00  0.00    +0.000 C 
ATOM     15  N   UNL     1       7.242   4.459  15.441  0.00  0.00    +0.000 N 
ATOM     16  O   UNL     1       5.517   4.149  14.080  0.00  0.00    +0.000 OA
ATOM     17  H   UNL     1       7.630   4.853  16.279  0.00  0.00    +0.000 HD
ATOM     18  H   UNL     1       7.829   4.407  14.621  0.00  0.00    +0.000 HD
ENDBRANCH   6  14
BRANCH   1  20
ATOM     19  C   UNL     1       6.595   7.380  17.265  0.00  0.00    +0.000 C 
ATOM     20  C   UNL     1       5.338   7.042  16.480  0.00  0.00    +0.000 C 
ENDBRANCH   1  20
BRANCH   2  21
ATOM     21  C   UNL     1       3.277   6.880  18.767  0.00  0.00    +0.000 C 
BRANCH  21  22
ATOM     22  C   UNL     1       2.123   7.644  18.078  0.00  0.00    +0.000 C 
BRANCH  22  23
ATOM     23  C   UNL     1       1.945   9.084  18.599  0.00  0.00    +0.000 C 
BRANCH  23  24
ATOM     24  O   UNL     1       1.808   9.972  17.485  0.00  0.00    +0.000 OA
ATOM     25  H   UNL     1       0.857  10.098  17.319  0.00  0.00    +0.000 HD
ENDBRANCH  23  24
BRANCH  23  26
ATOM     26  C   UNL     1       0.700   9.265  19.492  0.00  0.00    +0.000 C 
BRANCH  26  27
ATOM     27  C   UNL     1       0.754   8.506  20.827  0.00  0.00    +0.000 C 
BRANCH  27  28
ATOM     28  O   UNL     1       1.990   8.804  21.488  0.00  0.00    +0.000 OA
ATOM     29  H   UNL     1       2.564   8.018  21.455  0.00  0.00    +0.000 HD
ENDBRANCH  27  28
BRANCH  27  30
ATOM     30  C   UNL     1      -0.393   8.869  21.774  0.00  0.00    +0.000 C 
BRANCH  30  31
ATOM     31  C   UNL     1       0.037   9.869  22.829  0.00  0.00    +0.000 C 
ATOM     32  O   UNL     1       0.384   9.576  23.961  0.00  0.00    +0.000 OA
BRANCH  31  33
ATOM     33  O   UNL     1       0.008  11.137  22.383  0.00  0.00    +0.000 OA
ATOM     34  H   UNL     1      -0.877  11.494  22.204  0.00  0.00    +0.000 HD
ENDBRANCH  31  33
ENDBRANCH  30  31
ENDBRANCH  27  30
ENDBRANCH  26  27
ENDBRANCH  23  26
ENDBRANCH  22  23
ENDBRANCH  21  22
ENDBRANCH   2  21
TORSDOF 13
ENDMDL
MODEL 2
REMARK VINA RESULT:      -7.0      0.777      1.308
REMARK  Name = 
REMARK  15 active torsions:
REMARK  status: ('A' for Active; 'I' for Inactive)
REMARK    1  A    between atoms: C_1  and  C_2
REMARK    2  A    between atoms: C_2  and  N_3
REMARK    3  A    between atoms: C_4  and  C_5
REMARK    4  A    between atoms: C_5  and  C_6
REMARK    5  A    between atoms: C_6  and  C_7
REMARK    6  A    between atoms: C_7  and  O_8
REMARK    7  A    between atoms: C_7  and  C_9
REMARK    8  A    between atoms: C_9  and  C_10
REMARK    9  A    between atoms: C_10  and  O_11
REMARK   10  A    between atoms: C_10  and  C_12
REMARK   11  A    between atoms: C_12  and  C_13
REMARK   12  A    between atoms: C_13  and  O_15
REMARK   13  A    between atoms: C_16  and  C_17
REMARK   14  A    between atoms: C_24  and  C_25
REMARK   15  A    between atoms: C_26  and  C_27
REMARK                            x       y       z     vdW  Elec       q    Type
REMARK                         _______ _______ _______ _____ _____    ______ ____
ROOT
ATOM      1  N   UNL     1       4.731   5.965  16.946  0.00  0.00    +0.000 N 
ATOM      2  C   UNL     1       3.840   5.888  18.014  0.00  0.00    +0.000 A 
ATOM      3  C   UNL     1       3.581   4.529  18.228  0.00  0.00    +0.000 A 
ATOM      4  C   UNL     1       4.272   3.788  17.198  0.00  0.00    +0.000 A 
ATOM      5  C   UNL     1       4.194   2.309  16.969  0.00  0.00    +0.000 C 
ATOM      6  C   UNL     1       5.000   4.696  16.427  0.00  0.00    +0.000 A 
ENDROOT
BRANCH   3   7
ATOM      7  C   UNL     1       2.790   3.998  19.352  0.00  0.00    +0.000 A 
ATOM      8  C   UNL     1       3.381   3.641  20.570  0.00  0.00    +0.000 A 
ATOM      9  C   UNL     1       2.654   3.025  21.589  0.00  0.00    +0.000 A 
ATOM     10  C   UNL     1       1.293   2.840  21.428  0.00  0.00    +0.000 A 
ATOM     11  F   UNL     1       0.586   2.257  22.404  0.00  0.00    +0.000 F 
ATOM     12  C   UNL     1       0.655   3.248  20.267  0.00  0.00    +0.000 A 
ATOM     13  C   UNL     1       1.405   3.802  19.222  0.00  0.00    +0.000 A 
ENDBRANCH   3   7
BRANCH   6  14
ATOM     14  C   UNL     1       5.865   4.458  15.270  0.00  0.00    +0.000 C 
ATOM     15  N   UNL     1       7.215   4.496  15.471  0.00  0.00    +0.000 N 
ATOM     16  O   UNL     1       5.467   4.265  14.124  0.00  0.00    +0.000 OA
ATOM     17  H   UNL     1       7.627   4.873  16.305  0.00  0.00    +0.000 HD
ATOM     18  H   UNL     1       7.792   4.414  14.647  0.00  0.00    +0.000 HD
ENDBRANCH   6  14
BRANCH   1  20
ATOM     19  C   UNL     1       6.680   7.488  17.283  0.00  0.00    +0.000 C 
ATOM     20  C   UNL     1       5.419   7.175  16.497  0.00  0.00    +0.000 C 
ENDBRANCH   1  20
BRANCH   2  21
ATOM     21  C   UNL     1       3.375   7.114  18.805  0.00  0.00    +0.000 C 
BRANCH  21  22
ATOM     22  C   UNL     1       2.036   7.708  18.313  0.00  0.00    +0.000 C 
BRANCH  22  23
ATOM     23  C   UNL     1       1.929   9.232  18.520  0.00  0.00    +0.000 C 
BRANCH  23  24
ATOM     24  O   UNL     1       2.117   9.891  17.264  0.00  0.00    +0.000 OA
ATOM     25  H   UNL     1       1.283   9.827  16.765  0.00  0.00    +0.000 HD
ENDBRANCH  23  24
BRANCH  23  26
ATOM     26  C   UNL     1       0.563   9.682  19.080  0.00  0.00    +0.000 C 
BRANCH  26  27
ATOM     27  C   UNL     1       0.615  10.269  20.499  0.00  0.00    +0.000 C 
BRANCH  27  28
ATOM     28  O   UNL     1      -0.667  10.819  20.827  0.00  0.00    +0.000 OA
ATOM     29  H   UNL     1      -0.737  11.711  20.442  0.00  0.00    +0.000 HD
ENDBRANCH  27  28
BRANCH  27  30
ATOM     30  C   UNL     1       0.978   9.235  21.567  0.00  0.00    +0.000 C 
BRANCH  30  31
ATOM     31  C   UNL     1       0.044   9.298  22.758  0.00  0.00    +0.000 C 
ATOM     32  O   UNL     1       0.199  10.029  23.723  0.00  0.00    +0.000 OA
BRANCH  31  33
ATOM     33  O   UNL     1      -1.000   8.458  22.643  0.00  0.00    +0.000 OA
ATOM     34  H   UNL     1      -1.840   8.873  22.387  0.00  0.00    +0.000 HD
ENDBRANCH  31  33
ENDBRANCH  30  31
ENDBRANCH  27  30
ENDBRANCH  26  27
ENDBRANCH  23  26
ENDBRANCH  22  23
ENDBRANCH  21  22
ENDBRANCH   2  21
TORSDOF 13
ENDMDL
MODEL 3
REMARK VINA RESULT:      -6.9      3.377      5.378
REMARK  Name = 
REMARK  15 active torsions:
REMARK  status: ('A' for Active; 'I' for Inactive)
REMARK    1  A    between atoms: C_1  and  C_2
REMARK    2  A    between atoms: C_2  and  N_3
REMARK    3  A    between atoms: C_4  and  C_5
REMARK    4  A    between atoms: C_5  and  C_6
REMARK    5  A    between atoms: C_6  and  C_7
REMARK    6  A    between atoms: C_7  and  O_8
REMARK    7  A    between atoms: C_7  and  C_9
REMARK    8  A    between atoms: C_9  and  C_10
REMARK    9  A    between atoms: C_10  and  O_11
REMARK   10  A    between atoms: C_10  and  C_12
REMARK   11  A    between atoms: C_12  and  C_13
REMARK   12  A    between atoms: C_13  and  O_15
REMARK   13  A    between atoms: C_16  and  C_17
REMARK   14  A    between atoms: C_24  and  C_25
REMARK   15  A    between atoms: C_26  and  C_27
REMARK                            x       y       z     vdW  Elec       q    Type
REMARK                         _______ _______ _______ _____ _____    ______ ____
ROOT
ATOM      1  N   UNL     1       2.437   5.687  19.802  0.00  0.00    +0.000 N 
ATOM      2  C   UNL     1       3.332   6.111  18.823  0.00  0.00    +0.000 A 
ATOM      3  C   UNL     1       4.059   4.982  18.424  0.00  0.00    +0.000 A 
ATOM      4  C   UNL     1       3.640   3.880  19.257  0.00  0.00    +0.000 A 
ATOM      5  C   UNL     1       4.224   2.500  19.259  0.00  0.00    +0.000 C 
ATOM      6  C   UNL     1       2.615   4.333  20.090  0.00  0.00    +0.000 A 
ENDROOT
BRANCH   3   7
ATOM      7  C   UNL     1       5.022   4.962  17.308  0.00  0.00    +0.000 A 
ATOM      8  C   UNL     1       6.286   5.554  17.412  0.00  0.00    +0.000 A 
ATOM      9  C   UNL     1       7.149   5.643  16.318  0.00  0.00    +0.000 A 
ATOM     10  C   UNL     1       6.783   5.055  15.121  0.00  0.00    +0.000 A 
ATOM     11  F   UNL     1       7.608   5.129  14.070  0.00  0.00    +0.000 F 
ATOM     12  C   UNL     1       5.570   4.394  15.000  0.00  0.00    +0.000 A 
ATOM     13  C   UNL     1       4.682   4.370  16.081  0.00  0.00    +0.000 A 
ENDBRANCH   3   7
BRANCH   6  14
ATOM     14  C   UNL     1       1.852   3.611  21.110  0.00  0.00    +0.000 C 
ATOM     15  N   UNL     1       0.642   3.093  20.747  0.00  0.00    +0.000 N 
ATOM     16  O   UNL     1       2.201   3.473  22.280  0.00  0.00    +0.000 OA
ATOM     17  H   UNL     1       0.175   3.353  19.898  0.00  0.00    +0.000 HD
ATOM     18  H   UNL     1       0.095   2.674  21.486  0.00  0.00    +0.000 HD
ENDBRANCH   6  14
BRANCH   1  20
ATOM     19  C   UNL     1       1.835   7.594  21.297  0.00  0.00    +0.000 C 
ATOM     20  C   UNL     1       1.354   6.491  20.370  0.00  0.00    +0.000 C 
ENDBRANCH   1  20
BRANCH   2  21
ATOM     21  C   UNL     1       3.363   7.542  18.279  0.00  0.00    +0.000 C 
BRANCH  21  22
ATOM     22  C   UNL     1       2.044   7.987  17.609  0.00  0.00    +0.000 C 
BRANCH  22  23
ATOM     23  C   UNL     1       1.518   9.340  18.129  0.00  0.00    +0.000 C 
BRANCH  23  24
ATOM     24  O   UNL     1       2.111  10.398  17.368  0.00  0.00    +0.000 OA
ATOM     25  H   UNL     1       3.025  10.516  17.683  0.00  0.00    +0.000 HD
ENDBRANCH  23  24
BRANCH  23  26
ATOM     26  C   UNL     1      -0.013   9.489  18.017  0.00  0.00    +0.000 C 
BRANCH  26  27
ATOM     27  C   UNL     1      -0.627  10.520  18.977  0.00  0.00    +0.000 C 
BRANCH  27  28
ATOM     28  O   UNL     1       0.363  10.921  19.933  0.00  0.00    +0.000 OA
ATOM     29  H   UNL     1       1.223  10.544  19.674  0.00  0.00    +0.000 HD
ENDBRANCH  27  28
BRANCH  27  30
ATOM     30  C   UNL     1      -1.139  11.776  18.267  0.00  0.00    +0.000 C 
BRANCH  30  31
ATOM     31  C   UNL     1      -0.290  12.991  18.579  0.00  0.00    +0.000 C 
ATOM     32  O   UNL     1      -0.608  13.878  19.354  0.00  0.00    +0.000 OA
BRANCH  31  33
ATOM     33  O   UNL     1       0.877  12.992  17.912  0.00  0.00    +0.000 OA
ATOM     34  H   UNL     1       1.656  12.748  18.437  0.00  0.00    +0.000 HD
ENDBRANCH  31  33
ENDBRANCH  30  31
ENDBRANCH  27  30
ENDBRANCH  26  27
ENDBRANCH  23  26
ENDBRANCH  22  23
ENDBRANCH  21  22
ENDBRANCH   2  21
TORSDOF 13
ENDMDL
MODEL 4
REMARK VINA RESULT:      -6.8      0.800      1.044
REMARK  Name = 
REMARK  15 active torsions:
REMARK  status: ('A' for Active; 'I' for Inactive)
REMARK    1  A    between atoms: C_1  and  C_2
REMARK    2  A    between atoms: C_2  and  N_3
REMARK    3  A    between atoms: C_4  and  C_5
REMARK    4  A    between atoms: C_5  and  C_6
REMARK    5  A    between atoms: C_6  and  C_7
REMARK    6  A    between atoms: C_7  and  O_8
REMARK    7  A    between atoms: C_7  and  C_9
REMARK    8  A    between atoms: C_9  and  C_10
REMARK    9  A    between atoms: C_10  and  O_11
REMARK   10  A    between atoms: C_10  and  C_12
REMARK   11  A    between atoms: C_12  and  C_13
REMARK   12  A    between atoms: C_13  and  O_15
REMARK   13  A    between atoms: C_16  and  C_17
REMARK   14  A    between atoms: C_24  and  C_25
REMARK   15  A    between atoms: C_26  and  C_27
REMARK                            x       y       z     vdW  Elec       q    Type
REMARK                         _______ _______ _______ _____ _____    ______ ____
ROOT
ATOM      1  N   UNL     1       4.692   5.820  16.883  0.00  0.00    +0.000 N 
ATOM      2  C   UNL     1       3.781   5.693  17.930  0.00  0.00    +0.000 A 
ATOM      3  C   UNL     1       3.593   4.321  18.137  0.00  0.00    +0.000 A 
ATOM      4  C   UNL     1       4.346   3.621  17.123  0.00  0.00    +0.000 A 
ATOM      5  C   UNL     1       4.355   2.140  16.892  0.00  0.00    +0.000 C 
ATOM      6  C   UNL     1       5.041   4.569  16.370  0.00  0.00    +0.000 A 
ENDROOT
BRANCH   3   7
ATOM      7  C   UNL     1       2.806   3.745  19.243  0.00  0.00    +0.000 A 
ATOM      8  C   UNL     1       1.407   3.796  19.260  0.00  0.00    +0.000 A 
ATOM      9  C   UNL     1       0.668   3.363  20.363  0.00  0.00    +0.000 A 
ATOM     10  C   UNL     1       1.329   2.787  21.432  0.00  0.00    +0.000 A 
ATOM     11  F   UNL     1       0.627   2.362  22.490  0.00  0.00    +0.000 F 
ATOM     12  C   UNL     1       2.709   2.650  21.421  0.00  0.00    +0.000 A 
ATOM     13  C   UNL     1       3.446   3.151  20.342  0.00  0.00    +0.000 A 
ENDBRANCH   3   7
BRANCH   6  14
ATOM     14  C   UNL     1       5.944   4.380  15.233  0.00  0.00    +0.000 C 
ATOM     15  N   UNL     1       7.286   4.449  15.474  0.00  0.00    +0.000 N 
ATOM     16  O   UNL     1       5.584   4.204  14.072  0.00  0.00    +0.000 OA
ATOM     17  H   UNL     1       7.665   4.817  16.327  0.00  0.00    +0.000 HD
ATOM     18  H   UNL     1       7.889   4.401  14.664  0.00  0.00    +0.000 HD
ENDBRANCH   6  14
BRANCH   1  20
ATOM     19  C   UNL     1       6.577   7.419  17.230  0.00  0.00    +0.000 C 
ATOM     20  C   UNL     1       5.322   7.067  16.450  0.00  0.00    +0.000 C 
ENDBRANCH   1  20
BRANCH   2  21
ATOM     21  C   UNL     1       3.231   6.889  18.711  0.00  0.00    +0.000 C 
BRANCH  21  22
ATOM     22  C   UNL     1       2.161   7.700  17.946  0.00  0.00    +0.000 C 
BRANCH  22  23
ATOM     23  C   UNL     1       1.959   9.124  18.501  0.00  0.00    +0.000 C 
BRANCH  23  24
ATOM     24  O   UNL     1       1.614  10.002  17.424  0.00  0.00    +0.000 OA
ATOM     25  H   UNL     1       1.725   9.511  16.591  0.00  0.00    +0.000 HD
ENDBRANCH  23  24
BRANCH  23  26
ATOM     26  C   UNL     1       0.837   9.220  19.555  0.00  0.00    +0.000 C 
BRANCH  26  27
ATOM     27  C   UNL     1       0.742  10.579  20.266  0.00  0.00    +0.000 C 
BRANCH  27  28
ATOM     28  O   UNL     1       0.296  11.570  19.331  0.00  0.00    +0.000 OA
ATOM     29  H   UNL     1       0.006  12.360  19.821  0.00  0.00    +0.000 HD
ENDBRANCH  27  28
BRANCH  27  30
ATOM     30  C   UNL     1      -0.226  10.573  21.452  0.00  0.00    +0.000 C 
BRANCH  30  31
ATOM     31  C   UNL     1       0.176   9.564  22.508  0.00  0.00    +0.000 C 
ATOM     32  O   UNL     1       1.270   9.522  23.047  0.00  0.00    +0.000 OA
BRANCH  31  33
ATOM     33  O   UNL     1      -0.814   8.705  22.807  0.00  0.00    +0.000 OA
ATOM     34  H   UNL     1      -1.587   9.098  23.245  0.00  0.00    +0.000 HD
ENDBRANCH  31  33
ENDBRANCH  30  31
ENDBRANCH  27  30
ENDBRANCH  26  27
ENDBRANCH  23  26
ENDBRANCH  22  23
ENDBRANCH  21  22
ENDBRANCH   2  21
TORSDOF 13
ENDMDL
MODEL 5
REMARK VINA RESULT:      -6.8      1.800      2.301
REMARK  Name = 
REMARK  15 active torsions:
REMARK  status: ('A' for Active; 'I' for Inactive)
REMARK    1  A    between atoms: C_1  and  C_2
REMARK    2  A    between atoms: C_2  and  N_3
REMARK    3  A    between atoms: C_4  and  C_5
REMARK    4  A    between atoms: C_5  and  C_6
REMARK    5  A    between atoms: C_6  and  C_7
REMARK    6  A    between atoms: C_7  and  O_8
REMARK    7  A    between atoms: C_7  and  C_9
REMARK    8  A    between atoms: C_9  and  C_10
REMARK    9  A    between atoms: C_10  and  O_11
REMARK   10  A    between atoms: C_10  and  C_12
REMARK   11  A    between atoms: C_12  and  C_13
REMARK   12  A    between atoms: C_13  and  O_15
REMARK   13  A    between atoms: C_16  and  C_17
REMARK   14  A    between atoms: C_24  and  C_25
REMARK   15  A    between atoms: C_26  and  C_27
REMARK                            x       y       z     vdW  Elec       q    Type
REMARK                         _______ _______ _______ _____ _____    ______ ____
ROOT
ATOM      1  N   UNL     1       4.713   5.805  16.925  0.00  0.00    +0.000 N 
ATOM      2  C   UNL     1       3.823   5.744  17.996  0.00  0.00    +0.000 A 
ATOM      3  C   UNL     1       3.594   4.387  18.253  0.00  0.00    +0.000 A 
ATOM      4  C   UNL     1       4.300   3.629  17.248  0.00  0.00    +0.000 A 
ATOM      5  C   UNL     1       4.254   2.142  17.066  0.00  0.00    +0.000 C 
ATOM      6  C   UNL     1       5.008   4.527  16.447  0.00  0.00    +0.000 A 
ENDROOT
BRANCH   3   7
ATOM      7  C   UNL     1       2.814   3.876  19.395  0.00  0.00    +0.000 A 
ATOM      8  C   UNL     1       3.429   3.287  20.507  0.00  0.00    +0.000 A 
ATOM      9  C   UNL     1       2.687   2.694  21.529  0.00  0.00    +0.000 A 
ATOM     10  C   UNL     1       1.307   2.764  21.489  0.00  0.00    +0.000 A 
ATOM     11  F   UNL     1       0.589   2.204  22.470  0.00  0.00    +0.000 F 
ATOM     12  C   UNL     1       0.661   3.405  20.443  0.00  0.00    +0.000 A 
ATOM     13  C   UNL     1       1.411   3.936  19.387  0.00  0.00    +0.000 A 
ENDBRANCH   3   7
BRANCH   6  14
ATOM     14  C   UNL     1       5.878   4.270  15.298  0.00  0.00    +0.000 C 
ATOM     15  N   UNL     1       7.227   4.321  15.502  0.00  0.00    +0.000 N 
ATOM     16  O   UNL     1       5.484   4.051  14.155  0.00  0.00    +0.000 OA
ATOM     17  H   UNL     1       7.635   4.717  16.329  0.00  0.00    +0.000 HD
ATOM     18  H   UNL     1       7.807   4.224  14.681  0.00  0.00    +0.000 HD
ENDBRANCH   6  14
BRANCH   1  20
ATOM     19  C   UNL     1       6.646   7.363  17.192  0.00  0.00    +0.000 C 
ATOM     20  C   UNL     1       5.374   7.015  16.437  0.00  0.00    +0.000 C 
ENDBRANCH   1  20
BRANCH   2  21
ATOM     21  C   UNL     1       3.332   6.984  18.747  0.00  0.00    +0.000 C 
BRANCH  21  22
ATOM     22  C   UNL     1       2.181   7.733  18.039  0.00  0.00    +0.000 C 
BRANCH  22  23
ATOM     23  C   UNL     1       2.053   9.208  18.470  0.00  0.00    +0.000 C 
BRANCH  23  24
ATOM     24  O   UNL     1       2.068  10.040  17.305  0.00  0.00    +0.000 OA
ATOM     25  H   UNL     1       2.992  10.119  17.007  0.00  0.00    +0.000 HD
ENDBRANCH  23  24
BRANCH  23  26
ATOM     26  C   UNL     1       0.752   9.513  19.240  0.00  0.00    +0.000 C 
BRANCH  26  27
ATOM     27  C   UNL     1      -0.144  10.576  18.586  0.00  0.00    +0.000 C 
BRANCH  27  28
ATOM     28  O   UNL     1      -0.809  10.000  17.454  0.00  0.00    +0.000 OA
ATOM     29  H   UNL     1      -1.261   9.184  17.735  0.00  0.00    +0.000 HD
ENDBRANCH  27  28
BRANCH  27  30
ATOM     30  C   UNL     1      -1.212  11.131  19.533  0.00  0.00    +0.000 C 
BRANCH  30  31
ATOM     31  C   UNL     1      -1.568  12.568  19.209  0.00  0.00    +0.000 C 
ATOM     32  O   UNL     1      -1.829  13.422  20.040  0.00  0.00    +0.000 OA
BRANCH  31  33
ATOM     33  O   UNL     1      -1.559  12.817  17.888  0.00  0.00    +0.000 OA
ATOM     34  H   UNL     1      -2.200  13.481  17.586  0.00  0.00    +0.000 HD
ENDBRANCH  31  33
ENDBRANCH  30  31
ENDBRANCH  27  30
ENDBRANCH  26  27
ENDBRANCH  23  26
ENDBRANCH  22  23
ENDBRANCH  21  22
ENDBRANCH   2  21
TORSDOF 13
ENDMDL
MODEL 6
REMARK VINA RESULT:      -6.8      3.419      5.512
REMARK  Name = 
REMARK  15 active torsions:
REMARK  status: ('A' for Active; 'I' for Inactive)
REMARK    1  A    between atoms: C_1  and  C_2
REMARK    2  A    between atoms: C_2  and  N_3
REMARK    3  A    between atoms: C_4  and  C_5
REMARK    4  A    between atoms: C_5  and  C_6
REMARK    5  A    between atoms: C_6  and  C_7
REMARK    6  A    between atoms: C_7  and  O_8
REMARK    7  A    between atoms: C_7  and  C_9
REMARK    8  A    between atoms: C_9  and  C_10
REMARK    9  A    between atoms: C_10  and  O_11
REMARK   10  A    between atoms: C_10  and  C_12
REMARK   11  A    between atoms: C_12  and  C_13
REMARK   12  A    between atoms: C_13  and  O_15
REMARK   13  A    between atoms: C_16  and  C_17
REMARK   14  A    between atoms: C_24  and  C_25
REMARK   15  A    between atoms: C_26  and  C_27
REMARK                            x       y       z     vdW  Elec       q    Type
REMARK                         _______ _______ _______ _____ _____    ______ ____
ROOT
ATOM      1  N   UNL     1       2.362   5.750  19.808  0.00  0.00    +0.000 N 
ATOM      2  C   UNL     1       3.233   6.211  18.824  0.00  0.00    +0.000 A 
ATOM      3  C   UNL     1       3.982   5.106  18.398  0.00  0.00    +0.000 A 
ATOM      4  C   UNL     1       3.601   3.981  19.219  0.00  0.00    +0.000 A 
ATOM      5  C   UNL     1       4.219   2.616  19.191  0.00  0.00    +0.000 C 
ATOM      6  C   UNL     1       2.576   4.395  20.071  0.00  0.00    +0.000 A 
ENDROOT
BRANCH   3   7
ATOM      7  C   UNL     1       4.930   5.128  17.270  0.00  0.00    +0.000 A 
ATOM      8  C   UNL     1       4.644   4.501  16.051  0.00  0.00    +0.000 A 
ATOM      9  C   UNL     1       5.590   4.416  15.028  0.00  0.00    +0.000 A 
ATOM     10  C   UNL     1       6.813   5.041  15.187  0.00  0.00    +0.000 A 
ATOM     11  F   UNL     1       7.722   4.970  14.207  0.00  0.00    +0.000 F 
ATOM     12  C   UNL     1       7.107   5.736  16.350  0.00  0.00    +0.000 A 
ATOM     13  C   UNL     1       6.179   5.757  17.398  0.00  0.00    +0.000 A 
ENDBRANCH   3   7
BRANCH   6  14
ATOM     14  C   UNL     1       1.844   3.640  21.090  0.00  0.00    +0.000 C 
ATOM     15  N   UNL     1       0.633   3.115  20.740  0.00  0.00    +0.000 N 
ATOM     16  O   UNL     1       2.220   3.477  22.248  0.00  0.00    +0.000 OA
ATOM     17  H   UNL     1       0.144   3.390  19.908  0.00  0.00    +0.000 HD
ATOM     18  H   UNL     1       0.108   2.671  21.480  0.00  0.00    +0.000 HD
ENDBRANCH   6  14
BRANCH   1  20
ATOM     19  C   UNL     1       1.734   7.657  21.292  0.00  0.00    +0.000 C 
ATOM     20  C   UNL     1       1.267   6.517  20.402  0.00  0.00    +0.000 C 
ENDBRANCH   1  20
BRANCH   2  21
ATOM     21  C   UNL     1       3.222   7.650  18.303  0.00  0.00    +0.000 C 
BRANCH  21  22
ATOM     22  C   UNL     1       1.880   8.077  17.666  0.00  0.00    +0.000 C 
BRANCH  22  23
ATOM     23  C   UNL     1       1.396   9.465  18.130  0.00  0.00    +0.000 C 
BRANCH  23  24
ATOM     24  O   UNL     1       2.096  10.476  17.397  0.00  0.00    +0.000 OA
ATOM     25  H   UNL     1       1.843  11.341  17.766  0.00  0.00    +0.000 HD
ENDBRANCH  23  24
BRANCH  23  26
ATOM     26  C   UNL     1      -0.114   9.694  17.911  0.00  0.00    +0.000 C 
BRANCH  26  27
ATOM     27  C   UNL     1      -0.778  10.616  18.946  0.00  0.00    +0.000 C 
BRANCH  27  28
ATOM     28  O   UNL     1       0.232  11.402  19.592  0.00  0.00    +0.000 OA
ATOM     29  H   UNL     1      -0.166  11.865  20.351  0.00  0.00    +0.000 HD
ENDBRANCH  27  28
BRANCH  27  30
ATOM     30  C   UNL     1      -1.804  11.572  18.331  0.00  0.00    +0.000 C 
BRANCH  30  31
ATOM     31  C   UNL     1      -2.580  10.923  17.203  0.00  0.00    +0.000 C 
ATOM     32  O   UNL     1      -3.372  10.006  17.343  0.00  0.00    +0.000 OA
BRANCH  31  33
ATOM     33  O   UNL     1      -2.310  11.473  16.006  0.00  0.00    +0.000 OA
ATOM     34  H   UNL     1      -2.237  12.441  16.001  0.00  0.00    +0.000 HD
ENDBRANCH  31  33
ENDBRANCH  30  31
ENDBRANCH  27  30
ENDBRANCH  26  27
ENDBRANCH  23  26
ENDBRANCH  22  23
ENDBRANCH  21  22
ENDBRANCH   2  21
TORSDOF 13
ENDMDL
MODEL 7
REMARK VINA RESULT:      -6.7      3.380      5.776
REMARK  Name = 
REMARK  15 active torsions:
REMARK  status: ('A' for Active; 'I' for Inactive)
REMARK    1  A    between atoms: C_1  and  C_2
REMARK    2  A    between atoms: C_2  and  N_3
REMARK    3  A    between atoms: C_4  and  C_5
REMARK    4  A    between atoms: C_5  and  C_6
REMARK    5  A    between atoms: C_6  and  C_7
REMARK    6  A    between atoms: C_7  and  O_8
REMARK    7  A    between atoms: C_7  and  C_9
REMARK    8  A    between atoms: C_9  and  C_10
REMARK    9  A    between atoms: C_10  and  O_11
REMARK   10  A    between atoms: C_10  and  C_12
REMARK   11  A    between atoms: C_12  and  C_13
REMARK   12  A    between atoms: C_13  and  O_15
REMARK   13  A    between atoms: C_16  and  C_17
REMARK   14  A    between atoms: C_24  and  C_25
REMARK   15  A    between atoms: C_26  and  C_27
REMARK                            x       y       z     vdW  Elec       q    Type
REMARK                         _______ _______ _______ _____ _____    ______ ____
ROOT
ATOM      1  N   UNL     1       4.815   4.552  16.707  0.00  0.00    +0.000 N 
ATOM      2  C   UNL     1       3.672   5.089  17.297  0.00  0.00    +0.000 A 
ATOM      3  C   UNL     1       4.013   6.371  17.743  0.00  0.00    +0.000 A 
ATOM      4  C   UNL     1       5.422   6.560  17.488  0.00  0.00    +0.000 A 
ATOM      5  C   UNL     1       6.244   7.744  17.898  0.00  0.00    +0.000 C 
ATOM      6  C   UNL     1       5.896   5.429  16.823  0.00  0.00    +0.000 A 
ENDROOT
BRANCH   3   7
ATOM      7  C   UNL     1       3.055   7.338  18.308  0.00  0.00    +0.000 A 
ATOM      8  C   UNL     1       2.620   7.259  19.637  0.00  0.00    +0.000 A 
ATOM      9  C   UNL     1       1.622   8.098  20.136  0.00  0.00    +0.000 A 
ATOM     10  C   UNL     1       1.109   9.092  19.324  0.00  0.00    +0.000 A 
ATOM     11  F   UNL     1       0.157   9.905  19.797  0.00  0.00    +0.000 F 
ATOM     12  C   UNL     1       1.566   9.251  18.024  0.00  0.00    +0.000 A 
ATOM     13  C   UNL     1       2.517   8.361  17.511  0.00  0.00    +0.000 A 
ENDBRANCH   3   7
BRANCH   6  14
ATOM     14  C   UNL     1       7.244   5.124  16.340  0.00  0.00    +0.000 C 
ATOM     15  N   UNL     1       7.627   5.669  15.148  0.00  0.00    +0.000 N 
ATOM     16  O   UNL     1       8.042   4.383  16.908  0.00  0.00    +0.000 OA
ATOM     17  H   UNL     1       6.976   6.085  14.509  0.00  0.00    +0.000 HD
ATOM     18  H   UNL     1       8.528   5.379  14.793  0.00  0.00    +0.000 HD
ENDBRANCH   6  14
BRANCH   1  20
ATOM     19  C   UNL     1       5.110   3.515  14.456  0.00  0.00    +0.000 C 
ATOM     20  C   UNL     1       4.872   3.307  15.942  0.00  0.00    +0.000 C 
ENDBRANCH   1  20
BRANCH   2  21
ATOM     21  C   UNL     1       2.320   4.371  17.308  0.00  0.00    +0.000 C 
BRANCH  21  22
ATOM     22  C   UNL     1       1.646   4.323  18.697  0.00  0.00    +0.000 C 
BRANCH  22  23
ATOM     23  C   UNL     1       0.936   2.985  18.987  0.00  0.00    +0.000 C 
BRANCH  23  24
ATOM     24  O   UNL     1       1.335   2.020  18.008  0.00  0.00    +0.000 OA
ATOM     25  H   UNL     1       1.615   2.503  17.210  0.00  0.00    +0.000 HD
ENDBRANCH  23  24
BRANCH  23  26
ATOM     26  C   UNL     1       1.269   2.401  20.376  0.00  0.00    +0.000 C 
BRANCH  26  27
ATOM     27  C   UNL     1       2.494   3.031  21.057  0.00  0.00    +0.000 C 
BRANCH  27  28
ATOM     28  O   UNL     1       2.180   3.306  22.429  0.00  0.00    +0.000 OA
ATOM     29  H   UNL     1       1.623   2.586  22.776  0.00  0.00    +0.000 HD
ENDBRANCH  27  28
BRANCH  27  30
ATOM     30  C   UNL     1       3.732   2.131  21.024  0.00  0.00    +0.000 C 
BRANCH  30  31
ATOM     31  C   UNL     1       4.364   2.087  19.647  0.00  0.00    +0.000 C 
ATOM     32  O   UNL     1       4.006   1.350  18.743  0.00  0.00    +0.000 OA
BRANCH  31  33
ATOM     33  O   UNL     1       5.374   2.964  19.513  0.00  0.00    +0.000 OA
ATOM     34  H   UNL     1       5.111   3.867  19.270  0.00  0.00    +0.000 HD
ENDBRANCH  31  33
ENDBRANCH  30  31
ENDBRANCH  27  30
ENDBRANCH  26  27
ENDBRANCH  23  26
ENDBRANCH  22  23
ENDBRANCH  21  22
ENDBRANCH   2  21
TORSDOF 13
ENDMDL
MODEL 8
REMARK VINA RESULT:      -6.7      3.081      4.937
REMARK  Name = 
REMARK  15 active torsions:
REMARK  status: ('A' for Active; 'I' for Inactive)
REMARK    1  A    between atoms: C_1  and  C_2
REMARK    2  A    between atoms: C_2  and  N_3
REMARK    3  A    between atoms: C_4  and  C_5
REMARK    4  A    between atoms: C_5  and  C_6
REMARK    5  A    between atoms: C_6  and  C_7
REMARK    6  A    between atoms: C_7  and  O_8
REMARK    7  A    between atoms: C_7  and  C_9
REMARK    8  A    between atoms: C_9  and  C_10
REMARK    9  A    between atoms: C_10  and  O_11
REMARK   10  A    between atoms: C_10  and  C_12
REMARK   11  A    between atoms: C_12  and  C_13
REMARK   12  A    between atoms: C_13  and  O_15
REMARK   13  A    between atoms: C_16  and  C_17
REMARK   14  A    between atoms: C_24  and  C_25
REMARK   15  A    between atoms: C_26  and  C_27
REMARK                            x       y       z     vdW  Elec       q    Type
REMARK                         _______ _______ _______ _____ _____    ______ ____
ROOT
ATOM      1  N   UNL     1       3.395   6.154  18.196  0.00  0.00    +0.000 N 
ATOM      2  C   UNL     1       2.660   7.215  18.722  0.00  0.00    +0.000 A 
ATOM      3  C   UNL     1       2.121   6.771  19.935  0.00  0.00    +0.000 A 
ATOM      4  C   UNL     1       2.476   5.379  20.085  0.00  0.00    +0.000 A 
ATOM      5  C   UNL     1       2.025   4.464  21.182  0.00  0.00    +0.000 C 
ATOM      6  C   UNL     1       3.287   5.022  19.006  0.00  0.00    +0.000 A 
ENDROOT
BRANCH   3   7
ATOM      7  C   UNL     1       1.384   7.627  20.883  0.00  0.00    +0.000 A 
ATOM      8  C   UNL     1      -0.013   7.597  20.974  0.00  0.00    +0.000 A 
ATOM      9  C   UNL     1      -0.717   8.492  21.781  0.00  0.00    +0.000 A 
ATOM     10  C   UNL     1      -0.014   9.377  22.578  0.00  0.00    +0.000 A 
ATOM     11  F   UNL     1      -0.681  10.234  23.360  0.00  0.00    +0.000 F 
ATOM     12  C   UNL     1       1.373   9.387  22.572  0.00  0.00    +0.000 A 
ATOM     13  C   UNL     1       2.068   8.533  21.708  0.00  0.00    +0.000 A 
ENDBRANCH   3   7
BRANCH   6  14
ATOM     14  C   UNL     1       3.911   3.736  18.691  0.00  0.00    +0.000 C 
ATOM     15  N   UNL     1       5.145   3.484  19.221  0.00  0.00    +0.000 N 
ATOM     16  O   UNL     1       3.425   2.882  17.954  0.00  0.00    +0.000 OA
ATOM     17  H   UNL     1       5.713   4.201  19.632  0.00  0.00    +0.000 HD
ATOM     18  H   UNL     1       5.593   2.629  18.923  0.00  0.00    +0.000 HD
ENDBRANCH   6  14
BRANCH   1  20
ATOM     19  C   UNL     1       5.686   6.696  17.367  0.00  0.00    +0.000 C 
ATOM     20  C   UNL     1       4.280   6.226  17.034  0.00  0.00    +0.000 C 
ENDBRANCH   1  20
BRANCH   2  21
ATOM     21  C   UNL     1       2.603   8.599  18.069  0.00  0.00    +0.000 C 
BRANCH  21  22
ATOM     22  C   UNL     1       1.171   9.149  17.887  0.00  0.00    +0.000 C 
BRANCH  22  23
ATOM     23  C   UNL     1       0.886  10.407  18.733  0.00  0.00    +0.000 C 
BRANCH  23  24
ATOM     24  O   UNL     1       1.509  11.538  18.116  0.00  0.00    +0.000 OA
ATOM     25  H   UNL     1       2.473  11.430  18.198  0.00  0.00    +0.000 HD
ENDBRANCH  23  24
BRANCH  23  26
ATOM     26  C   UNL     1      -0.617  10.725  18.875  0.00  0.00    +0.000 C 
BRANCH  26  27
ATOM     27  C   UNL     1      -1.492  10.209  17.721  0.00  0.00    +0.000 C 
BRANCH  27  28
ATOM     28  O   UNL     1      -2.560   9.419  18.258  0.00  0.00    +0.000 OA
ATOM     29  H   UNL     1      -3.312  10.002  18.464  0.00  0.00    +0.000 HD
ENDBRANCH  27  28
BRANCH  27  30
ATOM     30  C   UNL     1      -2.106  11.333  16.882  0.00  0.00    +0.000 C 
BRANCH  30  31
ATOM     31  C   UNL     1      -2.869  10.796  15.688  0.00  0.00    +0.000 C 
ATOM     32  O   UNL     1      -2.774   9.659  15.258  0.00  0.00    +0.000 OA
BRANCH  31  33
ATOM     33  O   UNL     1      -3.687  11.714  15.142  0.00  0.00    +0.000 OA
ATOM     34  H   UNL     1      -3.311  12.604  15.052  0.00  0.00    +0.000 HD
ENDBRANCH  31  33
ENDBRANCH  30  31
ENDBRANCH  27  30
ENDBRANCH  26  27
ENDBRANCH  23  26
ENDBRANCH  22  23
ENDBRANCH  21  22
ENDBRANCH   2  21
TORSDOF 13
ENDMDL
MODEL 9
REMARK VINA RESULT:      -6.7      2.055      2.352
REMARK  Name = 
REMARK  15 active torsions:
REMARK  status: ('A' for Active; 'I' for Inactive)
REMARK    1  A    between atoms: C_1  and  C_2
REMARK    2  A    between atoms: C_2  and  N_3
REMARK    3  A    between atoms: C_4  and  C_5
REMARK    4  A    between atoms: C_5  and  C_6
REMARK    5  A    between atoms: C_6  and  C_7
REMARK    6  A    between atoms: C_7  and  O_8
REMARK    7  A    between atoms: C_7  and  C_9
REMARK    8  A    between atoms: C_9  and  C_10
REMARK    9  A    between atoms: C_10  and  O_11
REMARK   10  A    between atoms: C_10  and  C_12
REMARK   11  A    between atoms: C_12  and  C_13
REMARK   12  A    between atoms: C_13  and  O_15
REMARK   13  A    between atoms: C_16  and  C_17
REMARK   14  A    between atoms: C_24  and  C_25
REMARK   15  A    between atoms: C_26  and  C_27
REMARK                            x       y       z     vdW  Elec       q    Type
REMARK                         _______ _______ _______ _____ _____    ______ ____
ROOT
ATOM      1  N   UNL     1       4.841   5.830  17.117  0.00  0.00    +0.000 N 
ATOM      2  C   UNL     1       3.968   5.690  18.194  0.00  0.00    +0.000 A 
ATOM      3  C   UNL     1       3.650   4.329  18.282  0.00  0.00    +0.000 A 
ATOM      4  C   UNL     1       4.283   3.663  17.168  0.00  0.00    +0.000 A 
ATOM      5  C   UNL     1       4.131   2.218  16.799  0.00  0.00    +0.000 C 
ATOM      6  C   UNL     1       5.037   4.608  16.471  0.00  0.00    +0.000 A 
ENDROOT
BRANCH   3   7
ATOM      7  C   UNL     1       2.857   3.727  19.369  0.00  0.00    +0.000 A 
ATOM      8  C   UNL     1       1.459   3.795  19.390  0.00  0.00    +0.000 A 
ATOM      9  C   UNL     1       0.716   3.334  20.478  0.00  0.00    +0.000 A 
ATOM     10  C   UNL     1       1.371   2.715  21.527  0.00  0.00    +0.000 A 
ATOM     11  F   UNL     1       0.665   2.264  22.572  0.00  0.00    +0.000 F 
ATOM     12  C   UNL     1       2.749   2.562  21.510  0.00  0.00    +0.000 A 
ATOM     13  C   UNL     1       3.491   3.089  20.447  0.00  0.00    +0.000 A 
ENDBRANCH   3   7
BRANCH   6  14
ATOM     14  C   UNL     1       5.867   4.445  15.276  0.00  0.00    +0.000 C 
ATOM     15  N   UNL     1       7.222   4.453  15.440  0.00  0.00    +0.000 N 
ATOM     16  O   UNL     1       5.434   4.340  14.131  0.00  0.00    +0.000 OA
ATOM     17  H   UNL     1       7.663   4.764  16.286  0.00  0.00    +0.000 HD
ATOM     18  H   UNL     1       7.775   4.425  14.595  0.00  0.00    +0.000 HD
ENDBRANCH   6  14
BRANCH   1  20
ATOM     19  C   UNL     1       6.893   7.196  17.513  0.00  0.00    +0.000 C 
ATOM     20  C   UNL     1       5.576   7.046  16.770  0.00  0.00    +0.000 C 
ENDBRANCH   1  20
BRANCH   2  21
ATOM     21  C   UNL     1       3.578   6.852  19.112  0.00  0.00    +0.000 C 
BRANCH  21  22
ATOM     22  C   UNL     1       2.163   7.414  18.847  0.00  0.00    +0.000 C 
BRANCH  22  23
ATOM     23  C   UNL     1       2.162   8.897  18.428  0.00  0.00    +0.000 C 
BRANCH  23  24
ATOM     24  O   UNL     1       2.471   8.991  17.033  0.00  0.00    +0.000 OA
ATOM     25  H   UNL     1       3.271   9.539  16.941  0.00  0.00    +0.000 HD
ENDBRANCH  23  24
BRANCH  23  26
ATOM     26  C   UNL     1       0.806   9.598  18.650  0.00  0.00    +0.000 C 
BRANCH  26  27
ATOM     27  C   UNL     1       0.908  11.082  19.037  0.00  0.00    +0.000 C 
BRANCH  27  28
ATOM     28  O   UNL     1       1.577  11.796  17.989  0.00  0.00    +0.000 OA
ATOM     29  H   UNL     1       1.330  11.405  17.132  0.00  0.00    +0.000 HD
ENDBRANCH  27  28
BRANCH  27  30
ATOM     30  C   UNL     1      -0.455  11.740  19.267  0.00  0.00    +0.000 C 
BRANCH  30  31
ATOM     31  C   UNL     1      -0.690  12.902  18.323  0.00  0.00    +0.000 C 
ATOM     32  O   UNL     1      -0.338  14.051  18.536  0.00  0.00    +0.000 OA
BRANCH  31  33
ATOM     33  O   UNL     1      -1.331  12.535  17.200  0.00  0.00    +0.000 OA
ATOM     34  H   UNL     1      -0.844  11.922  16.625  0.00  0.00    +0.000 HD
ENDBRANCH  31  33
ENDBRANCH  30  31
ENDBRANCH  27  30
ENDBRANCH  26  27
ENDBRANCH  23  26
ENDBRANCH  22  23
ENDBRANCH  21  22
ENDBRANCH   2  21
TORSDOF 13
ENDMDL
