MODEL 1
REMARK VINA RESULT:      -7.9      0.000      0.000
REMARK  Name = 
REMARK  5 active torsions:
REMARK  status: ('A' for Active; 'I' for Inactive)
REMARK    1  A    between atoms: C_1  and  C_2
REMARK    2  A    between atoms: C_2  and  C_3
REMARK    3  A    between atoms: C_3  and  N_4
REMARK    4  A    between atoms: C_11  and  C_12
REMARK    5  A    between atoms: C_11  and  C_13
REMARK                            x       y       z     vdW  Elec       q    Type
REMARK                         _______ _______ _______ _____ _____    ______ ____
ROOT
ATOM      1  N   UNL     1       2.462   2.465  17.479  0.00  0.00    +0.000 N 
ATOM      2  C   UNL     1       3.616   3.117  17.764  0.00  0.00    +0.000 C 
ATOM      3  N   UNL     1       4.121   3.306  18.928  0.00  0.00    +0.000 NA
ATOM      4  C   UNL     1       5.113   4.219  18.652  0.00  0.00    +0.000 C 
ATOM      5  O   UNL     1       5.308   5.128  19.440  0.00  0.00    +0.000 OA
ATOM      6  C   UNL     1       5.797   3.888  17.154  0.00  0.00    +0.000 C 
ATOM      7  C   UNL     1       6.989   4.720  17.736  0.00  0.00    +0.000 C 
ATOM      8  C   UNL     1       7.048   6.250  17.458  0.00  0.00    +0.000 C 
ATOM      9  C   UNL     1       5.783   7.123  17.542  0.00  0.00    +0.000 C 
ATOM     10  C   UNL     1       8.127   6.877  18.356  0.00  0.00    +0.000 C 
ATOM     11  O   UNL     1       7.507   6.407  16.122  0.00  0.00    +0.000 OA
ATOM     12  C   UNL     1       6.953   5.494  15.270  0.00  0.00    +0.000 A 
ATOM     13  C   UNL     1       7.382   5.702  13.948  0.00  0.00    +0.000 A 
ATOM     14  C   UNL     1       7.060   4.803  12.947  0.00  0.00    +0.000 A 
ATOM     15  C   UNL     1       6.302   3.688  13.281  0.00  0.00    +0.000 A 
ATOM     16 BR   UNL     1       5.905   2.414  11.942  0.00  0.00    +0.000 Br
ATOM     17  C   UNL     1       5.871   3.477  14.602  0.00  0.00    +0.000 A 
ATOM     18  C   UNL     1       6.159   4.385  15.664  0.00  0.00    +0.000 A 
ATOM     19  N   UNL     1       4.325   3.717  16.765  0.00  0.00    +0.000 N 
ATOM     20  H   UNL     1       2.598   1.710  16.820  0.00  0.00    +0.000 HD
ATOM     21  H   UNL     1       3.878   4.589  16.482  0.00  0.00    +0.000 HD
ENDROOT
BRANCH   1  22
ATOM     22  C   UNL     1       1.587   2.098  18.604  0.00  0.00    +0.000 C 
BRANCH  22  24
ATOM     23  C   UNL     1       1.000   3.643  20.556  0.00  0.00    +0.000 C 
ATOM     24  C   UNL     1       0.732   3.262  19.110  0.00  0.00    +0.000 C 
ENDBRANCH  22  24
ENDBRANCH   1  22
TORSDOF 2
ENDMDL
MODEL 2
REMARK VINA RESULT:      -7.4      2.575      5.484
REMARK  Name = 
REMARK  5 active torsions:
REMARK  status: ('A' for Active; 'I' for Inactive)
REMARK    1  A    between atoms: C_1  and  C_2
REMARK    2  A    between atoms: C_2  and  C_3
REMARK    3  A    between atoms: C_3  and  N_4
REMARK    4  A    between atoms: C_11  and  C_12
REMARK    5  A    between atoms: C_11  and  C_13
REMARK                            x       y       z     vdW  Elec       q    Type
REMARK                         _______ _______ _______ _____ _____    ______ ____
ROOT
ATOM      1  N   UNL     1       4.802   3.410  13.336  0.00  0.00    +0.000 N 
ATOM      2  C   UNL     1       5.330   4.227  14.280  0.00  0.00    +0.000 C 
ATOM      3  N   UNL     1       6.106   5.228  14.080  0.00  0.00    +0.000 NA
ATOM      4  C   UNL     1       6.527   5.510  15.358  0.00  0.00    +0.000 C 
ATOM      5  O   UNL     1       7.689   5.830  15.536  0.00  0.00    +0.000 OA
ATOM      6  C   UNL     1       5.276   5.239  16.447  0.00  0.00    +0.000 C 
ATOM      7  C   UNL     1       6.119   6.203  17.350  0.00  0.00    +0.000 C 
ATOM      8  C   UNL     1       7.153   5.595  18.341  0.00  0.00    +0.000 C 
ATOM      9  C   UNL     1       8.065   4.427  17.923  0.00  0.00    +0.000 C 
ATOM     10  C   UNL     1       8.038   6.725  18.891  0.00  0.00    +0.000 C 
ATOM     11  O   UNL     1       6.415   5.097  19.450  0.00  0.00    +0.000 OA
ATOM     12  C   UNL     1       5.261   4.474  19.070  0.00  0.00    +0.000 A 
ATOM     13  C   UNL     1       4.576   3.946  20.178  0.00  0.00    +0.000 A 
ATOM     14  C   UNL     1       3.311   3.404  20.038  0.00  0.00    +0.000 A 
ATOM     15  C   UNL     1       2.734   3.393  18.775  0.00  0.00    +0.000 A 
ATOM     16 BR   UNL     1       0.981   2.715  18.573  0.00  0.00    +0.000 Br
ATOM     17  C   UNL     1       3.415   3.920  17.665  0.00  0.00    +0.000 A 
ATOM     18  C   UNL     1       4.728   4.470  17.753  0.00  0.00    +0.000 A 
ATOM     19  N   UNL     1       5.109   3.972  15.603  0.00  0.00    +0.000 N 
ATOM     20  H   UNL     1       3.792   3.363  13.387  0.00  0.00    +0.000 HD
ATOM     21  H   UNL     1       5.689   3.196  15.919  0.00  0.00    +0.000 HD
ENDROOT
BRANCH   1  22
ATOM     22  C   UNL     1       5.304   3.542  11.959  0.00  0.00    +0.000 C 
BRANCH  22  24
ATOM     23  C   UNL     1       3.358   3.804  10.320  0.00  0.00    +0.000 C 
ATOM     24  C   UNL     1       4.400   2.876  10.919  0.00  0.00    +0.000 C 
ENDBRANCH  22  24
ENDBRANCH   1  22
TORSDOF 2
ENDMDL
MODEL 3
REMARK VINA RESULT:      -7.4      2.441      5.569
REMARK  Name = 
REMARK  5 active torsions:
REMARK  status: ('A' for Active; 'I' for Inactive)
REMARK    1  A    between atoms: C_1  and  C_2
REMARK    2  A    between atoms: C_2  and  C_3
REMARK    3  A    between atoms: C_3  and  N_4
REMARK    4  A    between atoms: C_11  and  C_12
REMARK    5  A    between atoms: C_11  and  C_13
REMARK                            x       y       z     vdW  Elec       q    Type
REMARK                         _______ _______ _______ _____ _____    ______ ____
ROOT
ATOM      1  N   UNL     1       4.991   3.295  13.270  0.00  0.00    +0.000 N 
ATOM      2  C   UNL     1       5.468   4.139  14.216  0.00  0.00    +0.000 C 
ATOM      3  N   UNL     1       6.216   5.163  14.023  0.00  0.00    +0.000 NA
ATOM      4  C   UNL     1       6.594   5.474  15.309  0.00  0.00    +0.000 C 
ATOM      5  O   UNL     1       7.740   5.834  15.512  0.00  0.00    +0.000 OA
ATOM      6  C   UNL     1       5.325   5.176  16.368  0.00  0.00    +0.000 C 
ATOM      7  C   UNL     1       6.112   6.177  17.280  0.00  0.00    +0.000 C 
ATOM      8  C   UNL     1       7.139   5.615  18.305  0.00  0.00    +0.000 C 
ATOM      9  C   UNL     1       8.099   4.473  17.926  0.00  0.00    +0.000 C 
ATOM     10  C   UNL     1       7.972   6.780  18.863  0.00  0.00    +0.000 C 
ATOM     11  O   UNL     1       6.389   5.107  19.401  0.00  0.00    +0.000 OA
ATOM     12  C   UNL     1       5.265   4.442  18.999  0.00  0.00    +0.000 A 
ATOM     13  C   UNL     1       4.569   3.905  20.096  0.00  0.00    +0.000 A 
ATOM     14  C   UNL     1       3.326   3.320  19.931  0.00  0.00    +0.000 A 
ATOM     15  C   UNL     1       2.783   3.276  18.654  0.00  0.00    +0.000 A 
ATOM     16 BR   UNL     1       1.059   2.538  18.415  0.00  0.00    +0.000 Br
ATOM     17  C   UNL     1       3.476   3.811  17.554  0.00  0.00    +0.000 A 
ATOM     18  C   UNL     1       4.768   4.405  17.670  0.00  0.00    +0.000 A 
ATOM     19  N   UNL     1       5.221   3.894  15.536  0.00  0.00    +0.000 N 
ATOM     20  H   UNL     1       3.983   3.215  13.295  0.00  0.00    +0.000 HD
ATOM     21  H   UNL     1       5.818   3.141  15.877  0.00  0.00    +0.000 HD
ENDROOT
BRANCH   1  22
ATOM     22  C   UNL     1       5.525   3.426  11.904  0.00  0.00    +0.000 C 
BRANCH  22  24
ATOM     23  C   UNL     1       6.231   1.094  11.126  0.00  0.00    +0.000 C 
ATOM     24  C   UNL     1       6.677   2.463  11.610  0.00  0.00    +0.000 C 
ENDBRANCH  22  24
ENDBRANCH   1  22
TORSDOF 2
ENDMDL
MODEL 4
REMARK VINA RESULT:      -6.5      9.287     11.142
REMARK  Name = 
REMARK  5 active torsions:
REMARK  status: ('A' for Active; 'I' for Inactive)
REMARK    1  A    between atoms: C_1  and  C_2
REMARK    2  A    between atoms: C_2  and  C_3
REMARK    3  A    between atoms: C_3  and  N_4
REMARK    4  A    between atoms: C_11  and  C_12
REMARK    5  A    between atoms: C_11  and  C_13
REMARK                            x       y       z     vdW  Elec       q    Type
REMARK                         _______ _______ _______ _____ _____    ______ ____
ROOT
ATOM      1  N   UNL     1       4.956  14.814  17.616  0.00  0.00    +0.000 N 
ATOM      2  C   UNL     1       6.145  15.289  18.059  0.00  0.00    +0.000 C 
ATOM      3  N   UNL     1       6.355  16.421  18.626  0.00  0.00    +0.000 NA
ATOM      4  C   UNL     1       7.729  16.482  18.619  0.00  0.00    +0.000 C 
ATOM      5  O   UNL     1       8.266  17.549  18.384  0.00  0.00    +0.000 OA
ATOM      6  C   UNL     1       8.373  14.949  18.864  0.00  0.00    +0.000 C 
ATOM      7  C   UNL     1       9.634  15.767  19.303  0.00  0.00    +0.000 C 
ATOM      8  C   UNL     1      10.729  16.091  18.245  0.00  0.00    +0.000 C 
ATOM      9  C   UNL     1      10.352  16.540  16.822  0.00  0.00    +0.000 C 
ATOM     10  C   UNL     1      11.700  17.125  18.836  0.00  0.00    +0.000 C 
ATOM     11  O   UNL     1      11.485  14.901  18.059  0.00  0.00    +0.000 OA
ATOM     12  C   UNL     1      10.699  13.784  18.032  0.00  0.00    +0.000 A 
ATOM     13  C   UNL     1      11.463  12.627  17.795  0.00  0.00    +0.000 A 
ATOM     14  C   UNL     1      10.890  11.370  17.875  0.00  0.00    +0.000 A 
ATOM     15  C   UNL     1       9.542  11.279  18.194  0.00  0.00    +0.000 A 
ATOM     16 BR   UNL     1       8.756   9.569  18.370  0.00  0.00    +0.000 Br
ATOM     17  C   UNL     1       8.775  12.433  18.431  0.00  0.00    +0.000 A 
ATOM     18  C   UNL     1       9.314  13.750  18.340  0.00  0.00    +0.000 A 
ATOM     19  N   UNL     1       7.287  14.571  17.851  0.00  0.00    +0.000 N 
ATOM     20  H   UNL     1       4.727  13.913  18.015  0.00  0.00    +0.000 HD
ATOM     21  H   UNL     1       7.591  14.656  16.882  0.00  0.00    +0.000 HD
ENDROOT
BRANCH   1  22
ATOM     22  C   UNL     1       3.814  15.741  17.593  0.00  0.00    +0.000 C 
BRANCH  22  24
ATOM     23  C   UNL     1       2.528  13.622  18.223  0.00  0.00    +0.000 C 
ATOM     24  C   UNL     1       2.534  15.140  18.176  0.00  0.00    +0.000 C 
ENDBRANCH  22  24
ENDBRANCH   1  22
TORSDOF 2
ENDMDL
MODEL 5
REMARK VINA RESULT:      -6.4      3.917      5.631
REMARK  Name = 
REMARK  5 active torsions:
REMARK  status: ('A' for Active; 'I' for Inactive)
REMARK    1  A    between atoms: C_1  and  C_2
REMARK    2  A    between atoms: C_2  and  C_3
REMARK    3  A    between atoms: C_3  and  N_4
REMARK    4  A    between atoms: C_11  and  C_12
REMARK    5  A    between atoms: C_11  and  C_13
REMARK                            x       y       z     vdW  Elec       q    Type
REMARK                         _______ _______ _______ _____ _____    ______ ____
ROOT
ATOM      1  N   UNL     1       1.815   8.444  18.268  0.00  0.00    +0.000 N 
ATOM      2  C   UNL     1       2.929   7.750  17.930  0.00  0.00    +0.000 C 
ATOM      3  N   UNL     1       4.032   8.236  17.492  0.00  0.00    +0.000 NA
ATOM      4  C   UNL     1       4.688   7.101  17.078  0.00  0.00    +0.000 C 
ATOM      5  O   UNL     1       5.338   7.142  16.048  0.00  0.00    +0.000 OA
ATOM      6  C   UNL     1       4.339   5.825  18.114  0.00  0.00    +0.000 C 
ATOM      7  C   UNL     1       5.665   5.241  17.521  0.00  0.00    +0.000 C 
ATOM      8  C   UNL     1       5.587   4.298  16.285  0.00  0.00    +0.000 C 
ATOM      9  C   UNL     1       4.643   4.604  15.109  0.00  0.00    +0.000 C 
ATOM     10  C   UNL     1       7.004   4.093  15.726  0.00  0.00    +0.000 C 
ATOM     11  O   UNL     1       5.165   3.027  16.765  0.00  0.00    +0.000 OA
ATOM     12  C   UNL     1       4.190   3.127  17.715  0.00  0.00    +0.000 A 
ATOM     13  C   UNL     1       3.753   1.858  18.135  0.00  0.00    +0.000 A 
ATOM     14  C   UNL     1       2.876   1.725  19.197  0.00  0.00    +0.000 A 
ATOM     15  C   UNL     1       2.437   2.875  19.838  0.00  0.00    +0.000 A 
ATOM     16 BR   UNL     1       1.288   2.712  21.330  0.00  0.00    +0.000 Br
ATOM     17  C   UNL     1       2.870   4.145  19.421  0.00  0.00    +0.000 A 
ATOM     18  C   UNL     1       3.756   4.337  18.319  0.00  0.00    +0.000 A 
ATOM     19  N   UNL     1       2.920   6.385  17.970  0.00  0.00    +0.000 N 
ATOM     20  H   UNL     1       1.512   8.252  19.214  0.00  0.00    +0.000 HD
ATOM     21  H   UNL     1       2.416   6.007  17.169  0.00  0.00    +0.000 HD
ENDROOT
BRANCH   1  22
ATOM     22  C   UNL     1       1.771   9.875  17.928  0.00  0.00    +0.000 C 
BRANCH  22  24
ATOM     23  C   UNL     1      -0.729  10.286  18.279  0.00  0.00    +0.000 C 
ATOM     24  C   UNL     1       0.689  10.645  18.688  0.00  0.00    +0.000 C 
ENDBRANCH  22  24
ENDBRANCH   1  22
TORSDOF 2
ENDMDL
MODEL 6
REMARK VINA RESULT:      -6.4      3.660      5.296
REMARK  Name = 
REMARK  5 active torsions:
REMARK  status: ('A' for Active; 'I' for Inactive)
REMARK    1  A    between atoms: C_1  and  C_2
REMARK    2  A    between atoms: C_2  and  C_3
REMARK    3  A    between atoms: C_3  and  N_4
REMARK    4  A    between atoms: C_11  and  C_12
REMARK    5  A    between atoms: C_11  and  C_13
REMARK                            x       y       z     vdW  Elec       q    Type
REMARK                         _______ _______ _______ _____ _____    ______ ____
ROOT
ATOM      1  N   UNL     1       1.967   8.001  20.888  0.00  0.00    +0.000 N 
ATOM      2  C   UNL     1       2.091   6.829  20.219  0.00  0.00    +0.000 C 
ATOM      3  N   UNL     1       1.150   6.005  19.935  0.00  0.00    +0.000 NA
ATOM      4  C   UNL     1       1.863   4.911  19.504  0.00  0.00    +0.000 C 
ATOM      5  O   UNL     1       1.479   3.799  19.821  0.00  0.00    +0.000 OA
ATOM      6  C   UNL     1       3.230   5.410  18.665  0.00  0.00    +0.000 C 
ATOM      7  C   UNL     1       3.148   3.965  18.066  0.00  0.00    +0.000 C 
ATOM      8  C   UNL     1       3.949   2.820  18.750  0.00  0.00    +0.000 C 
ATOM      9  C   UNL     1       4.002   2.689  20.282  0.00  0.00    +0.000 C 
ATOM     10  C   UNL     1       3.487   1.475  18.166  0.00  0.00    +0.000 C 
ATOM     11  O   UNL     1       5.306   2.975  18.354  0.00  0.00    +0.000 OA
ATOM     12  C   UNL     1       5.698   4.284  18.343  0.00  0.00    +0.000 A 
ATOM     13  C   UNL     1       7.056   4.408  18.000  0.00  0.00    +0.000 A 
ATOM     14  C   UNL     1       7.623   5.651  17.785  0.00  0.00    +0.000 A 
ATOM     15  C   UNL     1       6.818   6.775  17.917  0.00  0.00    +0.000 A 
ATOM     16 BR   UNL     1       7.557   8.479  17.566  0.00  0.00    +0.000 Br
ATOM     17  C   UNL     1       5.460   6.655  18.260  0.00  0.00    +0.000 A 
ATOM     18  C   UNL     1       4.835   5.398  18.513  0.00  0.00    +0.000 A 
ATOM     19  N   UNL     1       3.326   6.387  19.841  0.00  0.00    +0.000 N 
ATOM     20  H   UNL     1       2.332   8.786  20.364  0.00  0.00    +0.000 HD
ATOM     21  H   UNL     1       3.830   6.008  20.641  0.00  0.00    +0.000 HD
ENDROOT
BRANCH   1  22
ATOM     22  C   UNL     1       0.674   8.288  21.531  0.00  0.00    +0.000 C 
BRANCH  22  24
ATOM     23  C   UNL     1      -0.553   9.898  23.094  0.00  0.00    +0.000 C 
ATOM     24  C   UNL     1       0.778   9.302  22.672  0.00  0.00    +0.000 C 
ENDBRANCH  22  24
ENDBRANCH   1  22
TORSDOF 2
ENDMDL
MODEL 7
REMARK VINA RESULT:      -6.3      9.390     11.644
REMARK  Name = 
REMARK  5 active torsions:
REMARK  status: ('A' for Active; 'I' for Inactive)
REMARK    1  A    between atoms: C_1  and  C_2
REMARK    2  A    between atoms: C_2  and  C_3
REMARK    3  A    between atoms: C_3  and  N_4
REMARK    4  A    between atoms: C_11  and  C_12
REMARK    5  A    between atoms: C_11  and  C_13
REMARK                            x       y       z     vdW  Elec       q    Type
REMARK                         _______ _______ _______ _____ _____    ______ ____
ROOT
ATOM      1  N   UNL     1       0.490   9.854  17.972  0.00  0.00    +0.000 N 
ATOM      2  C   UNL     1       0.299  10.814  18.909  0.00  0.00    +0.000 C 
ATOM      3  N   UNL     1       1.207  11.506  19.493  0.00  0.00    +0.000 NA
ATOM      4  C   UNL     1       0.489  12.111  20.498  0.00  0.00    +0.000 C 
ATOM      5  O   UNL     1       1.001  12.226  21.598  0.00  0.00    +0.000 OA
ATOM      6  C   UNL     1      -1.055  12.489  19.952  0.00  0.00    +0.000 C 
ATOM      7  C   UNL     1      -1.012  13.505  21.143  0.00  0.00    +0.000 C 
ATOM      8  C   UNL     1      -1.575  13.069  22.526  0.00  0.00    +0.000 C 
ATOM      9  C   UNL     1      -1.291  11.669  23.096  0.00  0.00    +0.000 C 
ATOM     10  C   UNL     1      -1.166  14.111  23.580  0.00  0.00    +0.000 C 
ATOM     11  O   UNL     1      -2.993  13.140  22.433  0.00  0.00    +0.000 OA
ATOM     12  C   UNL     1      -3.459  12.677  21.236  0.00  0.00    +0.000 A 
ATOM     13  C   UNL     1      -4.864  12.708  21.187  0.00  0.00    +0.000 A 
ATOM     14  C   UNL     1      -5.540  12.424  20.015  0.00  0.00    +0.000 A 
ATOM     15  C   UNL     1      -4.797  12.105  18.886  0.00  0.00    +0.000 A 
ATOM     16 BR   UNL     1      -5.699  11.775  17.258  0.00  0.00    +0.000 Br
ATOM     17  C   UNL     1      -3.393  12.073  18.930  0.00  0.00    +0.000 A 
ATOM     18  C   UNL     1      -2.651  12.338  20.119  0.00  0.00    +0.000 A 
ATOM     19  N   UNL     1      -0.958  11.074  19.373  0.00  0.00    +0.000 N 
ATOM     20  H   UNL     1      -0.027  10.035  17.121  0.00  0.00    +0.000 HD
ATOM     21  H   UNL     1      -1.255  10.349  20.025  0.00  0.00    +0.000 HD
ENDROOT
BRANCH   1  22
ATOM     22  C   UNL     1       1.869   9.404  17.724  0.00  0.00    +0.000 C 
BRANCH  22  24
ATOM     23  C   UNL     1       3.359   7.326  17.785  0.00  0.00    +0.000 C 
ATOM     24  C   UNL     1       2.213   8.090  18.426  0.00  0.00    +0.000 C 
ENDBRANCH  22  24
ENDBRANCH   1  22
TORSDOF 2
ENDMDL
MODEL 8
REMARK VINA RESULT:      -6.2      3.378      6.522
REMARK  Name = 
REMARK  5 active torsions:
REMARK  status: ('A' for Active; 'I' for Inactive)
REMARK    1  A    between atoms: C_1  and  C_2
REMARK    2  A    between atoms: C_2  and  C_3
REMARK    3  A    between atoms: C_3  and  N_4
REMARK    4  A    between atoms: C_11  and  C_12
REMARK    5  A    between atoms: C_11  and  C_13
REMARK                            x       y       z     vdW  Elec       q    Type
REMARK                         _______ _______ _______ _____ _____    ______ ____
ROOT
ATOM      1  N   UNL     1       5.081   5.268  15.273  0.00  0.00    +0.000 N 
ATOM      2  C   UNL     1       4.818   4.886  16.546  0.00  0.00    +0.000 C 
ATOM      3  N   UNL     1       5.376   3.927  17.189  0.00  0.00    +0.000 NA
ATOM      4  C   UNL     1       4.565   3.828  18.295  0.00  0.00    +0.000 C 
ATOM      5  O   UNL     1       4.293   2.721  18.726  0.00  0.00    +0.000 OA
ATOM      6  C   UNL     1       4.039   5.355  18.759  0.00  0.00    +0.000 C 
ATOM      7  C   UNL     1       3.803   4.638  20.132  0.00  0.00    +0.000 C 
ATOM      8  C   UNL     1       2.403   4.031  20.434  0.00  0.00    +0.000 C 
ATOM      9  C   UNL     1       1.624   3.252  19.360  0.00  0.00    +0.000 C 
ATOM     10  C   UNL     1       2.504   3.151  21.690  0.00  0.00    +0.000 C 
ATOM     11  O   UNL     1       1.551   5.116  20.782  0.00  0.00    +0.000 OA
ATOM     12  C   UNL     1       1.757   6.212  19.993  0.00  0.00    +0.000 A 
ATOM     13  C   UNL     1       0.869   7.251  20.320  0.00  0.00    +0.000 A 
ATOM     14  C   UNL     1       1.000   8.504  19.747  0.00  0.00    +0.000 A 
ATOM     15  C   UNL     1       2.030   8.709  18.839  0.00  0.00    +0.000 A 
ATOM     16 BR   UNL     1       2.266  10.429  18.092  0.00  0.00    +0.000 Br
ATOM     17  C   UNL     1       2.920   7.672  18.509  0.00  0.00    +0.000 A 
ATOM     18  C   UNL     1       2.814   6.359  19.056  0.00  0.00    +0.000 A 
ATOM     19  N   UNL     1       3.822   5.498  17.250  0.00  0.00    +0.000 N 
ATOM     20  H   UNL     1       5.332   6.246  15.207  0.00  0.00    +0.000 HD
ATOM     21  H   UNL     1       2.909   5.166  16.940  0.00  0.00    +0.000 HD
ENDROOT
BRANCH   1  22
ATOM     22  C   UNL     1       5.945   4.396  14.461  0.00  0.00    +0.000 C 
BRANCH  22  24
ATOM     23  C   UNL     1       6.180   3.289  12.167  0.00  0.00    +0.000 C 
ATOM     24  C   UNL     1       5.237   3.816  13.234  0.00  0.00    +0.000 C 
ENDBRANCH  22  24
ENDBRANCH   1  22
TORSDOF 2
ENDMDL
MODEL 9
REMARK VINA RESULT:      -6.1      9.749     11.722
REMARK  Name = 
REMARK  5 active torsions:
REMARK  status: ('A' for Active; 'I' for Inactive)
REMARK    1  A    between atoms: C_1  and  C_2
REMARK    2  A    between atoms: C_2  and  C_3
REMARK    3  A    between atoms: C_3  and  N_4
REMARK    4  A    between atoms: C_11  and  C_12
REMARK    5  A    between atoms: C_11  and  C_13
REMARK                            x       y       z     vdW  Elec       q    Type
REMARK                         _______ _______ _______ _____ _____    ______ ____
ROOT
ATOM      1  N   UNL     1       5.228  15.385  18.288  0.00  0.00    +0.000 N 
ATOM      2  C   UNL     1       6.497  15.766  18.574  0.00  0.00    +0.000 C 
ATOM      3  N   UNL     1       6.861  16.863  19.129  0.00  0.00    +0.000 NA
ATOM      4  C   UNL     1       8.222  16.831  18.935  0.00  0.00    +0.000 C 
ATOM      5  O   UNL     1       8.798  17.866  18.650  0.00  0.00    +0.000 OA
ATOM      6  C   UNL     1       8.783  15.252  19.059  0.00  0.00    +0.000 C 
ATOM      7  C   UNL     1      10.147  15.969  19.338  0.00  0.00    +0.000 C 
ATOM      8  C   UNL     1      11.108  16.248  18.147  0.00  0.00    +0.000 C 
ATOM      9  C   UNL     1      10.576  16.763  16.798  0.00  0.00    +0.000 C 
ATOM     10  C   UNL     1      12.222  17.196  18.619  0.00  0.00    +0.000 C 
ATOM     11  O   UNL     1      11.746  15.016  17.836  0.00  0.00    +0.000 OA
ATOM     12  C   UNL     1      10.886  13.956  17.894  0.00  0.00    +0.000 A 
ATOM     13  C   UNL     1      11.526  12.758  17.533  0.00  0.00    +0.000 A 
ATOM     14  C   UNL     1      10.882  11.541  17.665  0.00  0.00    +0.000 A 
ATOM     15  C   UNL     1       9.586  11.532  18.163  0.00  0.00    +0.000 A 
ATOM     16 BR   UNL     1       8.711   9.875  18.412  0.00  0.00    +0.000 Br
ATOM     17  C   UNL     1       8.943  12.727  18.526  0.00  0.00    +0.000 A 
ATOM     18  C   UNL     1       9.556  14.008  18.388  0.00  0.00    +0.000 A 
ATOM     19  N   UNL     1       7.546  14.978  18.197  0.00  0.00    +0.000 N 
ATOM     20  H   UNL     1       4.991  14.491  18.696  0.00  0.00    +0.000 HD
ATOM     21  H   UNL     1       7.722  15.071  17.198  0.00  0.00    +0.000 HD
ENDROOT
BRANCH   1  22
ATOM     22  C   UNL     1       4.162  16.389  18.439  0.00  0.00    +0.000 C 
BRANCH  22  24
ATOM     23  C   UNL     1       2.010  17.357  17.452  0.00  0.00    +0.000 C 
ATOM     24  C   UNL     1       3.194  16.427  17.254  0.00  0.00    +0.000 C 
ENDBRANCH  22  24
ENDBRANCH   1  22
TORSDOF 2
ENDMDL
