MODEL 1
REMARK VINA RESULT:      -8.0      0.000      0.000
REMARK  Name = 
REMARK  16 active torsions:
REMARK  status: ('A' for Active; 'I' for Inactive)
REMARK    1  A    between atoms: C_1  and  C_2
REMARK    2  A    between atoms: C_2  and  C_3
REMARK    3  A    between atoms: C_2  and  C_20
REMARK    4  A    between atoms: C_3  and  C_4
REMARK    5  A    between atoms: C_4  and  C_5
REMARK    6  A    between atoms: C_5  and  C_6
REMARK    7  A    between atoms: C_6  and  C_7
REMARK    8  A    between atoms: C_6  and  C_8
REMARK    9  A    between atoms: C_8  and  O_9
REMARK   10  A    between atoms: O_9  and  C_10
REMARK   11  A    between atoms: C_10  and  C_12
REMARK   12  A    between atoms: C_13  and  C_14
REMARK   13  A    between atoms: C_23  and  C_24
REMARK   14  A    between atoms: C_26  and  O_27
REMARK   15  A    between atoms: C_29  and  C_30
REMARK   16  A    between atoms: C_30  and  O_32
REMARK                            x       y       z     vdW  Elec       q    Type
REMARK                         _______ _______ _______ _____ _____    ______ ____
ROOT
ATOM      1  C   UNL     1       1.683   3.410  21.677  0.00  0.00    +0.000 C 
ATOM      2  C   UNL     1       2.350   4.483  20.812  0.00  0.00    +0.000 C 
ENDROOT
BRANCH   2   3
ATOM      3  C   UNL     1       3.282   3.874  19.750  0.00  0.00    +0.000 C 
ATOM      4  C   UNL     1       3.723   2.396  19.844  0.00  0.00    +0.000 C 
ATOM      5  C   UNL     1       3.586   1.720  18.445  0.00  0.00    +0.000 C 
ATOM      6  C   UNL     1       3.501   2.737  17.269  0.00  0.00    +0.000 C 
ATOM      7  C   UNL     1       2.021   3.145  17.000  0.00  0.00    +0.000 C 
ATOM      8  C   UNL     1       4.519   3.856  17.612  0.00  0.00    +0.000 A 
ATOM      9  C   UNL     1       5.716   4.030  16.909  0.00  0.00    +0.000 A 
ATOM     10  C   UNL     1       6.749   4.795  17.449  0.00  0.00    +0.000 A 
ATOM     11  C   UNL     1       6.616   5.418  18.695  0.00  0.00    +0.000 A 
ATOM     12  C   UNL     1       5.409   5.291  19.424  0.00  0.00    +0.000 A 
ATOM     13  C   UNL     1       4.385   4.491  18.901  0.00  0.00    +0.000 A 
BRANCH   9  14
ATOM     14  O   UNL     1       6.030   3.389  15.748  0.00  0.00    +0.000 OA
ATOM     15  H   UNL     1       6.098   2.435  15.890  0.00  0.00    +0.000 HD
ENDBRANCH   9  14
BRANCH  11  16
ATOM     16  C   UNL     1       7.838   6.024  19.276  0.00  0.00    +0.000 C 
ATOM     17  O   UNL     1       8.370   7.012  18.831  0.00  0.00    +0.000 OA
BRANCH  16  18
ATOM     18  O   UNL     1       8.291   5.368  20.379  0.00  0.00    +0.000 OA
ATOM     19  H   UNL     1       7.655   5.344  21.116  0.00  0.00    +0.000 HD
ENDBRANCH  16  18
ENDBRANCH  11  16
ENDBRANCH   2   3
BRANCH   2  20
ATOM     20  C   UNL     1       1.457   5.663  20.458  0.00  0.00    +0.000 C 
BRANCH  20  21
ATOM     21  C   UNL     1       2.149   7.008  20.453  0.00  0.00    +0.000 C 
BRANCH  21  22
ATOM     22  C   UNL     1       2.293   7.505  19.017  0.00  0.00    +0.000 C 
BRANCH  22  23
ATOM     23  C   UNL     1       1.746   8.923  18.829  0.00  0.00    +0.000 C 
ATOM     24  C   UNL     1       0.748   9.016  17.669  0.00  0.00    +0.000 C 
BRANCH  23  25
ATOM     25  C   UNL     1       1.100   9.388  20.142  0.00  0.00    +0.000 C 
BRANCH  25  26
ATOM     26  O   UNL     1       1.095  10.815  20.244  0.00  0.00    +0.000 OA
BRANCH  26  27
ATOM     27  C   UNL     1       0.002  11.332  20.867  0.00  0.00    +0.000 C 
ATOM     28  O   UNL     1      -0.049  11.737  22.020  0.00  0.00    +0.000 OA
BRANCH  27  29
ATOM     29  C   UNL     1      -1.119  11.305  19.921  0.00  0.00    +0.000 C 
ATOM     30  C   UNL     1      -2.152  12.134  20.128  0.00  0.00    +0.000 C 
BRANCH  30  31
ATOM     31  C   UNL     1      -3.390  12.135  19.339  0.00  0.00    +0.000 A 
ATOM     32  C   UNL     1      -3.353  11.558  18.061  0.00  0.00    +0.000 A 
ATOM     33  C   UNL     1      -4.491  11.550  17.250  0.00  0.00    +0.000 A 
ATOM     34  C   UNL     1      -5.678  12.109  17.715  0.00  0.00    +0.000 A 
ATOM     35  C   UNL     1      -5.734  12.663  18.992  0.00  0.00    +0.000 A 
ATOM     36  C   UNL     1      -4.597  12.670  19.805  0.00  0.00    +0.000 A 
ENDBRANCH  30  31
ENDBRANCH  27  29
ENDBRANCH  26  27
ENDBRANCH  25  26
ENDBRANCH  23  25
ENDBRANCH  22  23
ENDBRANCH  21  22
ENDBRANCH  20  21
ENDBRANCH   2  20
TORSDOF 13
ENDMDL
MODEL 2
REMARK VINA RESULT:      -7.8      2.368      4.324
REMARK  Name = 
REMARK  16 active torsions:
REMARK  status: ('A' for Active; 'I' for Inactive)
REMARK    1  A    between atoms: C_1  and  C_2
REMARK    2  A    between atoms: C_2  and  C_3
REMARK    3  A    between atoms: C_2  and  C_20
REMARK    4  A    between atoms: C_3  and  C_4
REMARK    5  A    between atoms: C_4  and  C_5
REMARK    6  A    between atoms: C_5  and  C_6
REMARK    7  A    between atoms: C_6  and  C_7
REMARK    8  A    between atoms: C_6  and  C_8
REMARK    9  A    between atoms: C_8  and  O_9
REMARK   10  A    between atoms: O_9  and  C_10
REMARK   11  A    between atoms: C_10  and  C_12
REMARK   12  A    between atoms: C_13  and  C_14
REMARK   13  A    between atoms: C_23  and  C_24
REMARK   14  A    between atoms: C_26  and  O_27
REMARK   15  A    between atoms: C_29  and  C_30
REMARK   16  A    between atoms: C_30  and  O_32
REMARK                            x       y       z     vdW  Elec       q    Type
REMARK                         _______ _______ _______ _____ _____    ______ ____
ROOT
ATOM      1  C   UNL     1       2.292   3.992  17.147  0.00  0.00    +0.000 C 
ATOM      2  C   UNL     1       3.731   3.949  17.669  0.00  0.00    +0.000 C 
ENDROOT
BRANCH   2   3
ATOM      3  C   UNL     1       4.701   4.724  16.759  0.00  0.00    +0.000 C 
ATOM      4  C   UNL     1       4.469   6.222  16.457  0.00  0.00    +0.000 C 
ATOM      5  C   UNL     1       5.814   6.999  16.607  0.00  0.00    +0.000 C 
ATOM      6  C   UNL     1       7.070   6.080  16.560  0.00  0.00    +0.000 C 
ATOM      7  C   UNL     1       7.432   5.570  17.988  0.00  0.00    +0.000 C 
ATOM      8  C   UNL     1       6.778   5.029  15.458  0.00  0.00    +0.000 A 
ATOM      9  C   UNL     1       7.442   5.019  14.227  0.00  0.00    +0.000 A 
ATOM     10  C   UNL     1       6.924   4.304  13.149  0.00  0.00    +0.000 A 
ATOM     11  C   UNL     1       5.740   3.569  13.267  0.00  0.00    +0.000 A 
ATOM     12  C   UNL     1       5.053   3.529  14.504  0.00  0.00    +0.000 A 
ATOM     13  C   UNL     1       5.551   4.279  15.578  0.00  0.00    +0.000 A 
BRANCH   9  14
ATOM     14  O   UNL     1       8.535   5.781  13.933  0.00  0.00    +0.000 OA
ATOM     15  H   UNL     1       8.288   6.534  13.379  0.00  0.00    +0.000 HD
ENDBRANCH   9  14
BRANCH  11  16
ATOM     16  C   UNL     1       5.160   3.026  12.016  0.00  0.00    +0.000 C 
ATOM     17  O   UNL     1       5.632   2.093  11.411  0.00  0.00    +0.000 OA
BRANCH  16  18
ATOM     18  O   UNL     1       4.025   3.667  11.625  0.00  0.00    +0.000 OA
ATOM     19  H   UNL     1       3.807   3.550  10.683  0.00  0.00    +0.000 HD
ENDBRANCH  16  18
ENDBRANCH  11  16
ENDBRANCH   2   3
BRANCH   2  20
ATOM     20  C   UNL     1       3.863   4.042  19.182  0.00  0.00    +0.000 C 
BRANCH  20  21
ATOM     21  C   UNL     1       3.877   5.449  19.735  0.00  0.00    +0.000 C 
BRANCH  21  22
ATOM     22  C   UNL     1       2.459   6.015  19.735  0.00  0.00    +0.000 C 
BRANCH  22  23
ATOM     23  C   UNL     1       2.433   7.536  19.558  0.00  0.00    +0.000 C 
ATOM     24  C   UNL     1       1.796   7.958  18.230  0.00  0.00    +0.000 C 
BRANCH  23  25
ATOM     25  C   UNL     1       1.686   8.164  20.745  0.00  0.00    +0.000 C 
BRANCH  25  26
ATOM     26  O   UNL     1       0.490   8.822  20.318  0.00  0.00    +0.000 OA
BRANCH  26  27
ATOM     27  C   UNL     1       0.526  10.177  20.416  0.00  0.00    +0.000 C 
ATOM     28  O   UNL     1       1.166  10.827  21.233  0.00  0.00    +0.000 OA
BRANCH  27  29
ATOM     29  C   UNL     1      -0.352  10.735  19.382  0.00  0.00    +0.000 C 
ATOM     30  C   UNL     1      -1.438  10.038  19.018  0.00  0.00    +0.000 C 
BRANCH  30  31
ATOM     31  C   UNL     1      -2.338  10.411  17.920  0.00  0.00    +0.000 A 
ATOM     32  C   UNL     1      -2.056   9.910  16.641  0.00  0.00    +0.000 A 
ATOM     33  C   UNL     1      -2.859  10.248  15.550  0.00  0.00    +0.000 A 
ATOM     34  C   UNL     1      -3.960  11.081  15.731  0.00  0.00    +0.000 A 
ATOM     35  C   UNL     1      -4.266  11.565  17.001  0.00  0.00    +0.000 A 
ATOM     36  C   UNL     1      -3.463  11.226  18.094  0.00  0.00    +0.000 A 
ENDBRANCH  30  31
ENDBRANCH  27  29
ENDBRANCH  26  27
ENDBRANCH  25  26
ENDBRANCH  23  25
ENDBRANCH  22  23
ENDBRANCH  21  22
ENDBRANCH  20  21
ENDBRANCH   2  20
TORSDOF 13
ENDMDL
MODEL 3
REMARK VINA RESULT:      -7.8      2.754      5.472
REMARK  Name = 
REMARK  16 active torsions:
REMARK  status: ('A' for Active; 'I' for Inactive)
REMARK    1  A    between atoms: C_1  and  C_2
REMARK    2  A    between atoms: C_2  and  C_3
REMARK    3  A    between atoms: C_2  and  C_20
REMARK    4  A    between atoms: C_3  and  C_4
REMARK    5  A    between atoms: C_4  and  C_5
REMARK    6  A    between atoms: C_5  and  C_6
REMARK    7  A    between atoms: C_6  and  C_7
REMARK    8  A    between atoms: C_6  and  C_8
REMARK    9  A    between atoms: C_8  and  O_9
REMARK   10  A    between atoms: O_9  and  C_10
REMARK   11  A    between atoms: C_10  and  C_12
REMARK   12  A    between atoms: C_13  and  C_14
REMARK   13  A    between atoms: C_23  and  C_24
REMARK   14  A    between atoms: C_26  and  O_27
REMARK   15  A    between atoms: C_29  and  C_30
REMARK   16  A    between atoms: C_30  and  O_32
REMARK                            x       y       z     vdW  Elec       q    Type
REMARK                         _______ _______ _______ _____ _____    ______ ____
ROOT
ATOM      1  C   UNL     1       4.763   3.268  18.817  0.00  0.00    +0.000 C 
ATOM      2  C   UNL     1       3.978   4.033  17.749  0.00  0.00    +0.000 C 
ENDROOT
BRANCH   2   3
ATOM      3  C   UNL     1       4.904   4.806  16.792  0.00  0.00    +0.000 C 
ATOM      4  C   UNL     1       4.643   6.296  16.476  0.00  0.00    +0.000 C 
ATOM      5  C   UNL     1       5.983   7.091  16.564  0.00  0.00    +0.000 C 
ATOM      6  C   UNL     1       7.247   6.187  16.482  0.00  0.00    +0.000 C 
ATOM      7  C   UNL     1       7.669   5.702  17.902  0.00  0.00    +0.000 C 
ATOM      8  C   UNL     1       6.926   5.115  15.408  0.00  0.00    +0.000 A 
ATOM      9  C   UNL     1       7.543   5.095  14.153  0.00  0.00    +0.000 A 
ATOM     10  C   UNL     1       6.993   4.358  13.105  0.00  0.00    +0.000 A 
ATOM     11  C   UNL     1       5.822   3.611  13.279  0.00  0.00    +0.000 A 
ATOM     12  C   UNL     1       5.184   3.582  14.542  0.00  0.00    +0.000 A 
ATOM     13  C   UNL     1       5.713   4.353  15.585  0.00  0.00    +0.000 A 
BRANCH   9  14
ATOM     14  O   UNL     1       8.614   5.865  13.805  0.00  0.00    +0.000 OA
ATOM     15  H   UNL     1       8.913   5.653  12.910  0.00  0.00    +0.000 HD
ENDBRANCH   9  14
BRANCH  11  16
ATOM     16  C   UNL     1       5.202   3.042  12.059  0.00  0.00    +0.000 C 
ATOM     17  O   UNL     1       4.270   3.552  11.483  0.00  0.00    +0.000 OA
BRANCH  16  18
ATOM     18  O   UNL     1       5.801   1.896  11.635  0.00  0.00    +0.000 OA
ATOM     19  H   UNL     1       5.447   1.551  10.796  0.00  0.00    +0.000 HD
ENDBRANCH  16  18
ENDBRANCH  11  16
ENDBRANCH   2   3
BRANCH   2  20
ATOM     20  C   UNL     1       2.759   3.303  17.207  0.00  0.00    +0.000 C 
BRANCH  20  21
ATOM     21  C   UNL     1       1.506   3.447  18.043  0.00  0.00    +0.000 C 
BRANCH  21  22
ATOM     22  C   UNL     1       1.694   2.730  19.378  0.00  0.00    +0.000 C 
BRANCH  22  23
ATOM     23  C   UNL     1       1.210   3.566  20.567  0.00  0.00    +0.000 C 
ATOM     24  C   UNL     1       1.175   2.761  21.870  0.00  0.00    +0.000 C 
BRANCH  23  25
ATOM     25  C   UNL     1       2.115   4.798  20.712  0.00  0.00    +0.000 C 
BRANCH  25  26
ATOM     26  O   UNL     1       1.497   5.966  20.164  0.00  0.00    +0.000 OA
BRANCH  26  27
ATOM     27  C   UNL     1       2.365   6.947  19.800  0.00  0.00    +0.000 C 
ATOM     28  O   UNL     1       3.540   6.794  19.490  0.00  0.00    +0.000 OA
BRANCH  27  29
ATOM     29  C   UNL     1       1.658   8.230  19.858  0.00  0.00    +0.000 C 
ATOM     30  C   UNL     1       1.441   8.895  18.714  0.00  0.00    +0.000 C 
BRANCH  30  31
ATOM     31  C   UNL     1       0.855  10.239  18.631  0.00  0.00    +0.000 A 
ATOM     32  C   UNL     1      -0.519  10.340  18.374  0.00  0.00    +0.000 A 
ATOM     33  C   UNL     1      -1.132  11.590  18.258  0.00  0.00    +0.000 A 
ATOM     34  C   UNL     1      -0.377  12.750  18.410  0.00  0.00    +0.000 A 
ATOM     35  C   UNL     1       0.984  12.662  18.690  0.00  0.00    +0.000 A 
ATOM     36  C   UNL     1       1.598  11.412  18.808  0.00  0.00    +0.000 A 
ENDBRANCH  30  31
ENDBRANCH  27  29
ENDBRANCH  26  27
ENDBRANCH  25  26
ENDBRANCH  23  25
ENDBRANCH  22  23
ENDBRANCH  21  22
ENDBRANCH  20  21
ENDBRANCH   2  20
TORSDOF 13
ENDMDL
MODEL 4
REMARK VINA RESULT:      -7.8      1.962      2.590
REMARK  Name = 
REMARK  16 active torsions:
REMARK  status: ('A' for Active; 'I' for Inactive)
REMARK    1  A    between atoms: C_1  and  C_2
REMARK    2  A    between atoms: C_2  and  C_3
REMARK    3  A    between atoms: C_2  and  C_20
REMARK    4  A    between atoms: C_3  and  C_4
REMARK    5  A    between atoms: C_4  and  C_5
REMARK    6  A    between atoms: C_5  and  C_6
REMARK    7  A    between atoms: C_6  and  C_7
REMARK    8  A    between atoms: C_6  and  C_8
REMARK    9  A    between atoms: C_8  and  O_9
REMARK   10  A    between atoms: O_9  and  C_10
REMARK   11  A    between atoms: C_10  and  C_12
REMARK   12  A    between atoms: C_13  and  C_14
REMARK   13  A    between atoms: C_23  and  C_24
REMARK   14  A    between atoms: C_26  and  O_27
REMARK   15  A    between atoms: C_29  and  C_30
REMARK   16  A    between atoms: C_30  and  O_32
REMARK                            x       y       z     vdW  Elec       q    Type
REMARK                         _______ _______ _______ _____ _____    ______ ____
ROOT
ATOM      1  C   UNL     1       1.031   3.322  20.726  0.00  0.00    +0.000 C 
ATOM      2  C   UNL     1       2.432   3.923  20.867  0.00  0.00    +0.000 C 
ENDROOT
BRANCH   2   3
ATOM      3  C   UNL     1       3.387   3.434  19.763  0.00  0.00    +0.000 C 
ATOM      4  C   UNL     1       3.950   1.995  19.790  0.00  0.00    +0.000 C 
ATOM      5  C   UNL     1       3.836   1.364  18.367  0.00  0.00    +0.000 C 
ATOM      6  C   UNL     1       3.641   2.415  17.236  0.00  0.00    +0.000 C 
ATOM      7  C   UNL     1       2.126   2.708  17.013  0.00  0.00    +0.000 C 
ATOM      8  C   UNL     1       4.571   3.601  17.602  0.00  0.00    +0.000 A 
ATOM      9  C   UNL     1       5.733   3.900  16.883  0.00  0.00    +0.000 A 
ATOM     10  C   UNL     1       6.712   4.727  17.432  0.00  0.00    +0.000 A 
ATOM     11  C   UNL     1       6.557   5.289  18.704  0.00  0.00    +0.000 A 
ATOM     12  C   UNL     1       5.382   5.035  19.451  0.00  0.00    +0.000 A 
ATOM     13  C   UNL     1       4.415   4.173  18.918  0.00  0.00    +0.000 A 
BRANCH   9  14
ATOM     14  O   UNL     1       6.072   3.332  15.691  0.00  0.00    +0.000 OA
ATOM     15  H   UNL     1       5.297   2.938  15.267  0.00  0.00    +0.000 HD
ENDBRANCH   9  14
BRANCH  11  16
ATOM     16  C   UNL     1       7.738   5.971  19.285  0.00  0.00    +0.000 C 
ATOM     17  O   UNL     1       8.304   6.897  18.753  0.00  0.00    +0.000 OA
BRANCH  16  18
ATOM     18  O   UNL     1       8.112   5.466  20.492  0.00  0.00    +0.000 OA
ATOM     19  H   UNL     1       7.939   4.514  20.595  0.00  0.00    +0.000 HD
ENDBRANCH  16  18
ENDBRANCH  11  16
ENDBRANCH   2   3
BRANCH   2  20
ATOM     20  C   UNL     1       2.460   5.378  21.311  0.00  0.00    +0.000 C 
BRANCH  20  21
ATOM     21  C   UNL     1       1.469   6.278  20.608  0.00  0.00    +0.000 C 
BRANCH  21  22
ATOM     22  C   UNL     1       2.205   7.457  19.975  0.00  0.00    +0.000 C 
BRANCH  22  23
ATOM     23  C   UNL     1       2.629   7.177  18.531  0.00  0.00    +0.000 C 
ATOM     24  C   UNL     1       1.660   6.236  17.809  0.00  0.00    +0.000 C 
BRANCH  23  25
ATOM     25  C   UNL     1       2.754   8.511  17.780  0.00  0.00    +0.000 C 
BRANCH  25  26
ATOM     26  O   UNL     1       1.555   9.284  17.888  0.00  0.00    +0.000 OA
BRANCH  26  27
ATOM     27  C   UNL     1       1.755  10.598  18.175  0.00  0.00    +0.000 C 
ATOM     28  O   UNL     1       2.358  11.406  17.481  0.00  0.00    +0.000 OA
BRANCH  27  29
ATOM     29  C   UNL     1       1.137  10.882  19.474  0.00  0.00    +0.000 C 
ATOM     30  C   UNL     1      -0.200  10.937  19.550  0.00  0.00    +0.000 C 
BRANCH  30  31
ATOM     31  C   UNL     1      -0.951  11.326  20.751  0.00  0.00    +0.000 A 
ATOM     32  C   UNL     1      -0.639  10.683  21.957  0.00  0.00    +0.000 A 
ATOM     33  C   UNL     1      -1.334  10.990  23.129  0.00  0.00    +0.000 A 
ATOM     34  C   UNL     1      -2.339  11.953  23.107  0.00  0.00    +0.000 A 
ATOM     35  C   UNL     1      -2.641  12.617  21.921  0.00  0.00    +0.000 A 
ATOM     36  C   UNL     1      -1.945  12.311  20.748  0.00  0.00    +0.000 A 
ENDBRANCH  30  31
ENDBRANCH  27  29
ENDBRANCH  26  27
ENDBRANCH  25  26
ENDBRANCH  23  25
ENDBRANCH  22  23
ENDBRANCH  21  22
ENDBRANCH  20  21
ENDBRANCH   2  20
TORSDOF 13
ENDMDL
MODEL 5
REMARK VINA RESULT:      -7.8      2.593      9.858
REMARK  Name = 
REMARK  16 active torsions:
REMARK  status: ('A' for Active; 'I' for Inactive)
REMARK    1  A    between atoms: C_1  and  C_2
REMARK    2  A    between atoms: C_2  and  C_3
REMARK    3  A    between atoms: C_2  and  C_20
REMARK    4  A    between atoms: C_3  and  C_4
REMARK    5  A    between atoms: C_4  and  C_5
REMARK    6  A    between atoms: C_5  and  C_6
REMARK    7  A    between atoms: C_6  and  C_7
REMARK    8  A    between atoms: C_6  and  C_8
REMARK    9  A    between atoms: C_8  and  O_9
REMARK   10  A    between atoms: O_9  and  C_10
REMARK   11  A    between atoms: C_10  and  C_12
REMARK   12  A    between atoms: C_13  and  C_14
REMARK   13  A    between atoms: C_23  and  C_24
REMARK   14  A    between atoms: C_26  and  O_27
REMARK   15  A    between atoms: C_29  and  C_30
REMARK   16  A    between atoms: C_30  and  O_32
REMARK                            x       y       z     vdW  Elec       q    Type
REMARK                         _______ _______ _______ _____ _____    ______ ____
ROOT
ATOM      1  C   UNL     1       2.063   8.431  18.265  0.00  0.00    +0.000 C 
ATOM      2  C   UNL     1       1.675   8.549  19.741  0.00  0.00    +0.000 C 
ENDROOT
BRANCH   2   3
ATOM      3  C   UNL     1       0.671   9.689  19.988  0.00  0.00    +0.000 C 
ATOM      4  C   UNL     1      -0.270   9.657  21.214  0.00  0.00    +0.000 C 
ATOM      5  C   UNL     1      -0.275  11.057  21.904  0.00  0.00    +0.000 C 
ATOM      6  C   UNL     1       0.252  12.201  20.989  0.00  0.00    +0.000 C 
ATOM      7  C   UNL     1       1.797  12.353  21.134  0.00  0.00    +0.000 C 
ATOM      8  C   UNL     1      -0.327  11.911  19.581  0.00  0.00    +0.000 A 
ATOM      9  C   UNL     1      -1.329  12.695  18.999  0.00  0.00    +0.000 A 
ATOM     10  C   UNL     1      -2.063  12.216  17.915  0.00  0.00    +0.000 A 
ATOM     11  C   UNL     1      -1.813  10.951  17.371  0.00  0.00    +0.000 A 
ATOM     12  C   UNL     1      -0.787  10.139  17.912  0.00  0.00    +0.000 A 
ATOM     13  C   UNL     1      -0.075  10.602  19.026  0.00  0.00    +0.000 A 
BRANCH   9  14
ATOM     14  O   UNL     1      -1.761  13.889  19.495  0.00  0.00    +0.000 OA
ATOM     15  H   UNL     1      -1.253  14.621  19.117  0.00  0.00    +0.000 HD
ENDBRANCH   9  14
BRANCH  11  16
ATOM     16  C   UNL     1      -2.783  10.448  16.369  0.00  0.00    +0.000 C 
ATOM     17  O   UNL     1      -2.855   9.290  16.032  0.00  0.00    +0.000 OA
BRANCH  16  18
ATOM     18  O   UNL     1      -3.603  11.417  15.879  0.00  0.00    +0.000 OA
ATOM     19  H   UNL     1      -4.140  11.863  16.558  0.00  0.00    +0.000 HD
ENDBRANCH  16  18
ENDBRANCH  11  16
ENDBRANCH   2   3
BRANCH   2  20
ATOM     20  C   UNL     1       1.516   7.221  20.467  0.00  0.00    +0.000 C 
BRANCH  20  21
ATOM     21  C   UNL     1       2.190   6.043  19.796  0.00  0.00    +0.000 C 
BRANCH  21  22
ATOM     22  C   UNL     1       1.459   4.755  20.167  0.00  0.00    +0.000 C 
BRANCH  22  23
ATOM     23  C   UNL     1       1.331   3.791  18.984  0.00  0.00    +0.000 C 
ATOM     24  C   UNL     1       1.718   4.445  17.654  0.00  0.00    +0.000 C 
BRANCH  23  25
ATOM     25  C   UNL     1       2.196   2.551  19.254  0.00  0.00    +0.000 C 
BRANCH  25  26
ATOM     26  O   UNL     1       3.153   2.798  20.289  0.00  0.00    +0.000 OA
BRANCH  26  27
ATOM     27  C   UNL     1       4.403   2.336  20.024  0.00  0.00    +0.000 C 
ATOM     28  O   UNL     1       4.916   1.328  20.493  0.00  0.00    +0.000 OA
BRANCH  27  29
ATOM     29  C   UNL     1       5.046   3.264  19.089  0.00  0.00    +0.000 C 
ATOM     30  C   UNL     1       5.350   4.498  19.517  0.00  0.00    +0.000 C 
BRANCH  30  31
ATOM     31  C   UNL     1       5.884   5.568  18.665  0.00  0.00    +0.000 A 
ATOM     32  C   UNL     1       7.259   5.835  18.733  0.00  0.00    +0.000 A 
ATOM     33  C   UNL     1       7.825   6.856  17.967  0.00  0.00    +0.000 A 
ATOM     34  C   UNL     1       7.023   7.611  17.116  0.00  0.00    +0.000 A 
ATOM     35  C   UNL     1       5.660   7.339  17.020  0.00  0.00    +0.000 A 
ATOM     36  C   UNL     1       5.093   6.316  17.786  0.00  0.00    +0.000 A 
ENDBRANCH  30  31
ENDBRANCH  27  29
ENDBRANCH  26  27
ENDBRANCH  25  26
ENDBRANCH  23  25
ENDBRANCH  22  23
ENDBRANCH  21  22
ENDBRANCH  20  21
ENDBRANCH   2  20
TORSDOF 13
ENDMDL
MODEL 6
REMARK VINA RESULT:      -7.7      2.313      9.487
REMARK  Name = 
REMARK  16 active torsions:
REMARK  status: ('A' for Active; 'I' for Inactive)
REMARK    1  A    between atoms: C_1  and  C_2
REMARK    2  A    between atoms: C_2  and  C_3
REMARK    3  A    between atoms: C_2  and  C_20
REMARK    4  A    between atoms: C_3  and  C_4
REMARK    5  A    between atoms: C_4  and  C_5
REMARK    6  A    between atoms: C_5  and  C_6
REMARK    7  A    between atoms: C_6  and  C_7
REMARK    8  A    between atoms: C_6  and  C_8
REMARK    9  A    between atoms: C_8  and  O_9
REMARK   10  A    between atoms: O_9  and  C_10
REMARK   11  A    between atoms: C_10  and  C_12
REMARK   12  A    between atoms: C_13  and  C_14
REMARK   13  A    between atoms: C_23  and  C_24
REMARK   14  A    between atoms: C_26  and  O_27
REMARK   15  A    between atoms: C_29  and  C_30
REMARK   16  A    between atoms: C_30  and  O_32
REMARK                            x       y       z     vdW  Elec       q    Type
REMARK                         _______ _______ _______ _____ _____    ______ ____
ROOT
ATOM      1  C   UNL     1       2.105   7.442  20.055  0.00  0.00    +0.000 C 
ATOM      2  C   UNL     1       1.551   8.229  18.865  0.00  0.00    +0.000 C 
ENDROOT
BRANCH   2   3
ATOM      3  C   UNL     1       0.574   9.334  19.305  0.00  0.00    +0.000 C 
ATOM      4  C   UNL     1      -0.192   9.220  20.643  0.00  0.00    +0.000 C 
ATOM      5  C   UNL     1      -0.122  10.582  21.402  0.00  0.00    +0.000 C 
ATOM      6  C   UNL     1       0.261  11.782  20.488  0.00  0.00    +0.000 C 
ATOM      7  C   UNL     1       1.809  11.958  20.432  0.00  0.00    +0.000 C 
ATOM      8  C   UNL     1      -0.499  11.554  19.156  0.00  0.00    +0.000 A 
ATOM      9  C   UNL     1      -1.581  12.346  18.757  0.00  0.00    +0.000 A 
ATOM     10  C   UNL     1      -2.448  11.909  17.757  0.00  0.00    +0.000 A 
ATOM     11  C   UNL     1      -2.257  10.679  17.117  0.00  0.00    +0.000 A 
ATOM     12  C   UNL     1      -1.157   9.862  17.471  0.00  0.00    +0.000 A 
ATOM     13  C   UNL     1      -0.307  10.281  18.503  0.00  0.00    +0.000 A 
BRANCH   9  14
ATOM     14  O   UNL     1      -1.957  13.504  19.370  0.00  0.00    +0.000 OA
ATOM     15  H   UNL     1      -2.080  14.211  18.722  0.00  0.00    +0.000 HD
ENDBRANCH   9  14
BRANCH  11  16
ATOM     16  C   UNL     1      -3.346  10.209  16.228  0.00  0.00    +0.000 C 
ATOM     17  O   UNL     1      -3.209   9.331  15.410  0.00  0.00    +0.000 OA
BRANCH  16  18
ATOM     18  O   UNL     1      -4.528  10.849  16.440  0.00  0.00    +0.000 OA
ATOM     19  H   UNL     1      -4.981  10.584  17.260  0.00  0.00    +0.000 HD
ENDBRANCH  16  18
ENDBRANCH  11  16
ENDBRANCH   2   3
BRANCH   2  20
ATOM     20  C   UNL     1       2.556   8.497  17.754  0.00  0.00    +0.000 C 
BRANCH  20  21
ATOM     21  C   UNL     1       3.824   7.676  17.830  0.00  0.00    +0.000 C 
BRANCH  21  22
ATOM     22  C   UNL     1       4.182   7.153  16.441  0.00  0.00    +0.000 C 
BRANCH  22  23
ATOM     23  C   UNL     1       5.247   6.054  16.484  0.00  0.00    +0.000 C 
ATOM     24  C   UNL     1       5.670   5.596  15.084  0.00  0.00    +0.000 C 
BRANCH  23  25
ATOM     25  C   UNL     1       6.459   6.563  17.279  0.00  0.00    +0.000 C 
BRANCH  25  26
ATOM     26  O   UNL     1       7.142   5.490  17.931  0.00  0.00    +0.000 OA
BRANCH  26  27
ATOM     27  C   UNL     1       6.881   5.380  19.261  0.00  0.00    +0.000 C 
ATOM     28  O   UNL     1       7.708   5.394  20.164  0.00  0.00    +0.000 OA
BRANCH  27  29
ATOM     29  C   UNL     1       5.433   5.222  19.432  0.00  0.00    +0.000 C 
ATOM     30  C   UNL     1       4.914   3.987  19.388  0.00  0.00    +0.000 C 
BRANCH  30  31
ATOM     31  C   UNL     1       3.477   3.686  19.425  0.00  0.00    +0.000 A 
ATOM     32  C   UNL     1       2.976   3.015  20.550  0.00  0.00    +0.000 A 
ATOM     33  C   UNL     1       1.623   2.677  20.634  0.00  0.00    +0.000 A 
ATOM     34  C   UNL     1       0.758   3.020  19.599  0.00  0.00    +0.000 A 
ATOM     35  C   UNL     1       1.238   3.708  18.489  0.00  0.00    +0.000 A 
ATOM     36  C   UNL     1       2.591   4.048  18.404  0.00  0.00    +0.000 A 
ENDBRANCH  30  31
ENDBRANCH  27  29
ENDBRANCH  26  27
ENDBRANCH  25  26
ENDBRANCH  23  25
ENDBRANCH  22  23
ENDBRANCH  21  22
ENDBRANCH  20  21
ENDBRANCH   2  20
TORSDOF 13
ENDMDL
MODEL 7
REMARK VINA RESULT:      -7.7      2.546      3.535
REMARK  Name = 
REMARK  16 active torsions:
REMARK  status: ('A' for Active; 'I' for Inactive)
REMARK    1  A    between atoms: C_1  and  C_2
REMARK    2  A    between atoms: C_2  and  C_3
REMARK    3  A    between atoms: C_2  and  C_20
REMARK    4  A    between atoms: C_3  and  C_4
REMARK    5  A    between atoms: C_4  and  C_5
REMARK    6  A    between atoms: C_5  and  C_6
REMARK    7  A    between atoms: C_6  and  C_7
REMARK    8  A    between atoms: C_6  and  C_8
REMARK    9  A    between atoms: C_8  and  O_9
REMARK   10  A    between atoms: O_9  and  C_10
REMARK   11  A    between atoms: C_10  and  C_12
REMARK   12  A    between atoms: C_13  and  C_14
REMARK   13  A    between atoms: C_23  and  C_24
REMARK   14  A    between atoms: C_26  and  O_27
REMARK   15  A    between atoms: C_29  and  C_30
REMARK   16  A    between atoms: C_30  and  O_32
REMARK                            x       y       z     vdW  Elec       q    Type
REMARK                         _______ _______ _______ _____ _____    ______ ____
ROOT
ATOM      1  C   UNL     1       1.984   3.348  21.798  0.00  0.00    +0.000 C 
ATOM      2  C   UNL     1       2.527   4.430  20.861  0.00  0.00    +0.000 C 
ENDROOT
BRANCH   2   3
ATOM      3  C   UNL     1       3.431   3.844  19.761  0.00  0.00    +0.000 C 
ATOM      4  C   UNL     1       3.909   2.376  19.835  0.00  0.00    +0.000 C 
ATOM      5  C   UNL     1       3.733   1.700  18.440  0.00  0.00    +0.000 C 
ATOM      6  C   UNL     1       3.580   2.718  17.271  0.00  0.00    +0.000 C 
ATOM      7  C   UNL     1       2.081   3.092  17.061  0.00  0.00    +0.000 C 
ATOM      8  C   UNL     1       4.584   3.859  17.577  0.00  0.00    +0.000 A 
ATOM      9  C   UNL     1       5.748   4.061  16.830  0.00  0.00    +0.000 A 
ATOM     10  C   UNL     1       6.784   4.849  17.331  0.00  0.00    +0.000 A 
ATOM     11  C   UNL     1       6.685   5.466  18.583  0.00  0.00    +0.000 A 
ATOM     12  C   UNL     1       5.511   5.310  19.358  0.00  0.00    +0.000 A 
ATOM     13  C   UNL     1       4.486   4.488  18.873  0.00  0.00    +0.000 A 
BRANCH   9  14
ATOM     14  O   UNL     1       6.032   3.430  15.655  0.00  0.00    +0.000 OA
ATOM     15  H   UNL     1       6.906   3.687  15.329  0.00  0.00    +0.000 HD
ENDBRANCH   9  14
BRANCH  11  16
ATOM     16  C   UNL     1       7.915   6.098  19.118  0.00  0.00    +0.000 C 
ATOM     17  O   UNL     1       8.357   7.147  18.714  0.00  0.00    +0.000 OA
BRANCH  16  18
ATOM     18  O   UNL     1       8.489   5.389  20.129  0.00  0.00    +0.000 OA
ATOM     19  H   UNL     1       9.166   4.755  19.834  0.00  0.00    +0.000 HD
ENDBRANCH  16  18
ENDBRANCH  11  16
ENDBRANCH   2   3
BRANCH   2  20
ATOM     20  C   UNL     1       1.540   5.538  20.528  0.00  0.00    +0.000 C 
BRANCH  20  21
ATOM     21  C   UNL     1       2.160   6.901  20.313  0.00  0.00    +0.000 C 
BRANCH  21  22
ATOM     22  C   UNL     1       1.264   7.974  20.928  0.00  0.00    +0.000 C 
BRANCH  22  23
ATOM     23  C   UNL     1       1.147   9.219  20.044  0.00  0.00    +0.000 C 
ATOM     24  C   UNL     1       1.545   8.943  18.590  0.00  0.00    +0.000 C 
BRANCH  23  25
ATOM     25  C   UNL     1      -0.290   9.755  20.123  0.00  0.00    +0.000 C 
BRANCH  25  26
ATOM     26  O   UNL     1      -0.421  10.999  19.430  0.00  0.00    +0.000 OA
BRANCH  26  27
ATOM     27  C   UNL     1      -0.799  12.044  20.213  0.00  0.00    +0.000 C 
ATOM     28  O   UNL     1      -1.820  12.112  20.885  0.00  0.00    +0.000 OA
BRANCH  27  29
ATOM     29  C   UNL     1       0.220  13.093  20.101  0.00  0.00    +0.000 C 
ATOM     30  C   UNL     1       0.406  13.682  18.910  0.00  0.00    +0.000 C 
BRANCH  30  31
ATOM     31  C   UNL     1       1.463  14.657  18.620  0.00  0.00    +0.000 A 
ATOM     32  C   UNL     1       2.688  14.174  18.140  0.00  0.00    +0.000 A 
ATOM     33  C   UNL     1       3.743  15.048  17.868  0.00  0.00    +0.000 A 
ATOM     34  C   UNL     1       3.577  16.417  18.063  0.00  0.00    +0.000 A 
ATOM     35  C   UNL     1       2.357  16.912  18.516  0.00  0.00    +0.000 A 
ATOM     36  C   UNL     1       1.300  16.038  18.787  0.00  0.00    +0.000 A 
ENDBRANCH  30  31
ENDBRANCH  27  29
ENDBRANCH  26  27
ENDBRANCH  25  26
ENDBRANCH  23  25
ENDBRANCH  22  23
ENDBRANCH  21  22
ENDBRANCH  20  21
ENDBRANCH   2  20
TORSDOF 13
ENDMDL
MODEL 8
REMARK VINA RESULT:      -7.6      5.436      8.303
REMARK  Name = 
REMARK  16 active torsions:
REMARK  status: ('A' for Active; 'I' for Inactive)
REMARK    1  A    between atoms: C_1  and  C_2
REMARK    2  A    between atoms: C_2  and  C_3
REMARK    3  A    between atoms: C_2  and  C_20
REMARK    4  A    between atoms: C_3  and  C_4
REMARK    5  A    between atoms: C_4  and  C_5
REMARK    6  A    between atoms: C_5  and  C_6
REMARK    7  A    between atoms: C_6  and  C_7
REMARK    8  A    between atoms: C_6  and  C_8
REMARK    9  A    between atoms: C_8  and  O_9
REMARK   10  A    between atoms: O_9  and  C_10
REMARK   11  A    between atoms: C_10  and  C_12
REMARK   12  A    between atoms: C_13  and  C_14
REMARK   13  A    between atoms: C_23  and  C_24
REMARK   14  A    between atoms: C_26  and  O_27
REMARK   15  A    between atoms: C_29  and  C_30
REMARK   16  A    between atoms: C_30  and  O_32
REMARK                            x       y       z     vdW  Elec       q    Type
REMARK                         _______ _______ _______ _____ _____    ______ ____
ROOT
ATOM      1  C   UNL     1       7.993   6.061  19.121  0.00  0.00    +0.000 C 
ATOM      2  C   UNL     1       7.493   6.781  17.865  0.00  0.00    +0.000 C 
ENDROOT
BRANCH   2   3
ATOM      3  C   UNL     1       6.213   6.138  17.301  0.00  0.00    +0.000 C 
ATOM      4  C   UNL     1       5.399   6.847  16.194  0.00  0.00    +0.000 C 
ATOM      5  C   UNL     1       5.022   5.818  15.084  0.00  0.00    +0.000 C 
ATOM      6  C   UNL     1       5.131   4.336  15.548  0.00  0.00    +0.000 C 
ATOM      7  C   UNL     1       6.568   3.786  15.296  0.00  0.00    +0.000 C 
ATOM      8  C   UNL     1       4.580   4.310  16.997  0.00  0.00    +0.000 A 
ATOM      9  C   UNL     1       3.359   3.716  17.331  0.00  0.00    +0.000 A 
ATOM     10  C   UNL     1       2.736   4.012  18.542  0.00  0.00    +0.000 A 
ATOM     11  C   UNL     1       3.315   4.894  19.460  0.00  0.00    +0.000 A 
ATOM     12  C   UNL     1       4.565   5.493  19.173  0.00  0.00    +0.000 A 
ATOM     13  C   UNL     1       5.174   5.228  17.939  0.00  0.00    +0.000 A 
BRANCH   9  14
ATOM     14  O   UNL     1       2.624   2.935  16.489  0.00  0.00    +0.000 OA
ATOM     15  H   UNL     1       2.728   3.226  15.572  0.00  0.00    +0.000 HD
ENDBRANCH   9  14
BRANCH  11  16
ATOM     16  C   UNL     1       2.479   5.308  20.612  0.00  0.00    +0.000 C 
ATOM     17  O   UNL     1       2.112   4.550  21.478  0.00  0.00    +0.000 OA
BRANCH  16  18
ATOM     18  O   UNL     1       2.182   6.637  20.613  0.00  0.00    +0.000 OA
ATOM     19  H   UNL     1       1.995   7.001  21.496  0.00  0.00    +0.000 HD
ENDBRANCH  16  18
ENDBRANCH  11  16
ENDBRANCH   2   3
BRANCH   2  20
ATOM     20  C   UNL     1       7.637   8.295  17.898  0.00  0.00    +0.000 C 
BRANCH  20  21
ATOM     21  C   UNL     1       8.917   8.800  18.525  0.00  0.00    +0.000 C 
BRANCH  21  22
ATOM     22  C   UNL     1       8.762  10.274  18.892  0.00  0.00    +0.000 C 
BRANCH  22  23
ATOM     23  C   UNL     1       9.471  11.204  17.903  0.00  0.00    +0.000 C 
ATOM     24  C   UNL     1       8.651  12.460  17.592  0.00  0.00    +0.000 C 
BRANCH  23  25
ATOM     25  C   UNL     1      10.848  11.579  18.470  0.00  0.00    +0.000 C 
BRANCH  25  26
ATOM     26  O   UNL     1      10.847  11.556  19.900  0.00  0.00    +0.000 OA
BRANCH  26  27
ATOM     27  C   UNL     1      10.726  12.777  20.484  0.00  0.00    +0.000 C 
ATOM     28  O   UNL     1      11.204  13.826  20.071  0.00  0.00    +0.000 OA
BRANCH  27  29
ATOM     29  C   UNL     1       9.938  12.623  21.711  0.00  0.00    +0.000 C 
ATOM     30  C   UNL     1       8.600  12.650  21.621  0.00  0.00    +0.000 C 
BRANCH  30  31
ATOM     31  C   UNL     1       7.687  12.627  22.770  0.00  0.00    +0.000 A 
ATOM     32  C   UNL     1       7.872  11.626  23.734  0.00  0.00    +0.000 A 
ATOM     33  C   UNL     1       7.022  11.535  24.839  0.00  0.00    +0.000 A 
ATOM     34  C   UNL     1       5.987  12.452  24.994  0.00  0.00    +0.000 A 
ATOM     35  C   UNL     1       5.808  13.466  24.057  0.00  0.00    +0.000 A 
ATOM     36  C   UNL     1       6.659  13.559  22.952  0.00  0.00    +0.000 A 
ENDBRANCH  30  31
ENDBRANCH  27  29
ENDBRANCH  26  27
ENDBRANCH  25  26
ENDBRANCH  23  25
ENDBRANCH  22  23
ENDBRANCH  21  22
ENDBRANCH  20  21
ENDBRANCH   2  20
TORSDOF 13
ENDMDL
MODEL 9
REMARK VINA RESULT:      -7.5      2.793      9.911
REMARK  Name = 
REMARK  16 active torsions:
REMARK  status: ('A' for Active; 'I' for Inactive)
REMARK    1  A    between atoms: C_1  and  C_2
REMARK    2  A    between atoms: C_2  and  C_3
REMARK    3  A    between atoms: C_2  and  C_20
REMARK    4  A    between atoms: C_3  and  C_4
REMARK    5  A    between atoms: C_4  and  C_5
REMARK    6  A    between atoms: C_5  and  C_6
REMARK    7  A    between atoms: C_6  and  C_7
REMARK    8  A    between atoms: C_6  and  C_8
REMARK    9  A    between atoms: C_8  and  O_9
REMARK   10  A    between atoms: O_9  and  C_10
REMARK   11  A    between atoms: C_10  and  C_12
REMARK   12  A    between atoms: C_13  and  C_14
REMARK   13  A    between atoms: C_23  and  C_24
REMARK   14  A    between atoms: C_26  and  O_27
REMARK   15  A    between atoms: C_29  and  C_30
REMARK   16  A    between atoms: C_30  and  O_32
REMARK                            x       y       z     vdW  Elec       q    Type
REMARK                         _______ _______ _______ _____ _____    ______ ____
ROOT
ATOM      1  C   UNL     1       1.667   8.727  22.264  0.00  0.00    +0.000 C 
ATOM      2  C   UNL     1       0.965   8.774  20.904  0.00  0.00    +0.000 C 
ENDROOT
BRANCH   2   3
ATOM      3  C   UNL     1       0.347  10.155  20.619  0.00  0.00    +0.000 C 
ATOM      4  C   UNL     1      -0.566  10.839  21.661  0.00  0.00    +0.000 C 
ATOM      5  C   UNL     1      -0.155  12.337  21.812  0.00  0.00    +0.000 C 
ATOM      6  C   UNL     1       0.697  12.870  20.623  0.00  0.00    +0.000 C 
ATOM      7  C   UNL     1       2.215  12.630  20.882  0.00  0.00    +0.000 C 
ATOM      8  C   UNL     1       0.065  12.254  19.347  0.00  0.00    +0.000 A 
ATOM      9  C   UNL     1      -0.652  13.013  18.417  0.00  0.00    +0.000 A 
ATOM     10  C   UNL     1      -1.490  12.392  17.491  0.00  0.00    +0.000 A 
ATOM     11  C   UNL     1      -1.628  11.000  17.457  0.00  0.00    +0.000 A 
ATOM     12  C   UNL     1      -0.896  10.194  18.362  0.00  0.00    +0.000 A 
ATOM     13  C   UNL     1      -0.085  10.819  19.319  0.00  0.00    +0.000 A 
BRANCH   9  14
ATOM     14  O   UNL     1      -0.708  14.375  18.410  0.00  0.00    +0.000 OA
ATOM     15  H   UNL     1       0.101  14.754  18.781  0.00  0.00    +0.000 HD
ENDBRANCH   9  14
BRANCH  11  16
ATOM     16  C   UNL     1      -2.698  10.453  16.589  0.00  0.00    +0.000 C 
ATOM     17  O   UNL     1      -3.301   9.435  16.833  0.00  0.00    +0.000 OA
BRANCH  16  18
ATOM     18  O   UNL     1      -2.952  11.225  15.497  0.00  0.00    +0.000 OA
ATOM     19  H   UNL     1      -2.372  12.002  15.417  0.00  0.00    +0.000 HD
ENDBRANCH  16  18
ENDBRANCH  11  16
ENDBRANCH   2   3
BRANCH   2  20
ATOM     20  C   UNL     1       1.671   8.010  19.795  0.00  0.00    +0.000 C 
BRANCH  20  21
ATOM     21  C   UNL     1       2.336   6.723  20.231  0.00  0.00    +0.000 C 
BRANCH  21  22
ATOM     22  C   UNL     1       1.271   5.674  20.540  0.00  0.00    +0.000 C 
BRANCH  22  23
ATOM     23  C   UNL     1       1.750   4.248  20.253  0.00  0.00    +0.000 C 
ATOM     24  C   UNL     1       1.556   3.314  21.453  0.00  0.00    +0.000 C 
BRANCH  23  25
ATOM     25  C   UNL     1       1.010   3.710  19.020  0.00  0.00    +0.000 C 
BRANCH  25  26
ATOM     26  O   UNL     1       1.712   4.023  17.813  0.00  0.00    +0.000 OA
BRANCH  26  27
ATOM     27  C   UNL     1       2.758   3.199  17.538  0.00  0.00    +0.000 C 
ATOM     28  O   UNL     1       2.731   1.975  17.532  0.00  0.00    +0.000 OA
BRANCH  27  29
ATOM     29  C   UNL     1       3.936   4.028  17.267  0.00  0.00    +0.000 C 
ATOM     30  C   UNL     1       4.599   4.560  18.304  0.00  0.00    +0.000 C 
BRANCH  30  31
ATOM     31  C   UNL     1       5.719   5.501  18.183  0.00  0.00    +0.000 A 
ATOM     32  C   UNL     1       6.818   5.326  19.035  0.00  0.00    +0.000 A 
ATOM     33  C   UNL     1       7.905   6.202  18.986  0.00  0.00    +0.000 A 
ATOM     34  C   UNL     1       7.905   7.256  18.077  0.00  0.00    +0.000 A 
ATOM     35  C   UNL     1       6.830   7.427  17.208  0.00  0.00    +0.000 A 
ATOM     36  C   UNL     1       5.744   6.549  17.255  0.00  0.00    +0.000 A 
ENDBRANCH  30  31
ENDBRANCH  27  29
ENDBRANCH  26  27
ENDBRANCH  25  26
ENDBRANCH  23  25
ENDBRANCH  22  23
ENDBRANCH  21  22
ENDBRANCH  20  21
ENDBRANCH   2  20
TORSDOF 13
ENDMDL
