MODEL 1
REMARK VINA RESULT:      -8.7      0.000      0.000
REMARK  Name = 
REMARK  5 active torsions:
REMARK  status: ('A' for Active; 'I' for Inactive)
REMARK    1  A    between atoms: C_2  and  C_14
REMARK    2  A    between atoms: N_3  and  C_4
REMARK    3  A    between atoms: C_4  and  C_5
REMARK    4  A    between atoms: C_16  and  C_17
REMARK    5  A    between atoms: C_22  and  O_23
REMARK                            x       y       z     vdW  Elec       q    Type
REMARK                         _______ _______ _______ _____ _____    ______ ____
ROOT
ATOM      1  O   UNL     1       7.814   6.999  16.444  0.00  0.00    +0.000 OA
ATOM      2  C   UNL     1       7.607   7.226  17.633  0.00  0.00    +0.000 C 
ATOM      3  N   UNL     1       7.896   8.435  18.226  0.00  0.00    +0.000 N 
ATOM      4  H   UNL     1       7.712   8.545  19.217  0.00  0.00    +0.000 HD
ENDROOT
BRANCH   2   5
ATOM      5  C   UNL     1       6.909   6.211  18.551  0.00  0.00    +0.000 C 
ATOM      6  C   UNL     1       5.451   6.050  18.199  0.00  0.00    +0.000 C 
ATOM      7  C   UNL     1       5.325   4.581  18.401  0.00  0.00    +0.000 C 
ATOM      8  N   UNL     1       6.449   3.953  18.559  0.00  0.00    +0.000 NA
ATOM      9  O   UNL     1       7.484   4.908  18.430  0.00  0.00    +0.000 OA
BRANCH   7  10
ATOM     10  C   UNL     1       4.007   3.906  18.447  0.00  0.00    +0.000 A 
ATOM     11  C   UNL     1       2.918   4.529  17.821  0.00  0.00    +0.000 A 
ATOM     12  C   UNL     1       1.659   3.923  17.828  0.00  0.00    +0.000 A 
ATOM     13  C   UNL     1       1.475   2.701  18.474  0.00  0.00    +0.000 A 
ATOM     14  C   UNL     1       2.546   2.083  19.116  0.00  0.00    +0.000 A 
ATOM     15  C   UNL     1       3.808   2.684  19.101  0.00  0.00    +0.000 A 
BRANCH  15  16
ATOM     16  O   UNL     1       4.836   2.075  19.761  0.00  0.00    +0.000 OA
ATOM     17  H   UNL     1       5.093   1.270  19.284  0.00  0.00    +0.000 HD
ENDBRANCH  15  16
ENDBRANCH   7  10
ENDBRANCH   2   5
BRANCH   3  18
ATOM     18  C   UNL     1       8.499   9.531  17.500  0.00  0.00    +0.000 C 
BRANCH  18  19
ATOM     19  C   UNL     1       9.059  10.596  18.414  0.00  0.00    +0.000 A 
ATOM     20  C   UNL     1       9.293  10.323  19.782  0.00  0.00    +0.000 A 
ATOM     21  C   UNL     1       9.853  11.287  20.630  0.00  0.00    +0.000 A 
ATOM     22  C   UNL     1      10.175  12.511  20.085  0.00  0.00    +0.000 A 
ATOM     23  C   UNL     1       9.966  12.784  18.756  0.00  0.00    +0.000 A 
ATOM     24  C   UNL     1       9.414  11.854  17.899  0.00  0.00    +0.000 A 
ATOM     25  O   UNL     1      10.366  14.039  18.414  0.00  0.00    +0.000 OA
ATOM     26  C   UNL     1      10.807  14.539  19.693  0.00  0.00    +0.000 C 
ATOM     27  O   UNL     1      10.726  13.562  20.751  0.00  0.00    +0.000 OA
ENDBRANCH  18  19
ENDBRANCH   3  18
TORSDOF 5
ENDMDL
MODEL 2
REMARK VINA RESULT:      -8.5      5.376      7.213
REMARK  Name = 
REMARK  5 active torsions:
REMARK  status: ('A' for Active; 'I' for Inactive)
REMARK    1  A    between atoms: C_2  and  C_14
REMARK    2  A    between atoms: N_3  and  C_4
REMARK    3  A    between atoms: C_4  and  C_5
REMARK    4  A    between atoms: C_16  and  C_17
REMARK    5  A    between atoms: C_22  and  O_23
REMARK                            x       y       z     vdW  Elec       q    Type
REMARK                         _______ _______ _______ _____ _____    ______ ____
ROOT
ATOM      1  O   UNL     1       5.955   4.745  20.070  0.00  0.00    +0.000 OA
ATOM      2  C   UNL     1       5.631   4.749  18.886  0.00  0.00    +0.000 C 
ATOM      3  N   UNL     1       4.321   4.828  18.468  0.00  0.00    +0.000 N 
ATOM      4  H   UNL     1       4.128   4.811  17.473  0.00  0.00    +0.000 HD
ENDROOT
BRANCH   2   5
ATOM      5  C   UNL     1       6.668   4.768  17.753  0.00  0.00    +0.000 C 
ATOM      6  C   UNL     1       6.167   4.049  16.525  0.00  0.00    +0.000 C 
ATOM      7  C   UNL     1       6.713   4.961  15.483  0.00  0.00    +0.000 C 
ATOM      8  N   UNL     1       7.181   6.085  15.932  0.00  0.00    +0.000 NA
ATOM      9  O   UNL     1       6.961   6.101  17.329  0.00  0.00    +0.000 OA
BRANCH   7  10
ATOM     10  C   UNL     1       6.742   4.586  14.050  0.00  0.00    +0.000 A 
ATOM     11  C   UNL     1       5.780   3.683  13.579  0.00  0.00    +0.000 A 
ATOM     12  C   UNL     1       5.762   3.310  12.232  0.00  0.00    +0.000 A 
ATOM     13  C   UNL     1       6.713   3.823  11.352  0.00  0.00    +0.000 A 
ATOM     14  C   UNL     1       7.687   4.707  11.815  0.00  0.00    +0.000 A 
ATOM     15  C   UNL     1       7.700   5.087  13.159  0.00  0.00    +0.000 A 
BRANCH  15  16
ATOM     16  O   UNL     1       8.679   5.931  13.596  0.00  0.00    +0.000 OA
ATOM     17  H   UNL     1       9.322   6.076  12.884  0.00  0.00    +0.000 HD
ENDBRANCH  15  16
ENDBRANCH   7  10
ENDBRANCH   2   5
BRANCH   3  18
ATOM     18  C   UNL     1       3.212   4.882  19.396  0.00  0.00    +0.000 C 
BRANCH  18  19
ATOM     19  C   UNL     1       2.574   6.250  19.460  0.00  0.00    +0.000 A 
ATOM     20  C   UNL     1       1.944   6.698  20.644  0.00  0.00    +0.000 A 
ATOM     21  C   UNL     1       1.387   7.981  20.731  0.00  0.00    +0.000 A 
ATOM     22  C   UNL     1       1.480   8.796  19.624  0.00  0.00    +0.000 A 
ATOM     23  C   UNL     1       2.101   8.378  18.473  0.00  0.00    +0.000 A 
ATOM     24  C   UNL     1       2.655   7.120  18.360  0.00  0.00    +0.000 A 
ATOM     25  O   UNL     1       2.101   9.336  17.505  0.00  0.00    +0.000 OA
ATOM     26  C   UNL     1       1.365  10.386  18.166  0.00  0.00    +0.000 C 
ATOM     27  O   UNL     1       1.002  10.066  19.525  0.00  0.00    +0.000 OA
ENDBRANCH  18  19
ENDBRANCH   3  18
TORSDOF 5
ENDMDL
MODEL 3
REMARK VINA RESULT:      -8.5      5.351      7.288
REMARK  Name = 
REMARK  5 active torsions:
REMARK  status: ('A' for Active; 'I' for Inactive)
REMARK    1  A    between atoms: C_2  and  C_14
REMARK    2  A    between atoms: N_3  and  C_4
REMARK    3  A    between atoms: C_4  and  C_5
REMARK    4  A    between atoms: C_16  and  C_17
REMARK    5  A    between atoms: C_22  and  O_23
REMARK                            x       y       z     vdW  Elec       q    Type
REMARK                         _______ _______ _______ _____ _____    ______ ____
ROOT
ATOM      1  O   UNL     1       5.986   5.287  20.084  0.00  0.00    +0.000 OA
ATOM      2  C   UNL     1       5.655   5.158  18.909  0.00  0.00    +0.000 C 
ATOM      3  N   UNL     1       4.350   5.262  18.482  0.00  0.00    +0.000 N 
ATOM      4  H   UNL     1       4.150   5.129  17.497  0.00  0.00    +0.000 HD
ENDROOT
BRANCH   2   5
ATOM      5  C   UNL     1       6.684   4.968  17.784  0.00  0.00    +0.000 C 
ATOM      6  C   UNL     1       6.080   4.285  16.583  0.00  0.00    +0.000 C 
ATOM      7  C   UNL     1       6.763   5.056  15.508  0.00  0.00    +0.000 C 
ATOM      8  N   UNL     1       7.399   6.111  15.915  0.00  0.00    +0.000 NA
ATOM      9  O   UNL     1       7.183   6.220  17.308  0.00  0.00    +0.000 OA
BRANCH   7  10
ATOM     10  C   UNL     1       6.736   4.621  14.093  0.00  0.00    +0.000 A 
ATOM     11  C   UNL     1       5.751   3.705  13.697  0.00  0.00    +0.000 A 
ATOM     12  C   UNL     1       5.680   3.277  12.368  0.00  0.00    +0.000 A 
ATOM     13  C   UNL     1       6.600   3.746  11.432  0.00  0.00    +0.000 A 
ATOM     14  C   UNL     1       7.595   4.642  11.820  0.00  0.00    +0.000 A 
ATOM     15  C   UNL     1       7.661   5.078  13.146  0.00  0.00    +0.000 A 
BRANCH  15  16
ATOM     16  O   UNL     1       8.660   5.934  13.510  0.00  0.00    +0.000 OA
ATOM     17  H   UNL     1       9.489   5.439  13.607  0.00  0.00    +0.000 HD
ENDBRANCH  15  16
ENDBRANCH   7  10
ENDBRANCH   2   5
BRANCH   3  18
ATOM     18  C   UNL     1       3.252   5.503  19.393  0.00  0.00    +0.000 C 
BRANCH  18  19
ATOM     19  C   UNL     1       2.630   6.867  19.206  0.00  0.00    +0.000 A 
ATOM     20  C   UNL     1       2.677   7.517  17.951  0.00  0.00    +0.000 A 
ATOM     21  C   UNL     1       2.066   8.761  17.754  0.00  0.00    +0.000 A 
ATOM     22  C   UNL     1       1.412   9.331  18.824  0.00  0.00    +0.000 A 
ATOM     23  C   UNL     1       1.347   8.705  20.044  0.00  0.00    +0.000 A 
ATOM     24  C   UNL     1       1.941   7.480  20.266  0.00  0.00    +0.000 A 
ATOM     25  O   UNL     1       0.642   9.424  20.960  0.00  0.00    +0.000 OA
ATOM     26  C   UNL     1       0.312  10.596  20.187  0.00  0.00    +0.000 C 
ATOM     27  O   UNL     1       0.762  10.527  18.818  0.00  0.00    +0.000 OA
ENDBRANCH  18  19
ENDBRANCH   3  18
TORSDOF 5
ENDMDL
MODEL 4
REMARK VINA RESULT:      -8.3      1.082      1.097
REMARK  Name = 
REMARK  5 active torsions:
REMARK  status: ('A' for Active; 'I' for Inactive)
REMARK    1  A    between atoms: C_2  and  C_14
REMARK    2  A    between atoms: N_3  and  C_4
REMARK    3  A    between atoms: C_4  and  C_5
REMARK    4  A    between atoms: C_16  and  C_17
REMARK    5  A    between atoms: C_22  and  O_23
REMARK                            x       y       z     vdW  Elec       q    Type
REMARK                         _______ _______ _______ _____ _____    ______ ____
ROOT
ATOM      1  O   UNL     1       7.629   6.486  16.649  0.00  0.00    +0.000 OA
ATOM      2  C   UNL     1       7.429   6.795  17.820  0.00  0.00    +0.000 C 
ATOM      3  N   UNL     1       7.674   8.057  18.314  0.00  0.00    +0.000 N 
ATOM      4  H   UNL     1       7.499   8.236  19.297  0.00  0.00    +0.000 HD
ENDROOT
BRANCH   2   5
ATOM      5  C   UNL     1       6.785   5.827  18.825  0.00  0.00    +0.000 C 
ATOM      6  C   UNL     1       5.281   5.934  18.818  0.00  0.00    +0.000 C 
ATOM      7  C   UNL     1       4.945   4.491  18.970  0.00  0.00    +0.000 C 
ATOM      8  N   UNL     1       5.947   3.680  18.827  0.00  0.00    +0.000 NA
ATOM      9  O   UNL     1       7.079   4.465  18.507  0.00  0.00    +0.000 OA
BRANCH   7  10
ATOM     10  C   UNL     1       3.572   4.035  19.291  0.00  0.00    +0.000 A 
ATOM     11  C   UNL     1       2.789   4.828  20.141  0.00  0.00    +0.000 A 
ATOM     12  C   UNL     1       1.484   4.444  20.461  0.00  0.00    +0.000 A 
ATOM     13  C   UNL     1       0.960   3.258  19.949  0.00  0.00    +0.000 A 
ATOM     14  C   UNL     1       1.738   2.452  19.119  0.00  0.00    +0.000 A 
ATOM     15  C   UNL     1       3.039   2.841  18.791  0.00  0.00    +0.000 A 
BRANCH  15  16
ATOM     16  O   UNL     1       3.792   2.023  17.999  0.00  0.00    +0.000 OA
ATOM     17  H   UNL     1       4.554   2.517  17.657  0.00  0.00    +0.000 HD
ENDBRANCH  15  16
ENDBRANCH   7  10
ENDBRANCH   2   5
BRANCH   3  18
ATOM     18  C   UNL     1       8.221   9.118  17.496  0.00  0.00    +0.000 C 
BRANCH  18  19
ATOM     19  C   UNL     1       8.715  10.288  18.315  0.00  0.00    +0.000 A 
ATOM     20  C   UNL     1       9.273  10.087  19.598  0.00  0.00    +0.000 A 
ATOM     21  C   UNL     1       9.774  11.158  20.349  0.00  0.00    +0.000 A 
ATOM     22  C   UNL     1       9.709  12.417  19.793  0.00  0.00    +0.000 A 
ATOM     23  C   UNL     1       9.181  12.624  18.542  0.00  0.00    +0.000 A 
ATOM     24  C   UNL     1       8.680  11.587  17.782  0.00  0.00    +0.000 A 
ATOM     25  O   UNL     1       9.226  13.932  18.170  0.00  0.00    +0.000 OA
ATOM     26  C   UNL     1       9.799  14.529  19.351  0.00  0.00    +0.000 C 
ATOM     27  O   UNL     1      10.146  13.569  20.370  0.00  0.00    +0.000 OA
ENDBRANCH  18  19
ENDBRANCH   3  18
TORSDOF 5
ENDMDL
MODEL 5
REMARK VINA RESULT:      -8.2      5.741      7.281
REMARK  Name = 
REMARK  5 active torsions:
REMARK  status: ('A' for Active; 'I' for Inactive)
REMARK    1  A    between atoms: C_2  and  C_14
REMARK    2  A    between atoms: N_3  and  C_4
REMARK    3  A    between atoms: C_4  and  C_5
REMARK    4  A    between atoms: C_16  and  C_17
REMARK    5  A    between atoms: C_22  and  O_23
REMARK                            x       y       z     vdW  Elec       q    Type
REMARK                         _______ _______ _______ _____ _____    ______ ____
ROOT
ATOM      1  O   UNL     1       2.318   3.251  18.965  0.00  0.00    +0.000 OA
ATOM      2  C   UNL     1       3.285   3.974  18.743  0.00  0.00    +0.000 C 
ATOM      3  N   UNL     1       3.405   5.245  19.258  0.00  0.00    +0.000 N 
ATOM      4  H   UNL     1       4.226   5.790  19.019  0.00  0.00    +0.000 HD
ENDROOT
BRANCH   2   5
ATOM      5  C   UNL     1       4.506   3.486  17.948  0.00  0.00    +0.000 C 
ATOM      6  C   UNL     1       4.337   3.720  16.467  0.00  0.00    +0.000 C 
ATOM      7  C   UNL     1       5.730   4.128  16.136  0.00  0.00    +0.000 C 
ATOM      8  N   UNL     1       6.489   4.359  17.163  0.00  0.00    +0.000 NA
ATOM      9  O   UNL     1       5.693   4.190  18.319  0.00  0.00    +0.000 OA
BRANCH   7  10
ATOM     10  C   UNL     1       6.207   4.226  14.737  0.00  0.00    +0.000 A 
ATOM     11  C   UNL     1       5.611   3.404  13.771  0.00  0.00    +0.000 A 
ATOM     12  C   UNL     1       6.020   3.473  12.437  0.00  0.00    +0.000 A 
ATOM     13  C   UNL     1       7.038   4.348  12.062  0.00  0.00    +0.000 A 
ATOM     14  C   UNL     1       7.651   5.156  13.018  0.00  0.00    +0.000 A 
ATOM     15  C   UNL     1       7.236   5.095  14.351  0.00  0.00    +0.000 A 
BRANCH  15  16
ATOM     16  O   UNL     1       7.869   5.874  15.275  0.00  0.00    +0.000 OA
ATOM     17  H   UNL     1       8.103   6.726  14.874  0.00  0.00    +0.000 HD
ENDBRANCH  15  16
ENDBRANCH   7  10
ENDBRANCH   2   5
BRANCH   3  18
ATOM     18  C   UNL     1       2.380   5.847  20.083  0.00  0.00    +0.000 C 
BRANCH  18  19
ATOM     19  C   UNL     1       2.047   7.258  19.658  0.00  0.00    +0.000 A 
ATOM     20  C   UNL     1       2.280   7.686  18.330  0.00  0.00    +0.000 A 
ATOM     21  C   UNL     1       1.935   8.978  17.912  0.00  0.00    +0.000 A 
ATOM     22  C   UNL     1       1.354   9.818  18.837  0.00  0.00    +0.000 A 
ATOM     23  C   UNL     1       1.110   9.411  20.125  0.00  0.00    +0.000 A 
ATOM     24  C   UNL     1       1.442   8.145  20.564  0.00  0.00    +0.000 A 
ATOM     25  O   UNL     1       0.517  10.380  20.874  0.00  0.00    +0.000 OA
ATOM     26  C   UNL     1       0.460  11.460  19.919  0.00  0.00    +0.000 C 
ATOM     27  O   UNL     1       0.953  11.099  18.612  0.00  0.00    +0.000 OA
ENDBRANCH  18  19
ENDBRANCH   3  18
TORSDOF 5
ENDMDL
MODEL 6
REMARK VINA RESULT:      -8.1      1.043      1.142
REMARK  Name = 
REMARK  5 active torsions:
REMARK  status: ('A' for Active; 'I' for Inactive)
REMARK    1  A    between atoms: C_2  and  C_14
REMARK    2  A    between atoms: N_3  and  C_4
REMARK    3  A    between atoms: C_4  and  C_5
REMARK    4  A    between atoms: C_16  and  C_17
REMARK    5  A    between atoms: C_22  and  O_23
REMARK                            x       y       z     vdW  Elec       q    Type
REMARK                         _______ _______ _______ _____ _____    ______ ____
ROOT
ATOM      1  O   UNL     1       7.570   6.757  16.483  0.00  0.00    +0.000 OA
ATOM      2  C   UNL     1       7.420   7.022  17.672  0.00  0.00    +0.000 C 
ATOM      3  N   UNL     1       7.806   8.222  18.227  0.00  0.00    +0.000 N 
ATOM      4  H   UNL     1       7.664   8.365  19.220  0.00  0.00    +0.000 HD
ENDROOT
BRANCH   2   5
ATOM      5  C   UNL     1       6.692   6.074  18.637  0.00  0.00    +0.000 C 
ATOM      6  C   UNL     1       5.223   5.966  18.311  0.00  0.00    +0.000 C 
ATOM      7  C   UNL     1       5.034   4.512  18.569  0.00  0.00    +0.000 C 
ATOM      8  N   UNL     1       6.132   3.841  18.736  0.00  0.00    +0.000 NA
ATOM      9  O   UNL     1       7.206   4.743  18.558  0.00  0.00    +0.000 OA
BRANCH   7  10
ATOM     10  C   UNL     1       3.688   3.900  18.658  0.00  0.00    +0.000 A 
ATOM     11  C   UNL     1       3.358   2.884  17.751  0.00  0.00    +0.000 A 
ATOM     12  C   UNL     1       2.105   2.268  17.806  0.00  0.00    +0.000 A 
ATOM     13  C   UNL     1       1.168   2.675  18.754  0.00  0.00    +0.000 A 
ATOM     14  C   UNL     1       1.479   3.699  19.648  0.00  0.00    +0.000 A 
ATOM     15  C   UNL     1       2.735   4.307  19.600  0.00  0.00    +0.000 A 
BRANCH  15  16
ATOM     16  O   UNL     1       3.008   5.326  20.467  0.00  0.00    +0.000 OA
ATOM     17  H   UNL     1       3.935   5.596  20.366  0.00  0.00    +0.000 HD
ENDBRANCH  15  16
ENDBRANCH   7  10
ENDBRANCH   2   5
BRANCH   3  18
ATOM     18  C   UNL     1       8.451   9.262  17.454  0.00  0.00    +0.000 C 
BRANCH  18  19
ATOM     19  C   UNL     1       8.897  10.427  18.307  0.00  0.00    +0.000 A 
ATOM     20  C   UNL     1       9.367  10.220  19.624  0.00  0.00    +0.000 A 
ATOM     21  C   UNL     1       9.824  11.286  20.409  0.00  0.00    +0.000 A 
ATOM     22  C   UNL     1       9.806  12.546  19.852  0.00  0.00    +0.000 A 
ATOM     23  C   UNL     1       9.364  12.760  18.570  0.00  0.00    +0.000 A 
ATOM     24  C   UNL     1       8.907  11.728  17.776  0.00  0.00    +0.000 A 
ATOM     25  O   UNL     1       9.443  14.068  18.204  0.00  0.00    +0.000 OA
ATOM     26  C   UNL     1       9.940  14.659  19.422  0.00  0.00    +0.000 C 
ATOM     27  O   UNL     1      10.212  13.694  20.460  0.00  0.00    +0.000 OA
ENDBRANCH  18  19
ENDBRANCH   3  18
TORSDOF 5
ENDMDL
MODEL 7
REMARK VINA RESULT:      -8.0      1.239      1.748
REMARK  Name = 
REMARK  5 active torsions:
REMARK  status: ('A' for Active; 'I' for Inactive)
REMARK    1  A    between atoms: C_2  and  C_14
REMARK    2  A    between atoms: N_3  and  C_4
REMARK    3  A    between atoms: C_4  and  C_5
REMARK    4  A    between atoms: C_16  and  C_17
REMARK    5  A    between atoms: C_22  and  O_23
REMARK                            x       y       z     vdW  Elec       q    Type
REMARK                         _______ _______ _______ _____ _____    ______ ____
ROOT
ATOM      1  O   UNL     1       7.405   6.514  16.558  0.00  0.00    +0.000 OA
ATOM      2  C   UNL     1       7.384   6.788  17.754  0.00  0.00    +0.000 C 
ATOM      3  N   UNL     1       7.856   7.979  18.259  0.00  0.00    +0.000 N 
ATOM      4  H   UNL     1       7.820   8.129  19.261  0.00  0.00    +0.000 HD
ENDROOT
BRANCH   2   5
ATOM      5  C   UNL     1       6.734   5.863  18.795  0.00  0.00    +0.000 C 
ATOM      6  C   UNL     1       5.228   5.951  18.756  0.00  0.00    +0.000 C 
ATOM      7  C   UNL     1       4.906   4.514  18.975  0.00  0.00    +0.000 C 
ATOM      8  N   UNL     1       5.921   3.709  18.892  0.00  0.00    +0.000 NA
ATOM      9  O   UNL     1       7.049   4.491  18.552  0.00  0.00    +0.000 OA
BRANCH   7  10
ATOM     10  C   UNL     1       3.534   4.057  19.294  0.00  0.00    +0.000 A 
ATOM     11  C   UNL     1       2.735   4.870  20.111  0.00  0.00    +0.000 A 
ATOM     12  C   UNL     1       1.430   4.485  20.427  0.00  0.00    +0.000 A 
ATOM     13  C   UNL     1       0.920   3.281  19.946  0.00  0.00    +0.000 A 
ATOM     14  C   UNL     1       1.713   2.456  19.150  0.00  0.00    +0.000 A 
ATOM     15  C   UNL     1       3.015   2.844  18.825  0.00  0.00    +0.000 A 
BRANCH  15  16
ATOM     16  O   UNL     1       3.782   2.008  18.068  0.00  0.00    +0.000 OA
ATOM     17  H   UNL     1       3.538   1.088  18.254  0.00  0.00    +0.000 HD
ENDBRANCH  15  16
ENDBRANCH   7  10
ENDBRANCH   2   5
BRANCH   3  18
ATOM     18  C   UNL     1       8.445   8.998  17.418  0.00  0.00    +0.000 C 
BRANCH  18  19
ATOM     19  C   UNL     1       8.754  10.269  18.174  0.00  0.00    +0.000 A 
ATOM     20  C   UNL     1       8.566  11.533  17.569  0.00  0.00    +0.000 A 
ATOM     21  C   UNL     1       8.806  12.719  18.275  0.00  0.00    +0.000 A 
ATOM     22  C   UNL     1       9.229  12.614  19.582  0.00  0.00    +0.000 A 
ATOM     23  C   UNL     1       9.403  11.393  20.185  0.00  0.00    +0.000 A 
ATOM     24  C   UNL     1       9.175  10.209  19.513  0.00  0.00    +0.000 A 
ATOM     25  O   UNL     1       9.807  11.505  21.480  0.00  0.00    +0.000 OA
ATOM     26  C   UNL     1       9.912  12.939  21.606  0.00  0.00    +0.000 C 
ATOM     27  O   UNL     1       9.508  13.651  20.417  0.00  0.00    +0.000 OA
ENDBRANCH  18  19
ENDBRANCH   3  18
TORSDOF 5
ENDMDL
MODEL 8
REMARK VINA RESULT:      -7.9      2.039      2.307
REMARK  Name = 
REMARK  5 active torsions:
REMARK  status: ('A' for Active; 'I' for Inactive)
REMARK    1  A    between atoms: C_2  and  C_14
REMARK    2  A    between atoms: N_3  and  C_4
REMARK    3  A    between atoms: C_4  and  C_5
REMARK    4  A    between atoms: C_16  and  C_17
REMARK    5  A    between atoms: C_22  and  O_23
REMARK                            x       y       z     vdW  Elec       q    Type
REMARK                         _______ _______ _______ _____ _____    ______ ____
ROOT
ATOM      1  O   UNL     1       7.265   6.176  16.077  0.00  0.00    +0.000 OA
ATOM      2  C   UNL     1       6.524   6.871  16.766  0.00  0.00    +0.000 C 
ATOM      3  N   UNL     1       6.975   7.941  17.506  0.00  0.00    +0.000 N 
ATOM      4  H   UNL     1       6.306   8.461  18.064  0.00  0.00    +0.000 HD
ENDROOT
BRANCH   2   5
ATOM      5  C   UNL     1       5.000   6.674  16.786  0.00  0.00    +0.000 C 
ATOM      6  C   UNL     1       4.617   5.350  17.399  0.00  0.00    +0.000 C 
ATOM      7  C   UNL     1       3.412   5.785  18.157  0.00  0.00    +0.000 C 
ATOM      8  N   UNL     1       3.248   7.070  18.229  0.00  0.00    +0.000 NA
ATOM      9  O   UNL     1       4.350   7.670  17.577  0.00  0.00    +0.000 OA
BRANCH   7  10
ATOM     10  C   UNL     1       2.465   4.813  18.751  0.00  0.00    +0.000 A 
ATOM     11  C   UNL     1       2.025   3.744  17.958  0.00  0.00    +0.000 A 
ATOM     12  C   UNL     1       1.141   2.796  18.481  0.00  0.00    +0.000 A 
ATOM     13  C   UNL     1       0.679   2.918  19.790  0.00  0.00    +0.000 A 
ATOM     14  C   UNL     1       1.095   3.988  20.580  0.00  0.00    +0.000 A 
ATOM     15  C   UNL     1       1.986   4.931  20.062  0.00  0.00    +0.000 A 
BRANCH  15  16
ATOM     16  O   UNL     1       2.358   5.986  20.844  0.00  0.00    +0.000 OA
ATOM     17  H   UNL     1       1.767   6.043  21.611  0.00  0.00    +0.000 HD
ENDBRANCH  15  16
ENDBRANCH   7  10
ENDBRANCH   2   5
BRANCH   3  18
ATOM     18  C   UNL     1       8.371   8.316  17.557  0.00  0.00    +0.000 C 
BRANCH  18  19
ATOM     19  C   UNL     1       8.586   9.675  18.181  0.00  0.00    +0.000 A 
ATOM     20  C   UNL     1       9.220   9.800  19.439  0.00  0.00    +0.000 A 
ATOM     21  C   UNL     1       9.464  11.056  20.008  0.00  0.00    +0.000 A 
ATOM     22  C   UNL     1       9.070  12.169  19.298  0.00  0.00    +0.000 A 
ATOM     23  C   UNL     1       8.465  12.063  18.070  0.00  0.00    +0.000 A 
ATOM     24  C   UNL     1       8.212  10.838  17.488  0.00  0.00    +0.000 A 
ATOM     25  O   UNL     1       8.171  13.276  17.528  0.00  0.00    +0.000 OA
ATOM     26  C   UNL     1       8.618  14.156  18.580  0.00  0.00    +0.000 C 
ATOM     27  O   UNL     1       9.226  13.463  19.690  0.00  0.00    +0.000 OA
ENDBRANCH  18  19
ENDBRANCH   3  18
TORSDOF 5
ENDMDL
MODEL 9
REMARK VINA RESULT:      -7.8      5.632      7.391
REMARK  Name = 
REMARK  5 active torsions:
REMARK  status: ('A' for Active; 'I' for Inactive)
REMARK    1  A    between atoms: C_2  and  C_14
REMARK    2  A    between atoms: N_3  and  C_4
REMARK    3  A    between atoms: C_4  and  C_5
REMARK    4  A    between atoms: C_16  and  C_17
REMARK    5  A    between atoms: C_22  and  O_23
REMARK                            x       y       z     vdW  Elec       q    Type
REMARK                         _______ _______ _______ _____ _____    ______ ____
ROOT
ATOM      1  O   UNL     1       0.648   4.389  20.505  0.00  0.00    +0.000 OA
ATOM      2  C   UNL     1       1.721   4.806  20.079  0.00  0.00    +0.000 C 
ATOM      3  N   UNL     1       2.210   6.058  20.376  0.00  0.00    +0.000 N 
ATOM      4  H   UNL     1       3.098   6.340  19.974  0.00  0.00    +0.000 HD
ENDROOT
BRANCH   2   5
ATOM      5  C   UNL     1       2.671   3.926  19.252  0.00  0.00    +0.000 C 
ATOM      6  C   UNL     1       3.156   4.638  18.013  0.00  0.00    +0.000 C 
ATOM      7  C   UNL     1       4.565   4.160  18.007  0.00  0.00    +0.000 C 
ATOM      8  N   UNL     1       4.939   3.549  19.090  0.00  0.00    +0.000 NA
ATOM      9  O   UNL     1       3.847   3.583  19.987  0.00  0.00    +0.000 OA
BRANCH   7  10
ATOM     10  C   UNL     1       5.452   4.347  16.835  0.00  0.00    +0.000 A 
ATOM     11  C   UNL     1       4.887   4.272  15.555  0.00  0.00    +0.000 A 
ATOM     12  C   UNL     1       5.683   4.455  14.421  0.00  0.00    +0.000 A 
ATOM     13  C   UNL     1       7.049   4.696  14.557  0.00  0.00    +0.000 A 
ATOM     14  C   UNL     1       7.625   4.752  15.826  0.00  0.00    +0.000 A 
ATOM     15  C   UNL     1       6.828   4.579  16.960  0.00  0.00    +0.000 A 
BRANCH  15  16
ATOM     16  O   UNL     1       7.417   4.611  18.191  0.00  0.00    +0.000 OA
ATOM     17  H   UNL     1       6.814   4.226  18.847  0.00  0.00    +0.000 HD
ENDBRANCH  15  16
ENDBRANCH   7  10
ENDBRANCH   2   5
BRANCH   3  18
ATOM     18  C   UNL     1       1.480   7.002  21.194  0.00  0.00    +0.000 C 
BRANCH  18  19
ATOM     19  C   UNL     1       1.174   8.289  20.465  0.00  0.00    +0.000 A 
ATOM     20  C   UNL     1       1.716   8.539  19.182  0.00  0.00    +0.000 A 
ATOM     21  C   UNL     1       1.405   9.709  18.477  0.00  0.00    +0.000 A 
ATOM     22  C   UNL     1       0.547  10.608  19.073  0.00  0.00    +0.000 A 
ATOM     23  C   UNL     1       0.004  10.372  20.311  0.00  0.00    +0.000 A 
ATOM     24  C   UNL     1       0.295   9.229  21.028  0.00  0.00    +0.000 A 
ATOM     25  O   UNL     1      -0.829  11.371  20.713  0.00  0.00    +0.000 OA
ATOM     26  C   UNL     1      -0.708  12.284  19.603  0.00  0.00    +0.000 C 
ATOM     27  O   UNL     1       0.133  11.789  18.540  0.00  0.00    +0.000 OA
ENDBRANCH  18  19
ENDBRANCH   3  18
TORSDOF 5
ENDMDL
