MODEL 1
REMARK VINA RESULT:      -6.4      0.000      0.000
REMARK  Name = 
REMARK  4 active torsions:
REMARK  status: ('A' for Active; 'I' for Inactive)
REMARK    1  A    between atoms: N_1  and  C_2
REMARK    2  A    between atoms: C_2  and  C_3
REMARK    3  A    between atoms: C_3  and  C_4
REMARK    4  A    between atoms: C_7  and  C_8
REMARK                            x       y       z     vdW  Elec       q    Type
REMARK                         _______ _______ _______ _____ _____    ______ ____
ROOT
ATOM      1  C   UNL     1       6.267   4.549  17.663  0.00  0.00    +0.000 A 
ATOM      2  C   UNL     1       5.621   4.417  16.456  0.00  0.00    +0.000 A 
ATOM      3  N   UNL     1       4.332   4.102  16.773  0.00  0.00    +0.000 N 
ATOM      4  C   UNL     1       4.218   4.056  18.144  0.00  0.00    +0.000 A 
ATOM      5  N   UNL     1       5.385   4.331  18.698  0.00  0.00    +0.000 NA
ATOM      6  H   UNL     1       3.572   3.968  16.123  0.00  0.00    +0.000 HD
ENDROOT
BRANCH   4   7
ATOM      7  C   UNL     1       2.951   3.806  18.837  0.00  0.00    +0.000 A 
ATOM      8  C   UNL     1       2.629   4.452  20.040  0.00  0.00    +0.000 A 
ATOM      9  C   UNL     1       1.443   4.149  20.714  0.00  0.00    +0.000 A 
ATOM     10  C   UNL     1       0.563   3.206  20.189  0.00  0.00    +0.000 A 
ATOM     11  C   UNL     1       0.858   2.577  18.981  0.00  0.00    +0.000 A 
ATOM     12  C   UNL     1       2.043   2.880  18.307  0.00  0.00    +0.000 A 
ENDBRANCH   4   7
BRANCH   1  13
ATOM     13  C   UNL     1       7.694   4.883  17.926  0.00  0.00    +0.000 C 
BRANCH  13  14
ATOM     14  C   UNL     1       7.835   5.980  18.983  0.00  0.00    +0.000 C 
BRANCH  14  15
ATOM     15  N   UNL     1       7.928   5.423  20.336  0.00  0.00    +0.000 NA
ATOM     16  H   UNL     1       8.578   4.637  20.324  0.00  0.00    +0.000 HD
ATOM     17  H   UNL     1       7.023   5.033  20.598  0.00  0.00    +0.000 HD
ENDBRANCH  14  15
ENDBRANCH  13  14
ENDBRANCH   1  13
TORSDOF 4
ENDMDL
MODEL 2
REMARK VINA RESULT:      -6.4      0.130      1.295
REMARK  Name = 
REMARK  4 active torsions:
REMARK  status: ('A' for Active; 'I' for Inactive)
REMARK    1  A    between atoms: N_1  and  C_2
REMARK    2  A    between atoms: C_2  and  C_3
REMARK    3  A    between atoms: C_3  and  C_4
REMARK    4  A    between atoms: C_7  and  C_8
REMARK                            x       y       z     vdW  Elec       q    Type
REMARK                         _______ _______ _______ _____ _____    ______ ____
ROOT
ATOM      1  C   UNL     1       6.301   4.581  17.730  0.00  0.00    +0.000 A 
ATOM      2  C   UNL     1       5.614   4.635  16.540  0.00  0.00    +0.000 A 
ATOM      3  N   UNL     1       4.331   4.290  16.852  0.00  0.00    +0.000 N 
ATOM      4  C   UNL     1       4.261   4.044  18.205  0.00  0.00    +0.000 A 
ATOM      5  N   UNL     1       5.450   4.222  18.752  0.00  0.00    +0.000 NA
ATOM      6  H   UNL     1       3.548   4.262  16.217  0.00  0.00    +0.000 HD
ENDROOT
BRANCH   4   7
ATOM      7  C   UNL     1       3.015   3.708  18.898  0.00  0.00    +0.000 A 
ATOM      8  C   UNL     1       2.089   2.806  18.353  0.00  0.00    +0.000 A 
ATOM      9  C   UNL     1       0.878   2.550  19.003  0.00  0.00    +0.000 A 
ATOM     10  C   UNL     1       0.584   3.186  20.205  0.00  0.00    +0.000 A 
ATOM     11  C   UNL     1       1.506   4.064  20.771  0.00  0.00    +0.000 A 
ATOM     12  C   UNL     1       2.717   4.319  20.123  0.00  0.00    +0.000 A 
ENDBRANCH   4   7
BRANCH   1  13
ATOM     13  C   UNL     1       7.741   4.857  17.989  0.00  0.00    +0.000 C 
BRANCH  13  14
ATOM     14  C   UNL     1       7.928   5.965  19.029  0.00  0.00    +0.000 C 
BRANCH  14  15
ATOM     15  N   UNL     1       8.028   5.423  20.388  0.00  0.00    +0.000 NA
ATOM     16  H   UNL     1       7.605   6.085  21.038  0.00  0.00    +0.000 HD
ATOM     17  H   UNL     1       9.012   5.363  20.650  0.00  0.00    +0.000 HD
ENDBRANCH  14  15
ENDBRANCH  13  14
ENDBRANCH   1  13
TORSDOF 4
ENDMDL
MODEL 3
REMARK VINA RESULT:      -6.2      1.819      5.575
REMARK  Name = 
REMARK  4 active torsions:
REMARK  status: ('A' for Active; 'I' for Inactive)
REMARK    1  A    between atoms: N_1  and  C_2
REMARK    2  A    between atoms: C_2  and  C_3
REMARK    3  A    between atoms: C_3  and  C_4
REMARK    4  A    between atoms: C_7  and  C_8
REMARK                            x       y       z     vdW  Elec       q    Type
REMARK                         _______ _______ _______ _____ _____    ______ ____
ROOT
ATOM      1  C   UNL     1       3.177   3.190  20.092  0.00  0.00    +0.000 A 
ATOM      2  C   UNL     1       4.217   2.291  20.109  0.00  0.00    +0.000 A 
ATOM      3  N   UNL     1       5.267   2.949  19.539  0.00  0.00    +0.000 N 
ATOM      4  C   UNL     1       4.855   4.218  19.198  0.00  0.00    +0.000 A 
ATOM      5  N   UNL     1       3.588   4.380  19.534  0.00  0.00    +0.000 NA
ATOM      6  H   UNL     1       6.204   2.594  19.422  0.00  0.00    +0.000 HD
ENDROOT
BRANCH   4   7
ATOM      7  C   UNL     1       5.748   5.225  18.618  0.00  0.00    +0.000 A 
ATOM      8  C   UNL     1       7.026   5.466  19.142  0.00  0.00    +0.000 A 
ATOM      9  C   UNL     1       7.834   6.475  18.611  0.00  0.00    +0.000 A 
ATOM     10  C   UNL     1       7.378   7.246  17.546  0.00  0.00    +0.000 A 
ATOM     11  C   UNL     1       6.121   6.999  16.997  0.00  0.00    +0.000 A 
ATOM     12  C   UNL     1       5.313   5.990  17.528  0.00  0.00    +0.000 A 
ENDBRANCH   4   7
BRANCH   1  13
ATOM     13  C   UNL     1       1.783   3.012  20.585  0.00  0.00    +0.000 C 
BRANCH  13  14
ATOM     14  C   UNL     1       0.763   3.093  19.446  0.00  0.00    +0.000 C 
BRANCH  14  15
ATOM     15  N   UNL     1       1.364   2.748  18.154  0.00  0.00    +0.000 NA
ATOM     16  H   UNL     1       0.632   2.731  17.444  0.00  0.00    +0.000 HD
ATOM     17  H   UNL     1       1.729   1.797  18.200  0.00  0.00    +0.000 HD
ENDBRANCH  14  15
ENDBRANCH  13  14
ENDBRANCH   1  13
TORSDOF 4
ENDMDL
MODEL 4
REMARK VINA RESULT:      -6.1      1.454      1.741
REMARK  Name = 
REMARK  4 active torsions:
REMARK  status: ('A' for Active; 'I' for Inactive)
REMARK    1  A    between atoms: N_1  and  C_2
REMARK    2  A    between atoms: C_2  and  C_3
REMARK    3  A    between atoms: C_3  and  C_4
REMARK    4  A    between atoms: C_7  and  C_8
REMARK                            x       y       z     vdW  Elec       q    Type
REMARK                         _______ _______ _______ _____ _____    ______ ____
ROOT
ATOM      1  C   UNL     1       6.687   5.552  17.144  0.00  0.00    +0.000 A 
ATOM      2  C   UNL     1       6.882   4.468  16.320  0.00  0.00    +0.000 A 
ATOM      3  N   UNL     1       5.809   3.655  16.538  0.00  0.00    +0.000 N 
ATOM      4  C   UNL     1       4.990   4.253  17.471  0.00  0.00    +0.000 A 
ATOM      5  N   UNL     1       5.510   5.409  17.843  0.00  0.00    +0.000 NA
ATOM      6  H   UNL     1       5.612   2.784  16.069  0.00  0.00    +0.000 HD
ENDROOT
BRANCH   4   7
ATOM      7  C   UNL     1       3.709   3.685  17.898  0.00  0.00    +0.000 A 
ATOM      8  C   UNL     1       3.617   2.387  18.422  0.00  0.00    +0.000 A 
ATOM      9  C   UNL     1       2.375   1.844  18.764  0.00  0.00    +0.000 A 
ATOM     10  C   UNL     1       1.215   2.595  18.593  0.00  0.00    +0.000 A 
ATOM     11  C   UNL     1       1.295   3.895  18.099  0.00  0.00    +0.000 A 
ATOM     12  C   UNL     1       2.536   4.438  17.758  0.00  0.00    +0.000 A 
ENDBRANCH   4   7
BRANCH   1  13
ATOM     13  C   UNL     1       7.548   6.753  17.323  0.00  0.00    +0.000 C 
BRANCH  13  14
ATOM     14  C   UNL     1       8.055   6.879  18.763  0.00  0.00    +0.000 C 
BRANCH  14  15
ATOM     15  N   UNL     1       8.046   5.588  19.457  0.00  0.00    +0.000 NA
ATOM     16  H   UNL     1       7.948   5.753  20.458  0.00  0.00    +0.000 HD
ATOM     17  H   UNL     1       8.953   5.139  19.335  0.00  0.00    +0.000 HD
ENDBRANCH  14  15
ENDBRANCH  13  14
ENDBRANCH   1  13
TORSDOF 4
ENDMDL
MODEL 5
REMARK VINA RESULT:      -6.1      1.846      5.512
REMARK  Name = 
REMARK  4 active torsions:
REMARK  status: ('A' for Active; 'I' for Inactive)
REMARK    1  A    between atoms: N_1  and  C_2
REMARK    2  A    between atoms: C_2  and  C_3
REMARK    3  A    between atoms: C_3  and  C_4
REMARK    4  A    between atoms: C_7  and  C_8
REMARK                            x       y       z     vdW  Elec       q    Type
REMARK                         _______ _______ _______ _____ _____    ______ ____
ROOT
ATOM      1  C   UNL     1       3.155   2.912  18.955  0.00  0.00    +0.000 A 
ATOM      2  C   UNL     1       4.144   2.274  19.666  0.00  0.00    +0.000 A 
ATOM      3  N   UNL     1       5.258   3.044  19.499  0.00  0.00    +0.000 N 
ATOM      4  C   UNL     1       4.929   4.123  18.708  0.00  0.00    +0.000 A 
ATOM      5  N   UNL     1       3.653   4.058  18.375  0.00  0.00    +0.000 NA
ATOM      6  H   UNL     1       6.162   2.886  19.916  0.00  0.00    +0.000 HD
ENDROOT
BRANCH   4   7
ATOM      7  C   UNL     1       5.873   5.193  18.376  0.00  0.00    +0.000 A 
ATOM      8  C   UNL     1       7.083   5.350  19.068  0.00  0.00    +0.000 A 
ATOM      9  C   UNL     1       7.937   6.416  18.774  0.00  0.00    +0.000 A 
ATOM     10  C   UNL     1       7.596   7.330  17.781  0.00  0.00    +0.000 A 
ATOM     11  C   UNL     1       6.410   7.171  17.067  0.00  0.00    +0.000 A 
ATOM     12  C   UNL     1       5.556   6.104  17.360  0.00  0.00    +0.000 A 
ENDBRANCH   4   7
BRANCH   1  13
ATOM     13  C   UNL     1       1.730   2.518  18.781  0.00  0.00    +0.000 C 
BRANCH  13  14
ATOM     14  C   UNL     1       0.852   3.041  19.921  0.00  0.00    +0.000 C 
BRANCH  14  15
ATOM     15  N   UNL     1       1.243   4.393  20.330  0.00  0.00    +0.000 NA
ATOM     16  H   UNL     1       0.908   5.058  19.634  0.00  0.00    +0.000 HD
ATOM     17  H   UNL     1       2.260   4.463  20.318  0.00  0.00    +0.000 HD
ENDBRANCH  14  15
ENDBRANCH  13  14
ENDBRANCH   1  13
TORSDOF 4
ENDMDL
MODEL 6
REMARK VINA RESULT:      -6.1      1.294      1.315
REMARK  Name = 
REMARK  4 active torsions:
REMARK  status: ('A' for Active; 'I' for Inactive)
REMARK    1  A    between atoms: N_1  and  C_2
REMARK    2  A    between atoms: C_2  and  C_3
REMARK    3  A    between atoms: C_3  and  C_4
REMARK    4  A    between atoms: C_7  and  C_8
REMARK                            x       y       z     vdW  Elec       q    Type
REMARK                         _______ _______ _______ _____ _____    ______ ____
ROOT
ATOM      1  C   UNL     1       5.838   6.217  17.841  0.00  0.00    +0.000 A 
ATOM      2  C   UNL     1       4.938   6.960  17.114  0.00  0.00    +0.000 A 
ATOM      3  N   UNL     1       3.717   6.424  17.401  0.00  0.00    +0.000 N 
ATOM      4  C   UNL     1       3.894   5.385  18.288  0.00  0.00    +0.000 A 
ATOM      5  N   UNL     1       5.177   5.252  18.568  0.00  0.00    +0.000 NA
ATOM      6  H   UNL     1       2.825   6.752  17.064  0.00  0.00    +0.000 HD
ENDROOT
BRANCH   4   7
ATOM      7  C   UNL     1       2.783   4.620  18.861  0.00  0.00    +0.000 A 
ATOM      8  C   UNL     1       2.337   4.839  20.173  0.00  0.00    +0.000 A 
ATOM      9  C   UNL     1       1.317   4.053  20.718  0.00  0.00    +0.000 A 
ATOM     10  C   UNL     1       0.729   3.048  19.956  0.00  0.00    +0.000 A 
ATOM     11  C   UNL     1       1.144   2.837  18.643  0.00  0.00    +0.000 A 
ATOM     12  C   UNL     1       2.162   3.624  18.097  0.00  0.00    +0.000 A 
ENDBRANCH   4   7
BRANCH   1  13
ATOM     13  C   UNL     1       7.319   6.354  17.912  0.00  0.00    +0.000 C 
BRANCH  13  14
ATOM     14  C   UNL     1       7.949   5.272  18.792  0.00  0.00    +0.000 C 
BRANCH  14  15
ATOM     15  N   UNL     1       7.810   5.582  20.218  0.00  0.00    +0.000 NA
ATOM     16  H   UNL     1       8.699   5.400  20.683  0.00  0.00    +0.000 HD
ATOM     17  H   UNL     1       7.139   4.937  20.635  0.00  0.00    +0.000 HD
ENDBRANCH  14  15
ENDBRANCH  13  14
ENDBRANCH   1  13
TORSDOF 4
ENDMDL
MODEL 7
REMARK VINA RESULT:      -6.0      1.983      5.685
REMARK  Name = 
REMARK  4 active torsions:
REMARK  status: ('A' for Active; 'I' for Inactive)
REMARK    1  A    between atoms: N_1  and  C_2
REMARK    2  A    between atoms: C_2  and  C_3
REMARK    3  A    between atoms: C_3  and  C_4
REMARK    4  A    between atoms: C_7  and  C_8
REMARK                            x       y       z     vdW  Elec       q    Type
REMARK                         _______ _______ _______ _____ _____    ______ ____
ROOT
ATOM      1  C   UNL     1       2.325   3.898  20.048  0.00  0.00    +0.000 A 
ATOM      2  C   UNL     1       2.073   5.154  20.550  0.00  0.00    +0.000 A 
ATOM      3  N   UNL     1       3.133   5.916  20.153  0.00  0.00    +0.000 N 
ATOM      4  C   UNL     1       3.992   5.125  19.422  0.00  0.00    +0.000 A 
ATOM      5  N   UNL     1       3.510   3.898  19.347  0.00  0.00    +0.000 NA
ATOM      6  H   UNL     1       3.256   6.903  20.320  0.00  0.00    +0.000 HD
ENDROOT
BRANCH   4   7
ATOM      7  C   UNL     1       5.208   5.635  18.786  0.00  0.00    +0.000 A 
ATOM      8  C   UNL     1       6.478   5.409  19.336  0.00  0.00    +0.000 A 
ATOM      9  C   UNL     1       7.618   5.960  18.744  0.00  0.00    +0.000 A 
ATOM     10  C   UNL     1       7.502   6.733  17.592  0.00  0.00    +0.000 A 
ATOM     11  C   UNL     1       6.250   6.942  17.019  0.00  0.00    +0.000 A 
ATOM     12  C   UNL     1       5.110   6.391  17.610  0.00  0.00    +0.000 A 
ENDBRANCH   4   7
BRANCH   1  13
ATOM     13  C   UNL     1       1.505   2.662  20.176  0.00  0.00    +0.000 C 
BRANCH  13  14
ATOM     14  C   UNL     1       0.851   2.275  18.847  0.00  0.00    +0.000 C 
BRANCH  14  15
ATOM     15  N   UNL     1       1.847   1.910  17.836  0.00  0.00    +0.000 NA
ATOM     16  H   UNL     1       2.015   2.715  17.233  0.00  0.00    +0.000 HD
ATOM     17  H   UNL     1       1.459   1.186  17.233  0.00  0.00    +0.000 HD
ENDBRANCH  14  15
ENDBRANCH  13  14
ENDBRANCH   1  13
TORSDOF 4
ENDMDL
MODEL 8
REMARK VINA RESULT:      -6.0      1.849      5.266
REMARK  Name = 
REMARK  4 active torsions:
REMARK  status: ('A' for Active; 'I' for Inactive)
REMARK    1  A    between atoms: N_1  and  C_2
REMARK    2  A    between atoms: C_2  and  C_3
REMARK    3  A    between atoms: C_3  and  C_4
REMARK    4  A    between atoms: C_7  and  C_8
REMARK                            x       y       z     vdW  Elec       q    Type
REMARK                         _______ _______ _______ _____ _____    ______ ____
ROOT
ATOM      1  C   UNL     1       2.497   2.789  19.126  0.00  0.00    +0.000 A 
ATOM      2  C   UNL     1       3.111   1.832  18.351  0.00  0.00    +0.000 A 
ATOM      3  N   UNL     1       4.241   2.430  17.875  0.00  0.00    +0.000 N 
ATOM      4  C   UNL     1       4.297   3.715  18.366  0.00  0.00    +0.000 A 
ATOM      5  N   UNL     1       3.246   3.945  19.132  0.00  0.00    +0.000 NA
ATOM      6  H   UNL     1       4.948   1.999  17.297  0.00  0.00    +0.000 HD
ENDROOT
BRANCH   4   7
ATOM      7  C   UNL     1       5.413   4.627  18.105  0.00  0.00    +0.000 A 
ATOM      8  C   UNL     1       6.269   5.056  19.130  0.00  0.00    +0.000 A 
ATOM      9  C   UNL     1       7.288   5.976  18.868  0.00  0.00    +0.000 A 
ATOM     10  C   UNL     1       7.468   6.470  17.579  0.00  0.00    +0.000 A 
ATOM     11  C   UNL     1       6.642   6.032  16.546  0.00  0.00    +0.000 A 
ATOM     12  C   UNL     1       5.624   5.111  16.808  0.00  0.00    +0.000 A 
ENDBRANCH   4   7
BRANCH   1  13
ATOM     13  C   UNL     1       1.224   2.692  19.891  0.00  0.00    +0.000 C 
BRANCH  13  14
ATOM     14  C   UNL     1       1.408   3.103  21.354  0.00  0.00    +0.000 C 
BRANCH  14  15
ATOM     15  N   UNL     1       2.662   2.585  21.910  0.00  0.00    +0.000 NA
ATOM     16  H   UNL     1       2.464   2.132  22.802  0.00  0.00    +0.000 HD
ATOM     17  H   UNL     1       3.278   3.368  22.125  0.00  0.00    +0.000 HD
ENDBRANCH  14  15
ENDBRANCH  13  14
ENDBRANCH   1  13
TORSDOF 4
ENDMDL
MODEL 9
REMARK VINA RESULT:      -6.0      1.874      2.515
REMARK  Name = 
REMARK  4 active torsions:
REMARK  status: ('A' for Active; 'I' for Inactive)
REMARK    1  A    between atoms: N_1  and  C_2
REMARK    2  A    between atoms: C_2  and  C_3
REMARK    3  A    between atoms: C_3  and  C_4
REMARK    4  A    between atoms: C_7  and  C_8
REMARK                            x       y       z     vdW  Elec       q    Type
REMARK                         _______ _______ _______ _____ _____    ______ ____
ROOT
ATOM      1  C   UNL     1       4.897   5.501  16.263  0.00  0.00    +0.000 A 
ATOM      2  C   UNL     1       4.650   6.697  16.896  0.00  0.00    +0.000 A 
ATOM      3  N   UNL     1       3.782   6.394  17.903  0.00  0.00    +0.000 N 
ATOM      4  C   UNL     1       3.526   5.041  17.870  0.00  0.00    +0.000 A 
ATOM      5  N   UNL     1       4.202   4.486  16.880  0.00  0.00    +0.000 NA
ATOM      6  H   UNL     1       3.417   7.035  18.592  0.00  0.00    +0.000 HD
ENDROOT
BRANCH   4   7
ATOM      7  C   UNL     1       2.680   4.358  18.851  0.00  0.00    +0.000 A 
ATOM      8  C   UNL     1       1.699   3.434  18.463  0.00  0.00    +0.000 A 
ATOM      9  C   UNL     1       0.862   2.843  19.413  0.00  0.00    +0.000 A 
ATOM     10  C   UNL     1       1.003   3.162  20.761  0.00  0.00    +0.000 A 
ATOM     11  C   UNL     1       1.992   4.057  21.164  0.00  0.00    +0.000 A 
ATOM     12  C   UNL     1       2.829   4.647  20.214  0.00  0.00    +0.000 A 
ENDBRANCH   4   7
BRANCH   1  13
ATOM     13  C   UNL     1       5.772   5.232  15.088  0.00  0.00    +0.000 C 
BRANCH  13  14
ATOM     14  C   UNL     1       7.153   4.725  15.512  0.00  0.00    +0.000 C 
BRANCH  14  15
ATOM     15  N   UNL     1       7.153   4.244  16.897  0.00  0.00    +0.000 NA
ATOM     16  H   UNL     1       6.421   4.730  17.415  0.00  0.00    +0.000 HD
ATOM     17  H   UNL     1       8.032   4.509  17.340  0.00  0.00    +0.000 HD
ENDBRANCH  14  15
ENDBRANCH  13  14
ENDBRANCH   1  13
TORSDOF 4
ENDMDL
