MODEL 1
REMARK VINA RESULT:      -8.5      0.000      0.000
REMARK  Name = 
REMARK  7 active torsions:
REMARK  status: ('A' for Active; 'I' for Inactive)
REMARK    1  A    between atoms: C_1  and  C_2
REMARK    2  A    between atoms: C_2  and  O_3
REMARK    3  A    between atoms: O_3  and  C_4
REMARK    4  A    between atoms: C_4  and  C_6
REMARK    5  A    between atoms: C_6  and  C_7
REMARK    6  A    between atoms: C_10  and  N_11
REMARK    7  A    between atoms: C_18  and  C_19
REMARK                            x       y       z     vdW  Elec       q    Type
REMARK                         _______ _______ _______ _____ _____    ______ ____
ROOT
ATOM      1  N   UNL     1       2.348   7.219  18.732  0.00  0.00    +0.000 N 
ATOM      2  C   UNL     1       1.955   8.516  18.409  0.00  0.00    +0.000 C 
ATOM      3  O   UNL     1       2.184   9.168  17.401  0.00  0.00    +0.000 OA
ATOM      4  N   UNL     1       1.131   9.076  19.442  0.00  0.00    +0.000 N 
ATOM      5  N   UNL     1       1.380   8.734  20.751  0.00  0.00    +0.000 NA
ATOM      6  C   UNL     1       0.790   9.709  21.447  0.00  0.00    +0.000 A 
ATOM      7  C   UNL     1      -0.056  10.530  20.659  0.00  0.00    +0.000 A 
ATOM      8  C   UNL     1      -0.936  11.616  20.907  0.00  0.00    +0.000 A 
ATOM      9  C   UNL     1      -1.016  12.372  22.208  0.00  0.00    +0.000 C 
ATOM     10  C   UNL     1      -1.814  11.982  19.869  0.00  0.00    +0.000 A 
ATOM     11  C   UNL     1      -1.746  11.375  18.617  0.00  0.00    +0.000 A 
ATOM     12  C   UNL     1      -0.758  10.425  18.324  0.00  0.00    +0.000 A 
ATOM     13  C   UNL     1       0.085  10.010  19.370  0.00  0.00    +0.000 A 
ATOM     14  H   UNL     1       1.873   6.825  19.540  0.00  0.00    +0.000 HD
ENDROOT
BRANCH   1  18
ATOM     15  C   UNL     1       5.071   4.772  16.487  0.00  0.00    +0.000 A 
ATOM     16  C   UNL     1       3.943   4.201  17.092  0.00  0.00    +0.000 A 
ATOM     17  C   UNL     1       3.039   4.977  17.868  0.00  0.00    +0.000 A 
ATOM     18  C   UNL     1       3.230   6.350  18.030  0.00  0.00    +0.000 A 
ATOM     19  C   UNL     1       4.352   6.920  17.409  0.00  0.00    +0.000 A 
ATOM     20  C   UNL     1       5.269   6.145  16.666  0.00  0.00    +0.000 A 
BRANCH  15  21
ATOM     21  C   UNL     1       6.095   3.930  15.731  0.00  0.00    +0.000 C 
BRANCH  21  22
ATOM     22  C   UNL     1       6.598   4.488  14.403  0.00  0.00    +0.000 C 
ATOM     23  O   UNL     1       7.541   5.249  14.252  0.00  0.00    +0.000 OA
BRANCH  22  24
ATOM     24  O   UNL     1       5.790   4.041  13.393  0.00  0.00    +0.000 OA
BRANCH  24  26
ATOM     25  C   UNL     1       5.570   2.407  11.654  0.00  0.00    +0.000 C 
ATOM     26  C   UNL     1       6.449   3.497  12.234  0.00  0.00    +0.000 C 
ENDBRANCH  24  26
ENDBRANCH  22  24
ENDBRANCH  21  22
ENDBRANCH  15  21
ENDBRANCH   1  18
TORSDOF 5
ENDMDL
MODEL 2
REMARK VINA RESULT:      -8.4      0.338      1.012
REMARK  Name = 
REMARK  7 active torsions:
REMARK  status: ('A' for Active; 'I' for Inactive)
REMARK    1  A    between atoms: C_1  and  C_2
REMARK    2  A    between atoms: C_2  and  O_3
REMARK    3  A    between atoms: O_3  and  C_4
REMARK    4  A    between atoms: C_4  and  C_6
REMARK    5  A    between atoms: C_6  and  C_7
REMARK    6  A    between atoms: C_10  and  N_11
REMARK    7  A    between atoms: C_18  and  C_19
REMARK                            x       y       z     vdW  Elec       q    Type
REMARK                         _______ _______ _______ _____ _____    ______ ____
ROOT
ATOM      1  N   UNL     1       2.326   7.445  18.765  0.00  0.00    +0.000 N 
ATOM      2  C   UNL     1       1.912   8.755  18.538  0.00  0.00    +0.000 C 
ATOM      3  O   UNL     1       2.136   9.485  17.583  0.00  0.00    +0.000 OA
ATOM      4  N   UNL     1       1.072   9.221  19.603  0.00  0.00    +0.000 N 
ATOM      5  N   UNL     1       1.318   8.787  20.885  0.00  0.00    +0.000 NA
ATOM      6  C   UNL     1       0.707   9.696  21.647  0.00  0.00    +0.000 A 
ATOM      7  C   UNL     1      -0.148  10.560  20.917  0.00  0.00    +0.000 A 
ATOM      8  C   UNL     1      -1.049  11.608  21.239  0.00  0.00    +0.000 A 
ATOM      9  C   UNL     1      -1.151  12.263  22.593  0.00  0.00    +0.000 C 
ATOM     10  C   UNL     1      -1.927  12.037  20.226  0.00  0.00    +0.000 A 
ATOM     11  C   UNL     1      -1.840  11.527  18.931  0.00  0.00    +0.000 A 
ATOM     12  C   UNL     1      -0.833  10.618  18.575  0.00  0.00    +0.000 A 
ATOM     13  C   UNL     1       0.010  10.140  19.594  0.00  0.00    +0.000 A 
ATOM     14  H   UNL     1       1.852   6.982  19.537  0.00  0.00    +0.000 HD
ENDROOT
BRANCH   1  18
ATOM     15  C   UNL     1       4.997   4.862  16.611  0.00  0.00    +0.000 A 
ATOM     16  C   UNL     1       5.222   6.246  16.639  0.00  0.00    +0.000 A 
ATOM     17  C   UNL     1       4.340   7.132  17.316  0.00  0.00    +0.000 A 
ATOM     18  C   UNL     1       3.228   6.646  18.007  0.00  0.00    +0.000 A 
ATOM     19  C   UNL     1       3.016   5.259  17.990  0.00  0.00    +0.000 A 
ATOM     20  C   UNL     1       3.872   4.381  17.289  0.00  0.00    +0.000 A 
BRANCH  15  21
ATOM     21  C   UNL     1       5.887   3.916  15.809  0.00  0.00    +0.000 C 
BRANCH  21  22
ATOM     22  C   UNL     1       6.411   4.433  14.473  0.00  0.00    +0.000 C 
ATOM     23  O   UNL     1       7.444   5.060  14.299  0.00  0.00    +0.000 OA
BRANCH  22  24
ATOM     24  O   UNL     1       5.512   4.125  13.489  0.00  0.00    +0.000 OA
BRANCH  24  26
ATOM     25  C   UNL     1       4.841   2.945  11.513  0.00  0.00    +0.000 C 
ATOM     26  C   UNL     1       6.017   3.380  12.365  0.00  0.00    +0.000 C 
ENDBRANCH  24  26
ENDBRANCH  22  24
ENDBRANCH  21  22
ENDBRANCH  15  21
ENDBRANCH   1  18
TORSDOF 5
ENDMDL
MODEL 3
REMARK VINA RESULT:      -8.1      1.527      2.380
REMARK  Name = 
REMARK  7 active torsions:
REMARK  status: ('A' for Active; 'I' for Inactive)
REMARK    1  A    between atoms: C_1  and  C_2
REMARK    2  A    between atoms: C_2  and  O_3
REMARK    3  A    between atoms: O_3  and  C_4
REMARK    4  A    between atoms: C_4  and  C_6
REMARK    5  A    between atoms: C_6  and  C_7
REMARK    6  A    between atoms: C_10  and  N_11
REMARK    7  A    between atoms: C_18  and  C_19
REMARK                            x       y       z     vdW  Elec       q    Type
REMARK                         _______ _______ _______ _____ _____    ______ ____
ROOT
ATOM      1  N   UNL     1       1.959   7.726  18.940  0.00  0.00    +0.000 N 
ATOM      2  C   UNL     1       1.541   9.003  18.575  0.00  0.00    +0.000 C 
ATOM      3  O   UNL     1       1.732   9.614  17.534  0.00  0.00    +0.000 OA
ATOM      4  N   UNL     1       0.740   9.597  19.606  0.00  0.00    +0.000 N 
ATOM      5  N   UNL     1       1.031   9.314  20.921  0.00  0.00    +0.000 NA
ATOM      6  C   UNL     1       0.449  10.311  21.592  0.00  0.00    +0.000 A 
ATOM      7  C   UNL     1      -0.429  11.089  20.796  0.00  0.00    +0.000 A 
ATOM      8  C   UNL     1      -1.315  12.174  21.023  0.00  0.00    +0.000 A 
ATOM      9  C   UNL     1      -1.367  12.984  22.293  0.00  0.00    +0.000 C 
ATOM     10  C   UNL     1      -2.228  12.486  19.998  0.00  0.00    +0.000 A 
ATOM     11  C   UNL     1      -2.188  11.827  18.770  0.00  0.00    +0.000 A 
ATOM     12  C   UNL     1      -1.197  10.876  18.489  0.00  0.00    +0.000 A 
ATOM     13  C   UNL     1      -0.319  10.515  19.526  0.00  0.00    +0.000 A 
ATOM     14  H   UNL     1       1.512   7.361  19.778  0.00  0.00    +0.000 HD
ENDROOT
BRANCH   1  18
ATOM     15  C   UNL     1       4.628   5.209  16.707  0.00  0.00    +0.000 A 
ATOM     16  C   UNL     1       3.601   4.643  17.476  0.00  0.00    +0.000 A 
ATOM     17  C   UNL     1       2.720   5.446  18.252  0.00  0.00    +0.000 A 
ATOM     18  C   UNL     1       2.831   6.838  18.250  0.00  0.00    +0.000 A 
ATOM     19  C   UNL     1       3.849   7.400  17.466  0.00  0.00    +0.000 A 
ATOM     20  C   UNL     1       4.747   6.602  16.722  0.00  0.00    +0.000 A 
BRANCH  15  21
ATOM     21  C   UNL     1       5.634   4.350  15.947  0.00  0.00    +0.000 C 
BRANCH  21  22
ATOM     22  C   UNL     1       7.092   4.798  15.990  0.00  0.00    +0.000 C 
ATOM     23  O   UNL     1       7.712   5.323  15.078  0.00  0.00    +0.000 OA
BRANCH  22  24
ATOM     24  O   UNL     1       7.625   4.475  17.209  0.00  0.00    +0.000 OA
BRANCH  24  26
ATOM     25  C   UNL     1       6.996   5.367  19.342  0.00  0.00    +0.000 C 
ATOM     26  C   UNL     1       7.865   5.567  18.116  0.00  0.00    +0.000 C 
ENDBRANCH  24  26
ENDBRANCH  22  24
ENDBRANCH  21  22
ENDBRANCH  15  21
ENDBRANCH   1  18
TORSDOF 5
ENDMDL
MODEL 4
REMARK VINA RESULT:      -7.6      0.843      1.626
REMARK  Name = 
REMARK  7 active torsions:
REMARK  status: ('A' for Active; 'I' for Inactive)
REMARK    1  A    between atoms: C_1  and  C_2
REMARK    2  A    between atoms: C_2  and  O_3
REMARK    3  A    between atoms: O_3  and  C_4
REMARK    4  A    between atoms: C_4  and  C_6
REMARK    5  A    between atoms: C_6  and  C_7
REMARK    6  A    between atoms: C_10  and  N_11
REMARK    7  A    between atoms: C_18  and  C_19
REMARK                            x       y       z     vdW  Elec       q    Type
REMARK                         _______ _______ _______ _____ _____    ______ ____
ROOT
ATOM      1  N   UNL     1       2.429   7.291  18.613  0.00  0.00    +0.000 N 
ATOM      2  C   UNL     1       2.022   8.609  18.422  0.00  0.00    +0.000 C 
ATOM      3  O   UNL     1       2.245   9.361  17.485  0.00  0.00    +0.000 OA
ATOM      4  N   UNL     1       1.190   9.052  19.503  0.00  0.00    +0.000 N 
ATOM      5  N   UNL     1       1.441   8.583  20.772  0.00  0.00    +0.000 NA
ATOM      6  C   UNL     1       0.839   9.477  21.561  0.00  0.00    +0.000 A 
ATOM      7  C   UNL     1      -0.015  10.364  20.858  0.00  0.00    +0.000 A 
ATOM      8  C   UNL     1      -0.907  11.409  21.212  0.00  0.00    +0.000 A 
ATOM      9  C   UNL     1      -0.997  12.029  22.583  0.00  0.00    +0.000 C 
ATOM     10  C   UNL     1      -1.788  11.869  20.215  0.00  0.00    +0.000 A 
ATOM     11  C   UNL     1      -1.711  11.392  18.907  0.00  0.00    +0.000 A 
ATOM     12  C   UNL     1      -0.712  10.487  18.522  0.00  0.00    +0.000 A 
ATOM     13  C   UNL     1       0.134   9.977  19.524  0.00  0.00    +0.000 A 
ATOM     14  H   UNL     1       1.956   6.811  19.375  0.00  0.00    +0.000 HD
ENDROOT
BRANCH   1  18
ATOM     15  C   UNL     1       5.074   4.749  16.380  0.00  0.00    +0.000 A 
ATOM     16  C   UNL     1       5.297   6.133  16.428  0.00  0.00    +0.000 A 
ATOM     17  C   UNL     1       4.423   7.005  17.132  0.00  0.00    +0.000 A 
ATOM     18  C   UNL     1       3.321   6.507  17.829  0.00  0.00    +0.000 A 
ATOM     19  C   UNL     1       3.112   5.120  17.791  0.00  0.00    +0.000 A 
ATOM     20  C   UNL     1       3.960   4.255  17.065  0.00  0.00    +0.000 A 
BRANCH  15  21
ATOM     21  C   UNL     1       5.954   3.818  15.551  0.00  0.00    +0.000 C 
BRANCH  21  22
ATOM     22  C   UNL     1       6.124   4.166  14.075  0.00  0.00    +0.000 C 
ATOM     23  O   UNL     1       5.475   3.708  13.148  0.00  0.00    +0.000 OA
BRANCH  22  24
ATOM     24  O   UNL     1       7.162   5.047  13.938  0.00  0.00    +0.000 OA
BRANCH  24  26
ATOM     25  C   UNL     1       8.952   6.064  12.711  0.00  0.00    +0.000 C 
ATOM     26  C   UNL     1       7.731   5.171  12.620  0.00  0.00    +0.000 C 
ENDBRANCH  24  26
ENDBRANCH  22  24
ENDBRANCH  21  22
ENDBRANCH  15  21
ENDBRANCH   1  18
TORSDOF 5
ENDMDL
MODEL 5
REMARK VINA RESULT:      -7.5      3.150     10.167
REMARK  Name = 
REMARK  7 active torsions:
REMARK  status: ('A' for Active; 'I' for Inactive)
REMARK    1  A    between atoms: C_1  and  C_2
REMARK    2  A    between atoms: C_2  and  O_3
REMARK    3  A    between atoms: O_3  and  C_4
REMARK    4  A    between atoms: C_4  and  C_6
REMARK    5  A    between atoms: C_6  and  C_7
REMARK    6  A    between atoms: C_10  and  N_11
REMARK    7  A    between atoms: C_18  and  C_19
REMARK                            x       y       z     vdW  Elec       q    Type
REMARK                         _______ _______ _______ _____ _____    ______ ____
ROOT
ATOM      1  N   UNL     1       1.410   8.540  20.839  0.00  0.00    +0.000 N 
ATOM      2  C   UNL     1       1.634   8.241  19.497  0.00  0.00    +0.000 C 
ATOM      3  O   UNL     1       1.367   8.898  18.501  0.00  0.00    +0.000 OA
ATOM      4  N   UNL     1       2.318   6.989  19.356  0.00  0.00    +0.000 N 
ATOM      5  N   UNL     1       2.054   5.981  20.254  0.00  0.00    +0.000 NA
ATOM      6  C   UNL     1       2.466   4.880  19.620  0.00  0.00    +0.000 A 
ATOM      7  C   UNL     1       3.228   5.153  18.456  0.00  0.00    +0.000 A 
ATOM      8  C   UNL     1       3.935   4.379  17.499  0.00  0.00    +0.000 A 
ATOM      9  C   UNL     1       3.842   2.880  17.377  0.00  0.00    +0.000 C 
ATOM     10  C   UNL     1       4.804   5.065  16.631  0.00  0.00    +0.000 A 
ATOM     11  C   UNL     1       4.885   6.457  16.640  0.00  0.00    +0.000 A 
ATOM     12  C   UNL     1       4.055   7.226  17.468  0.00  0.00    +0.000 A 
ATOM     13  C   UNL     1       3.226   6.548  18.380  0.00  0.00    +0.000 A 
ATOM     14  H   UNL     1       1.894   7.929  21.492  0.00  0.00    +0.000 HD
ENDROOT
BRANCH   1  18
ATOM     15  C   UNL     1      -0.901  11.689  22.625  0.00  0.00    +0.000 A 
ATOM     16  C   UNL     1      -0.087  11.953  21.514  0.00  0.00    +0.000 A 
ATOM     17  C   UNL     1       0.714  10.941  20.918  0.00  0.00    +0.000 A 
ATOM     18  C   UNL     1       0.694   9.632  21.406  0.00  0.00    +0.000 A 
ATOM     19  C   UNL     1      -0.135   9.369  22.507  0.00  0.00    +0.000 A 
ATOM     20  C   UNL     1      -0.905  10.381  23.121  0.00  0.00    +0.000 A 
BRANCH  15  21
ATOM     21  C   UNL     1      -1.692  12.790  23.326  0.00  0.00    +0.000 C 
BRANCH  21  22
ATOM     22  C   UNL     1      -3.213  12.667  23.299  0.00  0.00    +0.000 C 
ATOM     23  O   UNL     1      -3.890  11.943  24.013  0.00  0.00    +0.000 OA
BRANCH  22  24
ATOM     24  O   UNL     1      -3.711  13.465  22.305  0.00  0.00    +0.000 OA
BRANCH  24  26
ATOM     25  C   UNL     1      -5.070  12.484  20.592  0.00  0.00    +0.000 C 
ATOM     26  C   UNL     1      -5.076  13.227  21.913  0.00  0.00    +0.000 C 
ENDBRANCH  24  26
ENDBRANCH  22  24
ENDBRANCH  21  22
ENDBRANCH  15  21
ENDBRANCH   1  18
TORSDOF 5
ENDMDL
MODEL 6
REMARK VINA RESULT:      -7.5      1.233      2.037
REMARK  Name = 
REMARK  7 active torsions:
REMARK  status: ('A' for Active; 'I' for Inactive)
REMARK    1  A    between atoms: C_1  and  C_2
REMARK    2  A    between atoms: C_2  and  O_3
REMARK    3  A    between atoms: O_3  and  C_4
REMARK    4  A    between atoms: C_4  and  C_6
REMARK    5  A    between atoms: C_6  and  C_7
REMARK    6  A    between atoms: C_10  and  N_11
REMARK    7  A    between atoms: C_18  and  C_19
REMARK                            x       y       z     vdW  Elec       q    Type
REMARK                         _______ _______ _______ _____ _____    ______ ____
ROOT
ATOM      1  N   UNL     1       3.077   7.864  18.493  0.00  0.00    +0.000 N 
ATOM      2  C   UNL     1       2.046   7.670  19.408  0.00  0.00    +0.000 C 
ATOM      3  O   UNL     1       1.665   6.637  19.941  0.00  0.00    +0.000 OA
ATOM      4  N   UNL     1       1.424   8.915  19.755  0.00  0.00    +0.000 N 
ATOM      5  N   UNL     1       1.323   9.898  18.798  0.00  0.00    +0.000 NA
ATOM      6  C   UNL     1       0.354  10.690  19.263  0.00  0.00    +0.000 A 
ATOM      7  C   UNL     1      -0.001  10.415  20.607  0.00  0.00    +0.000 A 
ATOM      8  C   UNL     1      -0.883  10.984  21.563  0.00  0.00    +0.000 A 
ATOM      9  C   UNL     1      -1.931  12.020  21.248  0.00  0.00    +0.000 C 
ATOM     10  C   UNL     1      -0.737  10.571  22.901  0.00  0.00    +0.000 A 
ATOM     11  C   UNL     1       0.162   9.565  23.252  0.00  0.00    +0.000 A 
ATOM     12  C   UNL     1       0.905   8.883  22.278  0.00  0.00    +0.000 A 
ATOM     13  C   UNL     1       0.811   9.329  20.948  0.00  0.00    +0.000 A 
ATOM     14  H   UNL     1       3.330   8.838  18.344  0.00  0.00    +0.000 HD
ENDROOT
BRANCH   1  18
ATOM     15  C   UNL     1       5.448   5.028  16.304  0.00  0.00    +0.000 A 
ATOM     16  C   UNL     1       4.932   4.695  17.565  0.00  0.00    +0.000 A 
ATOM     17  C   UNL     1       4.170   5.620  18.329  0.00  0.00    +0.000 A 
ATOM     18  C   UNL     1       3.883   6.894  17.833  0.00  0.00    +0.000 A 
ATOM     19  C   UNL     1       4.387   7.217  16.564  0.00  0.00    +0.000 A 
ATOM     20  C   UNL     1       5.172   6.311  15.818  0.00  0.00    +0.000 A 
BRANCH  15  21
ATOM     21  C   UNL     1       6.343   4.074  15.520  0.00  0.00    +0.000 C 
BRANCH  21  22
ATOM     22  C   UNL     1       6.526   4.369  14.034  0.00  0.00    +0.000 C 
ATOM     23  O   UNL     1       7.419   5.037  13.537  0.00  0.00    +0.000 OA
BRANCH  22  24
ATOM     24  O   UNL     1       5.495   3.803  13.334  0.00  0.00    +0.000 OA
BRANCH  24  26
ATOM     25  C   UNL     1       4.579   2.938  11.295  0.00  0.00    +0.000 C 
ATOM     26  C   UNL     1       5.843   3.128  12.110  0.00  0.00    +0.000 C 
ENDBRANCH  24  26
ENDBRANCH  22  24
ENDBRANCH  21  22
ENDBRANCH  15  21
ENDBRANCH   1  18
TORSDOF 5
ENDMDL
MODEL 7
REMARK VINA RESULT:      -7.5      3.238      9.993
REMARK  Name = 
REMARK  7 active torsions:
REMARK  status: ('A' for Active; 'I' for Inactive)
REMARK    1  A    between atoms: C_1  and  C_2
REMARK    2  A    between atoms: C_2  and  O_3
REMARK    3  A    between atoms: O_3  and  C_4
REMARK    4  A    between atoms: C_4  and  C_6
REMARK    5  A    between atoms: C_6  and  C_7
REMARK    6  A    between atoms: C_10  and  N_11
REMARK    7  A    between atoms: C_18  and  C_19
REMARK                            x       y       z     vdW  Elec       q    Type
REMARK                         _______ _______ _______ _____ _____    ______ ____
ROOT
ATOM      1  N   UNL     1       1.418   8.947  19.592  0.00  0.00    +0.000 N 
ATOM      2  C   UNL     1       1.834   7.651  19.888  0.00  0.00    +0.000 C 
ATOM      3  O   UNL     1       1.658   6.994  20.904  0.00  0.00    +0.000 OA
ATOM      4  N   UNL     1       2.520   7.063  18.775  0.00  0.00    +0.000 N 
ATOM      5  N   UNL     1       3.288   7.867  17.965  0.00  0.00    +0.000 NA
ATOM      6  C   UNL     1       4.103   7.006  17.351  0.00  0.00    +0.000 A 
ATOM      7  C   UNL     1       3.726   5.651  17.526  0.00  0.00    +0.000 A 
ATOM      8  C   UNL     1       4.187   4.397  17.046  0.00  0.00    +0.000 A 
ATOM      9  C   UNL     1       5.486   4.189  16.311  0.00  0.00    +0.000 C 
ATOM     10  C   UNL     1       3.351   3.283  17.247  0.00  0.00    +0.000 A 
ATOM     11  C   UNL     1       2.170   3.389  17.981  0.00  0.00    +0.000 A 
ATOM     12  C   UNL     1       1.807   4.593  18.602  0.00  0.00    +0.000 A 
ATOM     13  C   UNL     1       2.605   5.725  18.357  0.00  0.00    +0.000 A 
ATOM     14  H   UNL     1       1.514   9.205  18.613  0.00  0.00    +0.000 HD
ENDROOT
BRANCH   1  18
ATOM     15  C   UNL     1      -0.643  11.671  22.195  0.00  0.00    +0.000 A 
ATOM     16  C   UNL     1       0.133  12.158  21.133  0.00  0.00    +0.000 A 
ATOM     17  C   UNL     1       0.853  11.286  20.273  0.00  0.00    +0.000 A 
ATOM     18  C   UNL     1       0.787   9.901  20.439  0.00  0.00    +0.000 A 
ATOM     19  C   UNL     1      -0.004   9.417  21.492  0.00  0.00    +0.000 A 
ATOM     20  C   UNL     1      -0.693  10.284  22.368  0.00  0.00    +0.000 A 
BRANCH  15  21
ATOM     21  C   UNL     1      -1.343  12.605  23.178  0.00  0.00    +0.000 C 
BRANCH  21  22
ATOM     22  C   UNL     1      -2.867  12.546  23.215  0.00  0.00    +0.000 C 
ATOM     23  O   UNL     1      -3.543  11.811  23.919  0.00  0.00    +0.000 OA
BRANCH  22  24
ATOM     24  O   UNL     1      -3.373  13.419  22.291  0.00  0.00    +0.000 OA
BRANCH  24  26
ATOM     25  C   UNL     1      -3.464  12.590  20.044  0.00  0.00    +0.000 C 
ATOM     26  C   UNL     1      -4.262  12.866  21.302  0.00  0.00    +0.000 C 
ENDBRANCH  24  26
ENDBRANCH  22  24
ENDBRANCH  21  22
ENDBRANCH  15  21
ENDBRANCH   1  18
TORSDOF 5
ENDMDL
MODEL 8
REMARK VINA RESULT:      -7.5      3.107      9.959
REMARK  Name = 
REMARK  7 active torsions:
REMARK  status: ('A' for Active; 'I' for Inactive)
REMARK    1  A    between atoms: C_1  and  C_2
REMARK    2  A    between atoms: C_2  and  O_3
REMARK    3  A    between atoms: O_3  and  C_4
REMARK    4  A    between atoms: C_4  and  C_6
REMARK    5  A    between atoms: C_6  and  C_7
REMARK    6  A    between atoms: C_10  and  N_11
REMARK    7  A    between atoms: C_18  and  C_19
REMARK                            x       y       z     vdW  Elec       q    Type
REMARK                         _______ _______ _______ _____ _____    ______ ____
ROOT
ATOM      1  N   UNL     1       1.363   8.407  20.865  0.00  0.00    +0.000 N 
ATOM      2  C   UNL     1       1.613   8.177  19.514  0.00  0.00    +0.000 C 
ATOM      3  O   UNL     1       1.329   8.865  18.545  0.00  0.00    +0.000 OA
ATOM      4  N   UNL     1       2.350   6.961  19.327  0.00  0.00    +0.000 N 
ATOM      5  N   UNL     1       2.119   5.904  20.177  0.00  0.00    +0.000 NA
ATOM      6  C   UNL     1       2.582   4.850  19.501  0.00  0.00    +0.000 A 
ATOM      7  C   UNL     1       3.343   5.205  18.359  0.00  0.00    +0.000 A 
ATOM      8  C   UNL     1       4.091   4.502  17.377  0.00  0.00    +0.000 A 
ATOM      9  C   UNL     1       4.062   3.008  17.189  0.00  0.00    +0.000 C 
ATOM     10  C   UNL     1       4.939   5.261  16.549  0.00  0.00    +0.000 A 
ATOM     11  C   UNL     1       4.962   6.653  16.620  0.00  0.00    +0.000 A 
ATOM     12  C   UNL     1       4.093   7.351  17.470  0.00  0.00    +0.000 A 
ATOM     13  C   UNL     1       3.285   6.601  18.343  0.00  0.00    +0.000 A 
ATOM     14  H   UNL     1       1.867   7.789  21.496  0.00  0.00    +0.000 HD
ENDROOT
BRANCH   1  18
ATOM     15  C   UNL     1      -0.795  11.681  22.616  0.00  0.00    +0.000 A 
ATOM     16  C   UNL     1      -0.897  10.395  23.164  0.00  0.00    +0.000 A 
ATOM     17  C   UNL     1      -0.221   9.283  22.590  0.00  0.00    +0.000 A 
ATOM     18  C   UNL     1       0.598   9.443  21.470  0.00  0.00    +0.000 A 
ATOM     19  C   UNL     1       0.710  10.736  20.936  0.00  0.00    +0.000 A 
ATOM     20  C   UNL     1       0.012  11.834  21.484  0.00  0.00    +0.000 A 
BRANCH  15  21
ATOM     21  C   UNL     1      -1.590  12.860  23.170  0.00  0.00    +0.000 C 
BRANCH  21  22
ATOM     22  C   UNL     1      -3.109  12.717  23.187  0.00  0.00    +0.000 C 
ATOM     23  O   UNL     1      -3.753  11.961  23.898  0.00  0.00    +0.000 OA
BRANCH  22  24
ATOM     24  O   UNL     1      -3.648  13.540  22.236  0.00  0.00    +0.000 OA
BRANCH  24  26
ATOM     25  C   UNL     1      -3.515  12.537  20.064  0.00  0.00    +0.000 C 
ATOM     26  C   UNL     1      -4.435  12.907  21.209  0.00  0.00    +0.000 C 
ENDBRANCH  24  26
ENDBRANCH  22  24
ENDBRANCH  21  22
ENDBRANCH  15  21
ENDBRANCH   1  18
TORSDOF 5
ENDMDL
MODEL 9
REMARK VINA RESULT:      -7.5      6.274      8.214
REMARK  Name = 
REMARK  7 active torsions:
REMARK  status: ('A' for Active; 'I' for Inactive)
REMARK    1  A    between atoms: C_1  and  C_2
REMARK    2  A    between atoms: C_2  and  O_3
REMARK    3  A    between atoms: O_3  and  C_4
REMARK    4  A    between atoms: C_4  and  C_6
REMARK    5  A    between atoms: C_6  and  C_7
REMARK    6  A    between atoms: C_10  and  N_11
REMARK    7  A    between atoms: C_18  and  C_19
REMARK                            x       y       z     vdW  Elec       q    Type
REMARK                         _______ _______ _______ _____ _____    ______ ____
ROOT
ATOM      1  N   UNL     1       7.750   8.985  17.461  0.00  0.00    +0.000 N 
ATOM      2  C   UNL     1       8.585   9.610  18.384  0.00  0.00    +0.000 C 
ATOM      3  O   UNL     1       9.104   9.155  19.392  0.00  0.00    +0.000 OA
ATOM      4  N   UNL     1       8.858  10.964  17.996  0.00  0.00    +0.000 N 
ATOM      5  N   UNL     1       7.879  11.683  17.352  0.00  0.00    +0.000 NA
ATOM      6  C   UNL     1       8.251  12.952  17.532  0.00  0.00    +0.000 A 
ATOM      7  C   UNL     1       9.568  13.085  18.040  0.00  0.00    +0.000 A 
ATOM      8  C   UNL     1      10.441  14.166  18.332  0.00  0.00    +0.000 A 
ATOM      9  C   UNL     1      10.025  15.614  18.368  0.00  0.00    +0.000 C 
ATOM     10  C   UNL     1      11.793  13.856  18.570  0.00  0.00    +0.000 A 
ATOM     11  C   UNL     1      12.232  12.534  18.624  0.00  0.00    +0.000 A 
ATOM     12  C   UNL     1      11.333  11.465  18.508  0.00  0.00    +0.000 A 
ATOM     13  C   UNL     1       9.991  11.764  18.211  0.00  0.00    +0.000 A 
ATOM     14  H   UNL     1       7.604   9.510  16.602  0.00  0.00    +0.000 HD
ENDROOT
BRANCH   1  18
ATOM     15  C   UNL     1       5.806   5.158  17.606  0.00  0.00    +0.000 A 
ATOM     16  C   UNL     1       7.074   5.329  18.181  0.00  0.00    +0.000 A 
ATOM     17  C   UNL     1       7.758   6.573  18.123  0.00  0.00    +0.000 A 
ATOM     18  C   UNL     1       7.173   7.685  17.512  0.00  0.00    +0.000 A 
ATOM     19  C   UNL     1       5.898   7.513  16.953  0.00  0.00    +0.000 A 
ATOM     20  C   UNL     1       5.231   6.268  16.980  0.00  0.00    +0.000 A 
BRANCH  15  21
ATOM     21  C   UNL     1       5.106   3.802  17.583  0.00  0.00    +0.000 C 
BRANCH  21  22
ATOM     22  C   UNL     1       4.431   3.355  18.876  0.00  0.00    +0.000 C 
ATOM     23  O   UNL     1       4.994   2.955  19.882  0.00  0.00    +0.000 OA
BRANCH  22  24
ATOM     24  O   UNL     1       3.073   3.424  18.720  0.00  0.00    +0.000 OA
BRANCH  24  26
ATOM     25  C   UNL     1       0.842   2.629  19.086  0.00  0.00    +0.000 C 
ATOM     26  C   UNL     1       2.315   2.282  19.162  0.00  0.00    +0.000 C 
ENDBRANCH  24  26
ENDBRANCH  22  24
ENDBRANCH  21  22
ENDBRANCH  15  21
ENDBRANCH   1  18
TORSDOF 5
ENDMDL
