MODEL 1
REMARK VINA RESULT:      -7.2      0.000      0.000
REMARK  Name = 
REMARK  21 active torsions:
REMARK  status: ('A' for Active; 'I' for Inactive)
REMARK    1  A    between atoms: C_1  and  C_2
REMARK    2  A    between atoms: C_2  and  N_3
REMARK    3  A    between atoms: C_4  and  C_5
REMARK    4  A    between atoms: N_7  and  C_8
REMARK    5  A    between atoms: N_7  and  C_9
REMARK    6  A    between atoms: C_9  and  C_10
REMARK    7  A    between atoms: C_10  and  C_11
REMARK    8  A    between atoms: C_15  and  C_16
REMARK    9  A    between atoms: C_16  and  C_17
REMARK   10  A    between atoms: C_16  and  C_19
REMARK   11  A    between atoms: C_16  and  C_21
REMARK   12  A    between atoms: C_17  and  C_18
REMARK   13  A    between atoms: C_19  and  C_20
REMARK   14  A    between atoms: C_24  and  O_25
REMARK   15  A    between atoms: O_25  and  C_26
REMARK   16  A    between atoms: C_26  and  C_27
REMARK   17  A    between atoms: C_27  and  C_29
REMARK   18  A    between atoms: C_29  and  C_30
REMARK   19  A    between atoms: C_29  and  C_31
REMARK   20  A    between atoms: C_29  and  C_32
REMARK   21  A    between atoms: C_33  and  C_34
REMARK                            x       y       z     vdW  Elec       q    Type
REMARK                         _______ _______ _______ _____ _____    ______ ____
ROOT
ATOM      1  C   UNL     1       0.405  11.105  19.508  0.00  0.00    +0.000 C 
ENDROOT
BRANCH   1   2
ATOM      2  C   UNL     1       1.127   9.774  19.139  0.00  0.00    +0.000 A 
ATOM      3  C   UNL     1       1.804   9.605  17.924  0.00  0.00    +0.000 A 
ATOM      4  C   UNL     1       2.456   8.409  17.611  0.00  0.00    +0.000 A 
ATOM      5  C   UNL     1       2.474   7.329  18.496  0.00  0.00    +0.000 A 
ATOM      6  C   UNL     1       1.852   7.468  19.742  0.00  0.00    +0.000 A 
ATOM      7  C   UNL     1       1.879   6.471  20.868  0.00  0.00    +0.000 C 
ATOM      8  C   UNL     1       1.167   8.687  20.034  0.00  0.00    +0.000 A 
BRANCH   5   9
ATOM      9  O   UNL     1       3.184   6.272  17.992  0.00  0.00    +0.000 OA
BRANCH   9  10
ATOM     10  C   UNL     1       4.551   6.476  17.706  0.00  0.00    +0.000 C 
BRANCH  10  11
ATOM     11  C   UNL     1       5.533   5.633  18.542  0.00  0.00    +0.000 C 
ATOM     12  O   UNL     1       5.152   4.908  19.462  0.00  0.00    +0.000 OA
BRANCH  11  13
ATOM     13  C   UNL     1       7.035   5.751  18.170  0.00  0.00    +0.000 C 
ATOM     14  C   UNL     1       7.889   5.697  19.444  0.00  0.00    +0.000 C 
ATOM     15  C   UNL     1       7.452   4.589  17.251  0.00  0.00    +0.000 C 
ATOM     16  C   UNL     1       7.292   7.069  17.422  0.00  0.00    +0.000 C 
ENDBRANCH  11  13
ENDBRANCH  10  11
ENDBRANCH   9  10
ENDBRANCH   5   9
ENDBRANCH   1   2
BRANCH   1  21
ATOM     17  N   UNL     1      -1.434  11.759  21.309  0.00  0.00    +0.000 N 
ATOM     18  C   UNL     1      -1.624  11.601  22.694  0.00  0.00    +0.000 A 
ATOM     19  C   UNL     1      -0.834  10.521  23.054  0.00  0.00    +0.000 A 
ATOM     20  C   UNL     1      -0.038  10.161  21.951  0.00  0.00    +0.000 A 
ATOM     21  C   UNL     1      -0.344  10.996  20.884  0.00  0.00    +0.000 A 
BRANCH  18  22
ATOM     22  C   UNL     1      -2.584  12.366  23.486  0.00  0.00    +0.000 C 
ATOM     23  O   UNL     1      -3.686  11.889  23.767  0.00  0.00    +0.000 OA
ATOM     24  N   UNL     1      -2.301  13.669  23.934  0.00  0.00    +0.000 N 
ATOM     25  C   UNL     1      -1.064  14.424  23.775  0.00  0.00    +0.000 C 
BRANCH  24  26
ATOM     26  C   UNL     1      -3.364  14.345  24.700  0.00  0.00    +0.000 C 
BRANCH  26  27
ATOM     27  C   UNL     1      -3.860  15.575  23.966  0.00  0.00    +0.000 C 
BRANCH  27  28
ATOM     28  C   UNL     1      -4.552  15.260  22.649  0.00  0.00    +0.000 C 
ATOM     29  N   UNL     1      -5.125  14.999  21.556  0.00  0.00    +0.000 NA
ENDBRANCH  27  28
ENDBRANCH  26  27
ENDBRANCH  24  26
ENDBRANCH  18  22
BRANCH  17  31
ATOM     30  C   UNL     1      -1.693  14.081  20.402  0.00  0.00    +0.000 C 
ATOM     31  C   UNL     1      -2.238  12.662  20.491  0.00  0.00    +0.000 C 
ENDBRANCH  17  31
ENDBRANCH   1  21
BRANCH   1  32
ATOM     32  C   UNL     1       1.490  12.252  19.631  0.00  0.00    +0.000 C 
ATOM     33  C   UNL     1       1.910  12.971  18.353  0.00  0.00    +0.000 C 
ENDBRANCH   1  32
BRANCH   1  34
ATOM     34  C   UNL     1      -0.636  11.536  18.404  0.00  0.00    +0.000 C 
ATOM     35  C   UNL     1      -1.558  10.454  17.854  0.00  0.00    +0.000 C 
ENDBRANCH   1  34
TORSDOF 13
ENDMDL
MODEL 2
REMARK VINA RESULT:      -7.1      1.908      2.370
REMARK  Name = 
REMARK  21 active torsions:
REMARK  status: ('A' for Active; 'I' for Inactive)
REMARK    1  A    between atoms: C_1  and  C_2
REMARK    2  A    between atoms: C_2  and  N_3
REMARK    3  A    between atoms: C_4  and  C_5
REMARK    4  A    between atoms: N_7  and  C_8
REMARK    5  A    between atoms: N_7  and  C_9
REMARK    6  A    between atoms: C_9  and  C_10
REMARK    7  A    between atoms: C_10  and  C_11
REMARK    8  A    between atoms: C_15  and  C_16
REMARK    9  A    between atoms: C_16  and  C_17
REMARK   10  A    between atoms: C_16  and  C_19
REMARK   11  A    between atoms: C_16  and  C_21
REMARK   12  A    between atoms: C_17  and  C_18
REMARK   13  A    between atoms: C_19  and  C_20
REMARK   14  A    between atoms: C_24  and  O_25
REMARK   15  A    between atoms: O_25  and  C_26
REMARK   16  A    between atoms: C_26  and  C_27
REMARK   17  A    between atoms: C_27  and  C_29
REMARK   18  A    between atoms: C_29  and  C_30
REMARK   19  A    between atoms: C_29  and  C_31
REMARK   20  A    between atoms: C_29  and  C_32
REMARK   21  A    between atoms: C_33  and  C_34
REMARK                            x       y       z     vdW  Elec       q    Type
REMARK                         _______ _______ _______ _____ _____    ______ ____
ROOT
ATOM      1  C   UNL     1       0.212  11.149  19.544  0.00  0.00    +0.000 C 
ENDROOT
BRANCH   1   2
ATOM      2  C   UNL     1       1.013   9.847  19.237  0.00  0.00    +0.000 A 
ATOM      3  C   UNL     1       1.802   9.711  18.086  0.00  0.00    +0.000 A 
ATOM      4  C   UNL     1       2.523   8.542  17.829  0.00  0.00    +0.000 A 
ATOM      5  C   UNL     1       2.501   7.458  18.708  0.00  0.00    +0.000 A 
ATOM      6  C   UNL     1       1.765   7.565  19.893  0.00  0.00    +0.000 A 
ATOM      7  C   UNL     1       1.727   6.562  21.013  0.00  0.00    +0.000 C 
ATOM      8  C   UNL     1       1.012   8.757  20.127  0.00  0.00    +0.000 A 
BRANCH   5   9
ATOM      9  O   UNL     1       3.292   6.431  18.266  0.00  0.00    +0.000 OA
BRANCH   9  10
ATOM     10  C   UNL     1       2.651   5.297  17.722  0.00  0.00    +0.000 C 
BRANCH  10  11
ATOM     11  C   UNL     1       3.448   3.981  17.815  0.00  0.00    +0.000 C 
ATOM     12  O   UNL     1       4.479   3.795  17.165  0.00  0.00    +0.000 OA
BRANCH  11  13
ATOM     13  C   UNL     1       2.879   2.894  18.764  0.00  0.00    +0.000 C 
ATOM     14  C   UNL     1       3.492   1.531  18.416  0.00  0.00    +0.000 C 
ATOM     15  C   UNL     1       3.224   3.226  20.227  0.00  0.00    +0.000 C 
ATOM     16  C   UNL     1       1.349   2.829  18.636  0.00  0.00    +0.000 C 
ENDBRANCH  11  13
ENDBRANCH  10  11
ENDBRANCH   9  10
ENDBRANCH   5   9
ENDBRANCH   1   2
BRANCH   1  21
ATOM     17  N   UNL     1      -1.614  11.830  21.348  0.00  0.00    +0.000 N 
ATOM     18  C   UNL     1      -1.792  11.697  22.737  0.00  0.00    +0.000 A 
ATOM     19  C   UNL     1      -0.996  10.625  23.109  0.00  0.00    +0.000 A 
ATOM     20  C   UNL     1      -0.209  10.247  22.007  0.00  0.00    +0.000 A 
ATOM     21  C   UNL     1      -0.525  11.063  20.927  0.00  0.00    +0.000 A 
BRANCH  18  22
ATOM     22  C   UNL     1      -2.747  12.474  23.523  0.00  0.00    +0.000 C 
ATOM     23  O   UNL     1      -3.881  12.039  23.738  0.00  0.00    +0.000 OA
ATOM     24  N   UNL     1      -2.421  13.741  24.040  0.00  0.00    +0.000 N 
ATOM     25  C   UNL     1      -1.144  14.439  23.965  0.00  0.00    +0.000 C 
BRANCH  24  26
ATOM     26  C   UNL     1      -3.482  14.434  24.793  0.00  0.00    +0.000 C 
BRANCH  26  27
ATOM     27  C   UNL     1      -3.125  15.892  25.010  0.00  0.00    +0.000 C 
BRANCH  27  28
ATOM     28  C   UNL     1      -4.327  16.823  24.990  0.00  0.00    +0.000 C 
ATOM     29  N   UNL     1      -5.323  17.595  24.973  0.00  0.00    +0.000 NA
ENDBRANCH  27  28
ENDBRANCH  26  27
ENDBRANCH  24  26
ENDBRANCH  18  22
BRANCH  17  31
ATOM     30  C   UNL     1      -1.931  14.156  20.470  0.00  0.00    +0.000 C 
ATOM     31  C   UNL     1      -2.427  12.717  20.521  0.00  0.00    +0.000 C 
ENDBRANCH  17  31
ENDBRANCH   1  21
BRANCH   1  32
ATOM     32  C   UNL     1       1.225  12.364  19.604  0.00  0.00    +0.000 C 
ATOM     33  C   UNL     1       1.148  13.408  18.495  0.00  0.00    +0.000 C 
ENDBRANCH   1  32
BRANCH   1  34
ATOM     34  C   UNL     1      -0.856  11.461  18.425  0.00  0.00    +0.000 C 
ATOM     35  C   UNL     1      -1.691  10.294  17.913  0.00  0.00    +0.000 C 
ENDBRANCH   1  34
TORSDOF 13
ENDMDL
MODEL 3
REMARK VINA RESULT:      -7.0      1.769      2.466
REMARK  Name = 
REMARK  21 active torsions:
REMARK  status: ('A' for Active; 'I' for Inactive)
REMARK    1  A    between atoms: C_1  and  C_2
REMARK    2  A    between atoms: C_2  and  N_3
REMARK    3  A    between atoms: C_4  and  C_5
REMARK    4  A    between atoms: N_7  and  C_8
REMARK    5  A    between atoms: N_7  and  C_9
REMARK    6  A    between atoms: C_9  and  C_10
REMARK    7  A    between atoms: C_10  and  C_11
REMARK    8  A    between atoms: C_15  and  C_16
REMARK    9  A    between atoms: C_16  and  C_17
REMARK   10  A    between atoms: C_16  and  C_19
REMARK   11  A    between atoms: C_16  and  C_21
REMARK   12  A    between atoms: C_17  and  C_18
REMARK   13  A    between atoms: C_19  and  C_20
REMARK   14  A    between atoms: C_24  and  O_25
REMARK   15  A    between atoms: O_25  and  C_26
REMARK   16  A    between atoms: C_26  and  C_27
REMARK   17  A    between atoms: C_27  and  C_29
REMARK   18  A    between atoms: C_29  and  C_30
REMARK   19  A    between atoms: C_29  and  C_31
REMARK   20  A    between atoms: C_29  and  C_32
REMARK   21  A    between atoms: C_33  and  C_34
REMARK                            x       y       z     vdW  Elec       q    Type
REMARK                         _______ _______ _______ _____ _____    ______ ____
ROOT
ATOM      1  C   UNL     1      -0.411  10.804  19.130  0.00  0.00    +0.000 C 
ENDROOT
BRANCH   1   2
ATOM      2  C   UNL     1       0.650   9.676  18.953  0.00  0.00    +0.000 A 
ATOM      3  C   UNL     1       1.525   9.641  17.860  0.00  0.00    +0.000 A 
ATOM      4  C   UNL     1       2.478   8.628  17.719  0.00  0.00    +0.000 A 
ATOM      5  C   UNL     1       2.612   7.609  18.664  0.00  0.00    +0.000 A 
ATOM      6  C   UNL     1       1.791   7.628  19.797  0.00  0.00    +0.000 A 
ATOM      7  C   UNL     1       1.876   6.699  20.976  0.00  0.00    +0.000 C 
ATOM      8  C   UNL     1       0.803   8.655  19.911  0.00  0.00    +0.000 A 
BRANCH   5   9
ATOM      9  O   UNL     1       3.617   6.740  18.334  0.00  0.00    +0.000 OA
BRANCH   9  10
ATOM     10  C   UNL     1       3.251   5.471  17.837  0.00  0.00    +0.000 C 
BRANCH  10  11
ATOM     11  C   UNL     1       3.717   4.271  18.684  0.00  0.00    +0.000 C 
ATOM     12  O   UNL     1       4.880   4.159  19.073  0.00  0.00    +0.000 OA
BRANCH  11  13
ATOM     13  C   UNL     1       2.644   3.201  19.015  0.00  0.00    +0.000 C 
ATOM     14  C   UNL     1       1.283   3.643  18.458  0.00  0.00    +0.000 C 
ATOM     15  C   UNL     1       3.018   1.851  18.377  0.00  0.00    +0.000 C 
ATOM     16  C   UNL     1       2.547   3.002  20.535  0.00  0.00    +0.000 C 
ENDBRANCH  11  13
ENDBRANCH  10  11
ENDBRANCH   9  10
ENDBRANCH   5   9
ENDBRANCH   1   2
BRANCH   1  21
ATOM     17  N   UNL     1      -1.344  12.203  21.186  0.00  0.00    +0.000 N 
ATOM     18  C   UNL     1      -1.160  12.237  22.579  0.00  0.00    +0.000 A 
ATOM     19  C   UNL     1      -0.675  10.984  22.918  0.00  0.00    +0.000 A 
ATOM     20  C   UNL     1      -0.390  10.279  21.734  0.00  0.00    +0.000 A 
ATOM     21  C   UNL     1      -0.720  11.077  20.645  0.00  0.00    +0.000 A 
BRANCH  18  22
ATOM     22  C   UNL     1      -1.559  13.351  23.436  0.00  0.00    +0.000 C 
ATOM     23  O   UNL     1      -0.770  14.268  23.679  0.00  0.00    +0.000 OA
ATOM     24  N   UNL     1      -2.833  13.409  24.029  0.00  0.00    +0.000 N 
ATOM     25  C   UNL     1      -3.945  12.482  23.856  0.00  0.00    +0.000 C 
BRANCH  24  26
ATOM     26  C   UNL     1      -3.101  14.571  24.895  0.00  0.00    +0.000 C 
BRANCH  26  27
ATOM     27  C   UNL     1      -4.178  15.455  24.294  0.00  0.00    +0.000 C 
BRANCH  27  28
ATOM     28  C   UNL     1      -3.810  16.022  22.933  0.00  0.00    +0.000 C 
ATOM     29  N   UNL     1      -3.505  16.493  21.803  0.00  0.00    +0.000 NA
ENDBRANCH  27  28
ENDBRANCH  26  27
ENDBRANCH  24  26
ENDBRANCH  18  22
BRANCH  17  31
ATOM     30  C   UNL     1      -3.530  13.042  20.291  0.00  0.00    +0.000 C 
ATOM     31  C   UNL     1      -2.031  13.258  20.445  0.00  0.00    +0.000 C 
ENDBRANCH  17  31
ENDBRANCH   1  21
BRANCH   1  32
ATOM     32  C   UNL     1       0.161  12.139  18.499  0.00  0.00    +0.000 C 
ATOM     33  C   UNL     1       1.399  12.755  19.144  0.00  0.00    +0.000 C 
ENDBRANCH   1  32
BRANCH   1  34
ATOM     34  C   UNL     1      -1.765  10.460  18.397  0.00  0.00    +0.000 C 
ATOM     35  C   UNL     1      -2.158  11.334  17.212  0.00  0.00    +0.000 C 
ENDBRANCH   1  34
TORSDOF 13
ENDMDL
MODEL 4
REMARK VINA RESULT:      -7.0      1.661      2.114
REMARK  Name = 
REMARK  21 active torsions:
REMARK  status: ('A' for Active; 'I' for Inactive)
REMARK    1  A    between atoms: C_1  and  C_2
REMARK    2  A    between atoms: C_2  and  N_3
REMARK    3  A    between atoms: C_4  and  C_5
REMARK    4  A    between atoms: N_7  and  C_8
REMARK    5  A    between atoms: N_7  and  C_9
REMARK    6  A    between atoms: C_9  and  C_10
REMARK    7  A    between atoms: C_10  and  C_11
REMARK    8  A    between atoms: C_15  and  C_16
REMARK    9  A    between atoms: C_16  and  C_17
REMARK   10  A    between atoms: C_16  and  C_19
REMARK   11  A    between atoms: C_16  and  C_21
REMARK   12  A    between atoms: C_17  and  C_18
REMARK   13  A    between atoms: C_19  and  C_20
REMARK   14  A    between atoms: C_24  and  O_25
REMARK   15  A    between atoms: O_25  and  C_26
REMARK   16  A    between atoms: C_26  and  C_27
REMARK   17  A    between atoms: C_27  and  C_29
REMARK   18  A    between atoms: C_29  and  C_30
REMARK   19  A    between atoms: C_29  and  C_31
REMARK   20  A    between atoms: C_29  and  C_32
REMARK   21  A    between atoms: C_33  and  C_34
REMARK                            x       y       z     vdW  Elec       q    Type
REMARK                         _______ _______ _______ _____ _____    ______ ____
ROOT
ATOM      1  C   UNL     1      -0.134  11.242  19.427  0.00  0.00    +0.000 C 
ENDROOT
BRANCH   1   2
ATOM      2  C   UNL     1       0.773  10.001  19.169  0.00  0.00    +0.000 A 
ATOM      3  C   UNL     1       1.567   9.884  18.020  0.00  0.00    +0.000 A 
ATOM      4  C   UNL     1       2.383   8.770  17.806  0.00  0.00    +0.000 A 
ATOM      5  C   UNL     1       2.456   7.725  18.729  0.00  0.00    +0.000 A 
ATOM      6  C   UNL     1       1.717   7.819  19.913  0.00  0.00    +0.000 A 
ATOM      7  C   UNL     1       1.767   6.864  21.075  0.00  0.00    +0.000 C 
ATOM      8  C   UNL     1       0.866   8.952  20.104  0.00  0.00    +0.000 A 
BRANCH   5   9
ATOM      9  O   UNL     1       3.328   6.751  18.325  0.00  0.00    +0.000 OA
BRANCH   9  10
ATOM     10  C   UNL     1       2.786   5.579  17.755  0.00  0.00    +0.000 C 
BRANCH  10  11
ATOM     11  C   UNL     1       3.693   4.335  17.815  0.00  0.00    +0.000 C 
ATOM     12  O   UNL     1       4.738   4.256  17.167  0.00  0.00    +0.000 OA
BRANCH  11  13
ATOM     13  C   UNL     1       3.217   3.177  18.731  0.00  0.00    +0.000 C 
ATOM     14  C   UNL     1       1.938   3.594  19.470  0.00  0.00    +0.000 C 
ATOM     15  C   UNL     1       2.910   1.923  17.893  0.00  0.00    +0.000 C 
ATOM     16  C   UNL     1       4.315   2.819  19.744  0.00  0.00    +0.000 C 
ENDBRANCH  11  13
ENDBRANCH  10  11
ENDBRANCH   9  10
ENDBRANCH   5   9
ENDBRANCH   1   2
BRANCH   1  21
ATOM     17  N   UNL     1      -1.814  12.021  21.332  0.00  0.00    +0.000 N 
ATOM     18  C   UNL     1      -1.937  11.869  22.724  0.00  0.00    +0.000 A 
ATOM     19  C   UNL     1      -1.210  10.731  23.036  0.00  0.00    +0.000 A 
ATOM     20  C   UNL     1      -0.508  10.319  21.890  0.00  0.00    +0.000 A 
ATOM     21  C   UNL     1      -0.810  11.181  20.843  0.00  0.00    +0.000 A 
BRANCH  18  22
ATOM     22  C   UNL     1      -2.789  12.699  23.571  0.00  0.00    +0.000 C 
ATOM     23  O   UNL     1      -3.899  12.297  23.929  0.00  0.00    +0.000 OA
ATOM     24  N   UNL     1      -2.393  13.983  23.987  0.00  0.00    +0.000 N 
ATOM     25  C   UNL     1      -1.122  14.654  23.740  0.00  0.00    +0.000 C 
BRANCH  24  26
ATOM     26  C   UNL     1      -3.356  14.730  24.817  0.00  0.00    +0.000 C 
BRANCH  26  27
ATOM     27  C   UNL     1      -3.905  15.925  24.061  0.00  0.00    +0.000 C 
BRANCH  27  28
ATOM     28  C   UNL     1      -4.971  15.562  23.040  0.00  0.00    +0.000 C 
ATOM     29  N   UNL     1      -5.855  15.261  22.192  0.00  0.00    +0.000 NA
ENDBRANCH  27  28
ENDBRANCH  26  27
ENDBRANCH  24  26
ENDBRANCH  18  22
BRANCH  17  31
ATOM     30  C   UNL     1      -4.053  12.601  20.365  0.00  0.00    +0.000 C 
ATOM     31  C   UNL     1      -2.593  12.987  20.562  0.00  0.00    +0.000 C 
ENDBRANCH  17  31
ENDBRANCH   1  21
BRANCH   1  32
ATOM     32  C   UNL     1       0.763  12.545  19.369  0.00  0.00    +0.000 C 
ATOM     33  C   UNL     1       1.822  12.726  20.453  0.00  0.00    +0.000 C 
ENDBRANCH   1  32
BRANCH   1  34
ATOM     34  C   UNL     1      -1.266  11.382  18.337  0.00  0.00    +0.000 C 
ATOM     35  C   UNL     1      -2.082  10.135  18.014  0.00  0.00    +0.000 C 
ENDBRANCH   1  34
TORSDOF 13
ENDMDL
MODEL 5
REMARK VINA RESULT:      -6.8      2.041      2.901
REMARK  Name = 
REMARK  21 active torsions:
REMARK  status: ('A' for Active; 'I' for Inactive)
REMARK    1  A    between atoms: C_1  and  C_2
REMARK    2  A    between atoms: C_2  and  N_3
REMARK    3  A    between atoms: C_4  and  C_5
REMARK    4  A    between atoms: N_7  and  C_8
REMARK    5  A    between atoms: N_7  and  C_9
REMARK    6  A    between atoms: C_9  and  C_10
REMARK    7  A    between atoms: C_10  and  C_11
REMARK    8  A    between atoms: C_15  and  C_16
REMARK    9  A    between atoms: C_16  and  C_17
REMARK   10  A    between atoms: C_16  and  C_19
REMARK   11  A    between atoms: C_16  and  C_21
REMARK   12  A    between atoms: C_17  and  C_18
REMARK   13  A    between atoms: C_19  and  C_20
REMARK   14  A    between atoms: C_24  and  O_25
REMARK   15  A    between atoms: O_25  and  C_26
REMARK   16  A    between atoms: C_26  and  C_27
REMARK   17  A    between atoms: C_27  and  C_29
REMARK   18  A    between atoms: C_29  and  C_30
REMARK   19  A    between atoms: C_29  and  C_31
REMARK   20  A    between atoms: C_29  and  C_32
REMARK   21  A    between atoms: C_33  and  C_34
REMARK                            x       y       z     vdW  Elec       q    Type
REMARK                         _______ _______ _______ _____ _____    ______ ____
ROOT
ATOM      1  C   UNL     1       0.219  11.331  19.833  0.00  0.00    +0.000 C 
ENDROOT
BRANCH   1   2
ATOM      2  C   UNL     1       0.922   9.939  19.873  0.00  0.00    +0.000 A 
ATOM      3  C   UNL     1       0.867   9.109  21.000  0.00  0.00    +0.000 A 
ATOM      4  C   UNL     1       1.494   7.860  21.018  0.00  0.00    +0.000 A 
ATOM      5  C   UNL     1       2.195   7.374  19.912  0.00  0.00    +0.000 A 
ATOM      6  C   UNL     1       2.238   8.148  18.748  0.00  0.00    +0.000 A 
ATOM      7  C   UNL     1       2.828   7.740  17.426  0.00  0.00    +0.000 C 
ATOM      8  C   UNL     1       1.615   9.435  18.756  0.00  0.00    +0.000 A 
BRANCH   5   9
ATOM      9  O   UNL     1       2.710   6.127  20.146  0.00  0.00    +0.000 OA
BRANCH   9  10
ATOM     10  C   UNL     1       1.802   5.051  20.249  0.00  0.00    +0.000 C 
BRANCH  10  11
ATOM     11  C   UNL     1       2.332   3.691  19.756  0.00  0.00    +0.000 C 
ATOM     12  O   UNL     1       2.620   2.781  20.536  0.00  0.00    +0.000 OA
BRANCH  11  13
ATOM     13  C   UNL     1       2.493   3.527  18.222  0.00  0.00    +0.000 C 
ATOM     14  C   UNL     1       1.394   4.317  17.499  0.00  0.00    +0.000 C 
ATOM     15  C   UNL     1       3.862   4.063  17.767  0.00  0.00    +0.000 C 
ATOM     16  C   UNL     1       2.409   2.041  17.838  0.00  0.00    +0.000 C 
ENDBRANCH  11  13
ENDBRANCH  10  11
ENDBRANCH   9  10
ENDBRANCH   5   9
ENDBRANCH   1   2
BRANCH   1  21
ATOM     17  N   UNL     1      -0.974  12.865  21.644  0.00  0.00    +0.000 N 
ATOM     18  C   UNL     1      -1.368  12.757  22.989  0.00  0.00    +0.000 A 
ATOM     19  C   UNL     1      -1.481  11.397  23.232  0.00  0.00    +0.000 A 
ATOM     20  C   UNL     1      -0.979  10.700  22.119  0.00  0.00    +0.000 A 
ATOM     21  C   UNL     1      -0.572  11.618  21.158  0.00  0.00    +0.000 A 
BRANCH  18  22
ATOM     22  C   UNL     1      -1.706  13.893  23.842  0.00  0.00    +0.000 C 
ATOM     23  O   UNL     1      -0.820  14.620  24.299  0.00  0.00    +0.000 OA
ATOM     24  N   UNL     1      -3.038  14.185  24.190  0.00  0.00    +0.000 N 
ATOM     25  C   UNL     1      -4.251  13.512  23.742  0.00  0.00    +0.000 C 
BRANCH  24  26
ATOM     26  C   UNL     1      -3.244  15.342  25.080  0.00  0.00    +0.000 C 
BRANCH  26  27
ATOM     27  C   UNL     1      -4.114  16.389  24.411  0.00  0.00    +0.000 C 
BRANCH  27  28
ATOM     28  C   UNL     1      -3.379  17.214  23.366  0.00  0.00    +0.000 C 
ATOM     29  N   UNL     1      -2.769  17.898  22.499  0.00  0.00    +0.000 NA
ENDBRANCH  27  28
ENDBRANCH  26  27
ENDBRANCH  24  26
ENDBRANCH  18  22
BRANCH  17  31
ATOM     30  C   UNL     1      -2.299  14.657  20.497  0.00  0.00    +0.000 C 
ATOM     31  C   UNL     1      -0.933  14.134  20.923  0.00  0.00    +0.000 C 
ENDBRANCH  17  31
ENDBRANCH   1  21
BRANCH   1  32
ATOM     32  C   UNL     1       1.326  12.452  19.672  0.00  0.00    +0.000 C 
ATOM     33  C   UNL     1       1.485  13.099  18.299  0.00  0.00    +0.000 C 
ENDBRANCH   1  32
BRANCH   1  34
ATOM     34  C   UNL     1      -0.778  11.452  18.617  0.00  0.00    +0.000 C 
ATOM     35  C   UNL     1      -1.837  10.365  18.472  0.00  0.00    +0.000 C 
ENDBRANCH   1  34
TORSDOF 13
ENDMDL
MODEL 6
REMARK VINA RESULT:      -6.7      1.888      2.627
REMARK  Name = 
REMARK  21 active torsions:
REMARK  status: ('A' for Active; 'I' for Inactive)
REMARK    1  A    between atoms: C_1  and  C_2
REMARK    2  A    between atoms: C_2  and  N_3
REMARK    3  A    between atoms: C_4  and  C_5
REMARK    4  A    between atoms: N_7  and  C_8
REMARK    5  A    between atoms: N_7  and  C_9
REMARK    6  A    between atoms: C_9  and  C_10
REMARK    7  A    between atoms: C_10  and  C_11
REMARK    8  A    between atoms: C_15  and  C_16
REMARK    9  A    between atoms: C_16  and  C_17
REMARK   10  A    between atoms: C_16  and  C_19
REMARK   11  A    between atoms: C_16  and  C_21
REMARK   12  A    between atoms: C_17  and  C_18
REMARK   13  A    between atoms: C_19  and  C_20
REMARK   14  A    between atoms: C_24  and  O_25
REMARK   15  A    between atoms: O_25  and  C_26
REMARK   16  A    between atoms: C_26  and  C_27
REMARK   17  A    between atoms: C_27  and  C_29
REMARK   18  A    between atoms: C_29  and  C_30
REMARK   19  A    between atoms: C_29  and  C_31
REMARK   20  A    between atoms: C_29  and  C_32
REMARK   21  A    between atoms: C_33  and  C_34
REMARK                            x       y       z     vdW  Elec       q    Type
REMARK                         _______ _______ _______ _____ _____    ______ ____
ROOT
ATOM      1  C   UNL     1       0.425  11.050  19.805  0.00  0.00    +0.000 C 
ENDROOT
BRANCH   1   2
ATOM      2  C   UNL     1       1.077   9.634  19.813  0.00  0.00    +0.000 A 
ATOM      3  C   UNL     1       0.935   8.755  20.895  0.00  0.00    +0.000 A 
ATOM      4  C   UNL     1       1.517   7.484  20.885  0.00  0.00    +0.000 A 
ATOM      5  C   UNL     1       2.258   7.025  19.795  0.00  0.00    +0.000 A 
ATOM      6  C   UNL     1       2.388   7.849  18.672  0.00  0.00    +0.000 A 
ATOM      7  C   UNL     1       3.033   7.481  17.364  0.00  0.00    +0.000 C 
ATOM      8  C   UNL     1       1.810   9.156  18.710  0.00  0.00    +0.000 A 
BRANCH   5   9
ATOM      9  O   UNL     1       2.717   5.750  19.994  0.00  0.00    +0.000 OA
BRANCH   9  10
ATOM     10  C   UNL     1       3.988   5.421  19.476  0.00  0.00    +0.000 C 
BRANCH  10  11
ATOM     11  C   UNL     1       4.198   3.933  19.139  0.00  0.00    +0.000 C 
ATOM     12  O   UNL     1       4.834   3.179  19.879  0.00  0.00    +0.000 OA
BRANCH  11  13
ATOM     13  C   UNL     1       3.573   3.429  17.812  0.00  0.00    +0.000 C 
ATOM     14  C   UNL     1       2.149   3.984  17.667  0.00  0.00    +0.000 C 
ATOM     15  C   UNL     1       4.409   3.908  16.611  0.00  0.00    +0.000 C 
ATOM     16  C   UNL     1       3.541   1.893  17.791  0.00  0.00    +0.000 C 
ENDBRANCH  11  13
ENDBRANCH  10  11
ENDBRANCH   9  10
ENDBRANCH   5   9
ENDBRANCH   1   2
BRANCH   1  21
ATOM     17  N   UNL     1      -0.902  12.546  21.552  0.00  0.00    +0.000 N 
ATOM     18  C   UNL     1      -1.286  12.461  22.902  0.00  0.00    +0.000 A 
ATOM     19  C   UNL     1      -1.276  11.108  23.203  0.00  0.00    +0.000 A 
ATOM     20  C   UNL     1      -0.712  10.412  22.119  0.00  0.00    +0.000 A 
ATOM     21  C   UNL     1      -0.390  11.321  21.119  0.00  0.00    +0.000 A 
BRANCH  18  22
ATOM     22  C   UNL     1      -1.726  13.597  23.707  0.00  0.00    +0.000 C 
ATOM     23  O   UNL     1      -0.906  14.400  24.159  0.00  0.00    +0.000 OA
ATOM     24  N   UNL     1      -3.083  13.804  24.014  0.00  0.00    +0.000 N 
ATOM     25  C   UNL     1      -4.233  13.031  23.562  0.00  0.00    +0.000 C 
BRANCH  24  26
ATOM     26  C   UNL     1      -3.394  14.972  24.859  0.00  0.00    +0.000 C 
BRANCH  26  27
ATOM     27  C   UNL     1      -4.346  15.914  24.147  0.00  0.00    +0.000 C 
BRANCH  27  28
ATOM     28  C   UNL     1      -4.744  17.121  24.981  0.00  0.00    +0.000 C 
ATOM     29  N   UNL     1      -5.074  18.123  25.673  0.00  0.00    +0.000 NA
ENDBRANCH  27  28
ENDBRANCH  26  27
ENDBRANCH  24  26
ENDBRANCH  18  22
BRANCH  17  31
ATOM     30  C   UNL     1      -2.380  14.148  20.314  0.00  0.00    +0.000 C 
ATOM     31  C   UNL     1      -0.977  13.782  20.778  0.00  0.00    +0.000 C 
ENDBRANCH  17  31
ENDBRANCH   1  21
BRANCH   1  32
ATOM     32  C   UNL     1       1.574  12.135  19.709  0.00  0.00    +0.000 C 
ATOM     33  C   UNL     1       1.720  12.901  18.397  0.00  0.00    +0.000 C 
ENDBRANCH   1  32
BRANCH   1  34
ATOM     34  C   UNL     1      -0.536  11.248  18.569  0.00  0.00    +0.000 C 
ATOM     35  C   UNL     1      -1.768  10.355  18.493  0.00  0.00    +0.000 C 
ENDBRANCH   1  34
TORSDOF 13
ENDMDL
MODEL 7
REMARK VINA RESULT:      -6.7      4.543     11.142
REMARK  Name = 
REMARK  21 active torsions:
REMARK  status: ('A' for Active; 'I' for Inactive)
REMARK    1  A    between atoms: C_1  and  C_2
REMARK    2  A    between atoms: C_2  and  N_3
REMARK    3  A    between atoms: C_4  and  C_5
REMARK    4  A    between atoms: N_7  and  C_8
REMARK    5  A    between atoms: N_7  and  C_9
REMARK    6  A    between atoms: C_9  and  C_10
REMARK    7  A    between atoms: C_10  and  C_11
REMARK    8  A    between atoms: C_15  and  C_16
REMARK    9  A    between atoms: C_16  and  C_17
REMARK   10  A    between atoms: C_16  and  C_19
REMARK   11  A    between atoms: C_16  and  C_21
REMARK   12  A    between atoms: C_17  and  C_18
REMARK   13  A    between atoms: C_19  and  C_20
REMARK   14  A    between atoms: C_24  and  O_25
REMARK   15  A    between atoms: O_25  and  C_26
REMARK   16  A    between atoms: C_26  and  C_27
REMARK   17  A    between atoms: C_27  and  C_29
REMARK   18  A    between atoms: C_29  and  C_30
REMARK   19  A    between atoms: C_29  and  C_31
REMARK   20  A    between atoms: C_29  and  C_32
REMARK   21  A    between atoms: C_33  and  C_34
REMARK                            x       y       z     vdW  Elec       q    Type
REMARK                         _______ _______ _______ _____ _____    ______ ____
ROOT
ATOM      1  C   UNL     1       2.691   5.079  19.261  0.00  0.00    +0.000 C 
ENDROOT
BRANCH   1   2
ATOM      2  C   UNL     1       2.195   6.515  19.611  0.00  0.00    +0.000 A 
ATOM      3  C   UNL     1       1.819   6.877  20.912  0.00  0.00    +0.000 A 
ATOM      4  C   UNL     1       1.385   8.170  21.213  0.00  0.00    +0.000 A 
ATOM      5  C   UNL     1       1.315   9.167  20.238  0.00  0.00    +0.000 A 
ATOM      6  C   UNL     1       1.724   8.865  18.935  0.00  0.00    +0.000 A 
ATOM      7  C   UNL     1       1.842   9.834  17.790  0.00  0.00    +0.000 C 
ATOM      8  C   UNL     1       2.138   7.530  18.637  0.00  0.00    +0.000 A 
BRANCH   5   9
ATOM      9  O   UNL     1       0.883  10.357  20.760  0.00  0.00    +0.000 OA
BRANCH   9  10
ATOM     10  C   UNL     1      -0.495  10.490  21.038  0.00  0.00    +0.000 C 
BRANCH  10  11
ATOM     11  C   UNL     1      -0.834  11.069  22.425  0.00  0.00    +0.000 C 
ATOM     12  O   UNL     1      -0.399  10.570  23.465  0.00  0.00    +0.000 OA
BRANCH  11  13
ATOM     13  C   UNL     1      -1.763  12.311  22.447  0.00  0.00    +0.000 C 
ATOM     14  C   UNL     1      -0.959  13.551  22.861  0.00  0.00    +0.000 C 
ATOM     15  C   UNL     1      -2.360  12.559  21.051  0.00  0.00    +0.000 C 
ATOM     16  C   UNL     1      -2.923  12.086  23.431  0.00  0.00    +0.000 C 
ENDBRANCH  11  13
ENDBRANCH  10  11
ENDBRANCH   9  10
ENDBRANCH   5   9
ENDBRANCH   1   2
BRANCH   1  21
ATOM     17  N   UNL     1       4.716   5.514  17.598  0.00  0.00    +0.000 N 
ATOM     18  C   UNL     1       6.041   5.070  17.447  0.00  0.00    +0.000 A 
ATOM     19  C   UNL     1       6.422   4.614  18.700  0.00  0.00    +0.000 A 
ATOM     20  C   UNL     1       5.290   4.603  19.535  0.00  0.00    +0.000 A 
ATOM     21  C   UNL     1       4.198   5.078  18.820  0.00  0.00    +0.000 A 
BRANCH  18  22
ATOM     22  C   UNL     1       6.829   5.225  16.227  0.00  0.00    +0.000 C 
ATOM     23  O   UNL     1       7.718   6.078  16.160  0.00  0.00    +0.000 OA
ATOM     24  N   UNL     1       6.591   4.435  15.088  0.00  0.00    +0.000 N 
ATOM     25  C   UNL     1       5.640   3.340  14.938  0.00  0.00    +0.000 C 
BRANCH  24  26
ATOM     26  C   UNL     1       7.436   4.710  13.912  0.00  0.00    +0.000 C 
BRANCH  26  27
ATOM     27  C   UNL     1       6.658   4.496  12.627  0.00  0.00    +0.000 C 
BRANCH  27  28
ATOM     28  C   UNL     1       7.060   3.238  11.874  0.00  0.00    +0.000 C 
ATOM     29  N   UNL     1       7.392   2.194  11.250  0.00  0.00    +0.000 NA
ENDBRANCH  27  28
ENDBRANCH  26  27
ENDBRANCH  24  26
ENDBRANCH  18  22
BRANCH  17  31
ATOM     30  C   UNL     1       4.657   7.571  16.167  0.00  0.00    +0.000 C 
ATOM     31  C   UNL     1       4.000   6.256  16.564  0.00  0.00    +0.000 C 
ENDBRANCH  17  31
ENDBRANCH   1  21
BRANCH   1  32
ATOM     32  C   UNL     1       2.559   4.169  20.551  0.00  0.00    +0.000 C 
ATOM     33  C   UNL     1       1.200   3.537  20.836  0.00  0.00    +0.000 C 
ENDBRANCH   1  32
BRANCH   1  34
ATOM     34  C   UNL     1       1.832   4.423  18.112  0.00  0.00    +0.000 C 
ATOM     35  C   UNL     1       2.306   3.082  17.565  0.00  0.00    +0.000 C 
ENDBRANCH   1  34
TORSDOF 13
ENDMDL
MODEL 8
REMARK VINA RESULT:      -6.6      1.131      1.382
REMARK  Name = 
REMARK  21 active torsions:
REMARK  status: ('A' for Active; 'I' for Inactive)
REMARK    1  A    between atoms: C_1  and  C_2
REMARK    2  A    between atoms: C_2  and  N_3
REMARK    3  A    between atoms: C_4  and  C_5
REMARK    4  A    between atoms: N_7  and  C_8
REMARK    5  A    between atoms: N_7  and  C_9
REMARK    6  A    between atoms: C_9  and  C_10
REMARK    7  A    between atoms: C_10  and  C_11
REMARK    8  A    between atoms: C_15  and  C_16
REMARK    9  A    between atoms: C_16  and  C_17
REMARK   10  A    between atoms: C_16  and  C_19
REMARK   11  A    between atoms: C_16  and  C_21
REMARK   12  A    between atoms: C_17  and  C_18
REMARK   13  A    between atoms: C_19  and  C_20
REMARK   14  A    between atoms: C_24  and  O_25
REMARK   15  A    between atoms: O_25  and  C_26
REMARK   16  A    between atoms: C_26  and  C_27
REMARK   17  A    between atoms: C_27  and  C_29
REMARK   18  A    between atoms: C_29  and  C_30
REMARK   19  A    between atoms: C_29  and  C_31
REMARK   20  A    between atoms: C_29  and  C_32
REMARK   21  A    between atoms: C_33  and  C_34
REMARK                            x       y       z     vdW  Elec       q    Type
REMARK                         _______ _______ _______ _____ _____    ______ ____
ROOT
ATOM      1  C   UNL     1       0.046  11.297  19.175  0.00  0.00    +0.000 C 
ENDROOT
BRANCH   1   2
ATOM      2  C   UNL     1       0.839   9.966  18.998  0.00  0.00    +0.000 A 
ATOM      3  C   UNL     1       1.624   9.711  17.866  0.00  0.00    +0.000 A 
ATOM      4  C   UNL     1       2.337   8.517  17.726  0.00  0.00    +0.000 A 
ATOM      5  C   UNL     1       2.310   7.526  18.709  0.00  0.00    +0.000 A 
ATOM      6  C   UNL     1       1.577   7.756  19.878  0.00  0.00    +0.000 A 
ATOM      7  C   UNL     1       1.534   6.870  21.093  0.00  0.00    +0.000 C 
ATOM      8  C   UNL     1       0.832   8.970  19.993  0.00  0.00    +0.000 A 
BRANCH   5   9
ATOM      9  O   UNL     1       3.093   6.455  18.371  0.00  0.00    +0.000 OA
BRANCH   9  10
ATOM     10  C   UNL     1       4.320   6.717  17.723  0.00  0.00    +0.000 C 
BRANCH  10  11
ATOM     11  C   UNL     1       5.518   5.884  18.218  0.00  0.00    +0.000 C 
ATOM     12  O   UNL     1       5.519   5.332  19.319  0.00  0.00    +0.000 OA
BRANCH  11  13
ATOM     13  C   UNL     1       6.733   5.784  17.259  0.00  0.00    +0.000 C 
ATOM     14  C   UNL     1       7.534   7.092  17.300  0.00  0.00    +0.000 C 
ATOM     15  C   UNL     1       7.658   4.630  17.685  0.00  0.00    +0.000 C 
ATOM     16  C   UNL     1       6.253   5.509  15.825  0.00  0.00    +0.000 C 
ENDBRANCH  11  13
ENDBRANCH  10  11
ENDBRANCH   9  10
ENDBRANCH   5   9
ENDBRANCH   1   2
BRANCH   1  21
ATOM     17  N   UNL     1      -1.143  12.578  21.175  0.00  0.00    +0.000 N 
ATOM     18  C   UNL     1      -1.161  12.508  22.579  0.00  0.00    +0.000 A 
ATOM     19  C   UNL     1      -0.756  11.219  22.889  0.00  0.00    +0.000 A 
ATOM     20  C   UNL     1      -0.319  10.591  21.709  0.00  0.00    +0.000 A 
ATOM     21  C   UNL     1      -0.471  11.473  20.646  0.00  0.00    +0.000 A 
BRANCH  18  22
ATOM     22  C   UNL     1      -1.655  13.571  23.451  0.00  0.00    +0.000 C 
ATOM     23  O   UNL     1      -0.877  14.400  23.929  0.00  0.00    +0.000 OA
ATOM     24  N   UNL     1      -3.015  13.674  23.792  0.00  0.00    +0.000 N 
ATOM     25  C   UNL     1      -4.124  12.854  23.320  0.00  0.00    +0.000 C 
BRANCH  24  26
ATOM     26  C   UNL     1      -3.381  14.775  24.703  0.00  0.00    +0.000 C 
BRANCH  26  27
ATOM     27  C   UNL     1      -4.346  15.733  24.031  0.00  0.00    +0.000 C 
BRANCH  27  28
ATOM     28  C   UNL     1      -3.710  16.567  22.931  0.00  0.00    +0.000 C 
ATOM     29  N   UNL     1      -3.182  17.259  22.019  0.00  0.00    +0.000 NA
ENDBRANCH  27  28
ENDBRANCH  26  27
ENDBRANCH  24  26
ENDBRANCH  18  22
BRANCH  17  31
ATOM     30  C   UNL     1      -0.838  14.963  20.466  0.00  0.00    +0.000 C 
ATOM     31  C   UNL     1      -1.693  13.703  20.424  0.00  0.00    +0.000 C 
ENDBRANCH  17  31
ENDBRANCH   1  21
BRANCH   1  32
ATOM     32  C   UNL     1       1.013  12.508  18.849  0.00  0.00    +0.000 C 
ATOM     33  C   UNL     1       2.126  12.816  19.846  0.00  0.00    +0.000 C 
ENDBRANCH   1  32
BRANCH   1  34
ATOM     34  C   UNL     1      -1.188  11.383  18.196  0.00  0.00    +0.000 C 
ATOM     35  C   UNL     1      -1.621  10.095  17.505  0.00  0.00    +0.000 C 
ENDBRANCH   1  34
TORSDOF 13
ENDMDL
MODEL 9
REMARK VINA RESULT:      -6.6      1.905      2.716
REMARK  Name = 
REMARK  21 active torsions:
REMARK  status: ('A' for Active; 'I' for Inactive)
REMARK    1  A    between atoms: C_1  and  C_2
REMARK    2  A    between atoms: C_2  and  N_3
REMARK    3  A    between atoms: C_4  and  C_5
REMARK    4  A    between atoms: N_7  and  C_8
REMARK    5  A    between atoms: N_7  and  C_9
REMARK    6  A    between atoms: C_9  and  C_10
REMARK    7  A    between atoms: C_10  and  C_11
REMARK    8  A    between atoms: C_15  and  C_16
REMARK    9  A    between atoms: C_16  and  C_17
REMARK   10  A    between atoms: C_16  and  C_19
REMARK   11  A    between atoms: C_16  and  C_21
REMARK   12  A    between atoms: C_17  and  C_18
REMARK   13  A    between atoms: C_19  and  C_20
REMARK   14  A    between atoms: C_24  and  O_25
REMARK   15  A    between atoms: O_25  and  C_26
REMARK   16  A    between atoms: C_26  and  C_27
REMARK   17  A    between atoms: C_27  and  C_29
REMARK   18  A    between atoms: C_29  and  C_30
REMARK   19  A    between atoms: C_29  and  C_31
REMARK   20  A    between atoms: C_29  and  C_32
REMARK   21  A    between atoms: C_33  and  C_34
REMARK                            x       y       z     vdW  Elec       q    Type
REMARK                         _______ _______ _______ _____ _____    ______ ____
ROOT
ATOM      1  C   UNL     1       0.290  11.074  19.782  0.00  0.00    +0.000 C 
ENDROOT
BRANCH   1   2
ATOM      2  C   UNL     1       0.982   9.677  19.800  0.00  0.00    +0.000 A 
ATOM      3  C   UNL     1       0.873   8.806  20.891  0.00  0.00    +0.000 A 
ATOM      4  C   UNL     1       1.490   7.552  20.890  0.00  0.00    +0.000 A 
ATOM      5  C   UNL     1       2.235   7.102  19.798  0.00  0.00    +0.000 A 
ATOM      6  C   UNL     1       2.333   7.918  18.666  0.00  0.00    +0.000 A 
ATOM      7  C   UNL     1       2.976   7.554  17.356  0.00  0.00    +0.000 C 
ATOM      8  C   UNL     1       1.719   9.208  18.695  0.00  0.00    +0.000 A 
BRANCH   5   9
ATOM      9  O   UNL     1       2.731   5.843  20.006  0.00  0.00    +0.000 OA
BRANCH   9  10
ATOM     10  C   UNL     1       1.889   4.749  19.714  0.00  0.00    +0.000 C 
BRANCH  10  11
ATOM     11  C   UNL     1       2.087   4.116  18.323  0.00  0.00    +0.000 C 
ATOM     12  O   UNL     1       1.237   4.210  17.436  0.00  0.00    +0.000 OA
BRANCH  11  13
ATOM     13  C   UNL     1       3.412   3.343  18.099  0.00  0.00    +0.000 C 
ATOM     14  C   UNL     1       3.107   1.869  17.798  0.00  0.00    +0.000 C 
ATOM     15  C   UNL     1       4.183   3.936  16.906  0.00  0.00    +0.000 C 
ATOM     16  C   UNL     1       4.304   3.448  19.346  0.00  0.00    +0.000 C 
ENDBRANCH  11  13
ENDBRANCH  10  11
ENDBRANCH   9  10
ENDBRANCH   5   9
ENDBRANCH   1   2
BRANCH   1  21
ATOM     17  N   UNL     1      -1.324  12.446  21.384  0.00  0.00    +0.000 N 
ATOM     18  C   UNL     1      -1.686  12.430  22.743  0.00  0.00    +0.000 A 
ATOM     19  C   UNL     1      -1.398  11.149  23.186  0.00  0.00    +0.000 A 
ATOM     20  C   UNL     1      -0.699  10.470  22.172  0.00  0.00    +0.000 A 
ATOM     21  C   UNL     1      -0.568  11.313  21.075  0.00  0.00    +0.000 A 
BRANCH  18  22
ATOM     22  C   UNL     1      -2.355  13.532  23.430  0.00  0.00    +0.000 C 
ATOM     23  O   UNL     1      -1.707  14.331  24.111  0.00  0.00    +0.000 OA
ATOM     24  N   UNL     1      -3.749  13.708  23.362  0.00  0.00    +0.000 N 
ATOM     25  C   UNL     1      -4.715  12.935  22.591  0.00  0.00    +0.000 C 
BRANCH  24  26
ATOM     26  C   UNL     1      -4.304  14.842  24.123  0.00  0.00    +0.000 C 
BRANCH  26  27
ATOM     27  C   UNL     1      -4.705  15.972  23.193  0.00  0.00    +0.000 C 
BRANCH  27  28
ATOM     28  C   UNL     1      -4.443  17.355  23.767  0.00  0.00    +0.000 C 
ATOM     29  N   UNL     1      -4.225  18.502  24.243  0.00  0.00    +0.000 NA
ENDBRANCH  27  28
ENDBRANCH  26  27
ENDBRANCH  24  26
ENDBRANCH  18  22
BRANCH  17  31
ATOM     30  C   UNL     1      -0.737  14.760  20.621  0.00  0.00    +0.000 C 
ATOM     31  C   UNL     1      -1.650  13.548  20.484  0.00  0.00    +0.000 C 
ENDBRANCH  17  31
ENDBRANCH   1  21
BRANCH   1  32
ATOM     32  C   UNL     1       1.410  12.192  19.725  0.00  0.00    +0.000 C 
ATOM     33  C   UNL     1       1.908  12.628  18.350  0.00  0.00    +0.000 C 
ENDBRANCH   1  32
BRANCH   1  34
ATOM     34  C   UNL     1      -0.642  11.254  18.522  0.00  0.00    +0.000 C 
ATOM     35  C   UNL     1      -1.819  10.297  18.382  0.00  0.00    +0.000 C 
ENDBRANCH   1  34
TORSDOF 13
ENDMDL
