MODEL 1
REMARK VINA RESULT:      -8.5      0.000      0.000
REMARK  Name = 
REMARK  7 active torsions:
REMARK  status: ('A' for Active; 'I' for Inactive)
REMARK    1  A    between atoms: C_2  and  C_11
REMARK    2  A    between atoms: N_3  and  C_4
REMARK    3  A    between atoms: C_4  and  C_5
REMARK    4  A    between atoms: C_15  and  C_16
REMARK    5  A    between atoms: C_16  and  O_17
REMARK    6  A    between atoms: O_17  and  C_18
REMARK    7  A    between atoms: C_21  and  C_22
REMARK                            x       y       z     vdW  Elec       q    Type
REMARK                         _______ _______ _______ _____ _____    ______ ____
ROOT
ATOM      1  C   UNL     1       0.769   9.361  20.898  0.00  0.00    +0.000 A 
ATOM      2  C   UNL     1       0.517   8.827  22.163  0.00  0.00    +0.000 A 
ATOM      3  C   UNL     1      -0.278   9.532  23.069  0.00  0.00    +0.000 A 
ATOM      4  C   UNL     1      -0.821  10.767  22.707  0.00  0.00    +0.000 A 
ATOM      5  C   UNL     1      -0.548  11.323  21.458  0.00  0.00    +0.000 A 
ATOM      6  C   UNL     1       0.261  10.618  20.549  0.00  0.00    +0.000 A 
ENDROOT
BRANCH   1   8
ATOM      7  O   UNL     1       1.703   9.071  18.753  0.00  0.00    +0.000 OA
ATOM      8  C   UNL     1       1.567   8.626  19.887  0.00  0.00    +0.000 C 
ATOM      9  N   UNL     1       2.076   7.419  20.308  0.00  0.00    +0.000 N 
ATOM     10  H   UNL     1       1.681   6.993  21.136  0.00  0.00    +0.000 HD
BRANCH   9  11
ATOM     11  C   UNL     1       2.783   6.558  19.391  0.00  0.00    +0.000 C 
BRANCH  11  12
ATOM     12  C   UNL     1       2.146   5.195  19.323  0.00  0.00    +0.000 A 
ATOM     13  C   UNL     1       1.646   4.586  20.481  0.00  0.00    +0.000 A 
ATOM     14  C   UNL     1       1.056   3.323  20.419  0.00  0.00    +0.000 A 
ATOM     15  C   UNL     1       0.960   2.655  19.198  0.00  0.00    +0.000 A 
ATOM     16  C   UNL     1       1.437   3.257  18.038  0.00  0.00    +0.000 A 
ATOM     17  C   UNL     1       2.023   4.524  18.098  0.00  0.00    +0.000 A 
ENDBRANCH  11  12
ENDBRANCH   9  11
ENDBRANCH   1   8
BRANCH   5  18
ATOM     18  C   UNL     1      -1.103  12.677  21.081  0.00  0.00    +0.000 C 
BRANCH  18  19
ATOM     19  O   UNL     1      -1.410  12.702  19.691  0.00  0.00    +0.000 OA
BRANCH  19  20
ATOM     20  C   UNL     1      -2.673  12.337  19.303  0.00  0.00    +0.000 A 
ATOM     21  C   UNL     1      -3.679  12.855  20.136  0.00  0.00    +0.000 A 
ATOM     22  C   UNL     1      -5.031  12.529  19.945  0.00  0.00    +0.000 A 
ATOM     23  C   UNL     1      -5.411  11.682  18.906  0.00  0.00    +0.000 A 
ATOM     24  C   UNL     1      -4.414  11.159  18.075  0.00  0.00    +0.000 A 
ATOM     25  C   UNL     1      -3.059  11.467  18.270  0.00  0.00    +0.000 A 
ATOM     26 CL   UNL     1      -1.991  10.609  17.219  0.00  0.00    +0.000 Cl
BRANCH  23  27
ATOM     27  C   UNL     1      -6.855  11.308  18.678  0.00  0.00    +0.000 C 
ATOM     28  F   UNL     1      -7.054   9.967  18.558  0.00  0.00    +0.000 F 
ATOM     29  F   UNL     1      -7.660  11.718  19.696  0.00  0.00    +0.000 F 
ATOM     30  F   UNL     1      -7.364  11.866  17.546  0.00  0.00    +0.000 F 
ENDBRANCH  23  27
ENDBRANCH  19  20
ENDBRANCH  18  19
ENDBRANCH   5  18
TORSDOF 7
ENDMDL
MODEL 2
REMARK VINA RESULT:      -8.3      7.354     10.283
REMARK  Name = 
REMARK  7 active torsions:
REMARK  status: ('A' for Active; 'I' for Inactive)
REMARK    1  A    between atoms: C_2  and  C_11
REMARK    2  A    between atoms: N_3  and  C_4
REMARK    3  A    between atoms: C_4  and  C_5
REMARK    4  A    between atoms: C_15  and  C_16
REMARK    5  A    between atoms: C_16  and  O_17
REMARK    6  A    between atoms: O_17  and  C_18
REMARK    7  A    between atoms: C_21  and  C_22
REMARK                            x       y       z     vdW  Elec       q    Type
REMARK                         _______ _______ _______ _____ _____    ______ ____
ROOT
ATOM      1  C   UNL     1       8.042   7.814  18.252  0.00  0.00    +0.000 A 
ATOM      2  C   UNL     1       8.445   6.992  19.307  0.00  0.00    +0.000 A 
ATOM      3  C   UNL     1       8.144   5.630  19.282  0.00  0.00    +0.000 A 
ATOM      4  C   UNL     1       7.442   5.091  18.200  0.00  0.00    +0.000 A 
ATOM      5  C   UNL     1       7.008   5.908  17.157  0.00  0.00    +0.000 A 
ATOM      6  C   UNL     1       7.303   7.282  17.188  0.00  0.00    +0.000 A 
ENDROOT
BRANCH   1   8
ATOM      7  O   UNL     1       7.858  10.001  17.393  0.00  0.00    +0.000 OA
ATOM      8  C   UNL     1       8.383   9.257  18.213  0.00  0.00    +0.000 C 
ATOM      9  N   UNL     1       9.344   9.655  19.113  0.00  0.00    +0.000 N 
ATOM     10  H   UNL     1       9.928   8.947  19.538  0.00  0.00    +0.000 HD
BRANCH   9  11
ATOM     11  C   UNL     1       9.840  11.010  19.109  0.00  0.00    +0.000 C 
BRANCH  11  12
ATOM     12  C   UNL     1       9.299  11.791  20.277  0.00  0.00    +0.000 A 
ATOM     13  C   UNL     1       8.976  11.144  21.477  0.00  0.00    +0.000 A 
ATOM     14  C   UNL     1       8.475  11.866  22.559  0.00  0.00    +0.000 A 
ATOM     15  C   UNL     1       8.289  13.246  22.454  0.00  0.00    +0.000 A 
ATOM     16  C   UNL     1       8.621  13.902  21.273  0.00  0.00    +0.000 A 
ATOM     17  C   UNL     1       9.129  13.181  20.191  0.00  0.00    +0.000 A 
ENDBRANCH  11  12
ENDBRANCH   9  11
ENDBRANCH   1   8
BRANCH   5  18
ATOM     18  C   UNL     1       6.216   5.331  16.008  0.00  0.00    +0.000 C 
BRANCH  18  19
ATOM     19  O   UNL     1       4.883   5.833  16.041  0.00  0.00    +0.000 OA
BRANCH  19  20
ATOM     20  C   UNL     1       4.013   5.289  16.951  0.00  0.00    +0.000 A 
ATOM     21  C   UNL     1       3.908   3.892  16.849  0.00  0.00    +0.000 A 
ATOM     22  C   UNL     1       3.009   3.163  17.644  0.00  0.00    +0.000 A 
ATOM     23  C   UNL     1       2.198   3.816  18.569  0.00  0.00    +0.000 A 
ATOM     24  C   UNL     1       2.293   5.209  18.671  0.00  0.00    +0.000 A 
ATOM     25  C   UNL     1       3.177   5.946  17.869  0.00  0.00    +0.000 A 
ATOM     26 CL   UNL     1       3.035   7.655  18.063  0.00  0.00    +0.000 Cl
BRANCH  23  27
ATOM     27  C   UNL     1       1.218   3.063  19.433  0.00  0.00    +0.000 C 
ATOM     28  F   UNL     1       0.346   2.295  18.722  0.00  0.00    +0.000 F 
ATOM     29  F   UNL     1       1.841   2.217  20.301  0.00  0.00    +0.000 F 
ATOM     30  F   UNL     1       0.453   3.890  20.197  0.00  0.00    +0.000 F 
ENDBRANCH  23  27
ENDBRANCH  19  20
ENDBRANCH  18  19
ENDBRANCH   5  18
TORSDOF 7
ENDMDL
MODEL 3
REMARK VINA RESULT:      -8.2      4.453      6.895
REMARK  Name = 
REMARK  7 active torsions:
REMARK  status: ('A' for Active; 'I' for Inactive)
REMARK    1  A    between atoms: C_2  and  C_11
REMARK    2  A    between atoms: N_3  and  C_4
REMARK    3  A    between atoms: C_4  and  C_5
REMARK    4  A    between atoms: C_15  and  C_16
REMARK    5  A    between atoms: C_16  and  O_17
REMARK    6  A    between atoms: O_17  and  C_18
REMARK    7  A    between atoms: C_21  and  C_22
REMARK                            x       y       z     vdW  Elec       q    Type
REMARK                         _______ _______ _______ _____ _____    ______ ____
ROOT
ATOM      1  C   UNL     1       3.803   4.067  18.248  0.00  0.00    +0.000 A 
ATOM      2  C   UNL     1       3.047   2.978  17.806  0.00  0.00    +0.000 A 
ATOM      3  C   UNL     1       1.761   2.774  18.309  0.00  0.00    +0.000 A 
ATOM      4  C   UNL     1       1.232   3.660  19.251  0.00  0.00    +0.000 A 
ATOM      5  C   UNL     1       1.990   4.731  19.722  0.00  0.00    +0.000 A 
ATOM      6  C   UNL     1       3.289   4.930  19.223  0.00  0.00    +0.000 A 
ENDROOT
BRANCH   1   8
ATOM      7  O   UNL     1       6.157   4.084  18.356  0.00  0.00    +0.000 OA
ATOM      8  C   UNL     1       5.154   4.350  17.705  0.00  0.00    +0.000 C 
ATOM      9  N   UNL     1       5.172   4.964  16.474  0.00  0.00    +0.000 N 
ATOM     10  H   UNL     1       4.326   5.409  16.146  0.00  0.00    +0.000 HD
BRANCH   9  11
ATOM     11  C   UNL     1       6.418   5.386  15.881  0.00  0.00    +0.000 C 
BRANCH  11  12
ATOM     12  C   UNL     1       6.560   4.858  14.479  0.00  0.00    +0.000 A 
ATOM     13  C   UNL     1       7.624   5.271  13.668  0.00  0.00    +0.000 A 
ATOM     14  C   UNL     1       7.756   4.782  12.368  0.00  0.00    +0.000 A 
ATOM     15  C   UNL     1       6.824   3.875  11.864  0.00  0.00    +0.000 A 
ATOM     16  C   UNL     1       5.771   3.444  12.666  0.00  0.00    +0.000 A 
ATOM     17  C   UNL     1       5.642   3.928  13.969  0.00  0.00    +0.000 A 
ENDBRANCH  11  12
ENDBRANCH   9  11
ENDBRANCH   1   8
BRANCH   5  18
ATOM     18  C   UNL     1       1.432   5.665  20.769  0.00  0.00    +0.000 C 
BRANCH  18  19
ATOM     19  O   UNL     1       2.166   6.886  20.766  0.00  0.00    +0.000 OA
BRANCH  19  20
ATOM     20  C   UNL     1       1.532   8.018  20.323  0.00  0.00    +0.000 A 
ATOM     21  C   UNL     1       0.584   8.513  21.234  0.00  0.00    +0.000 A 
ATOM     22  C   UNL     1      -0.221   9.621  20.925  0.00  0.00    +0.000 A 
ATOM     23  C   UNL     1      -0.089  10.268  19.699  0.00  0.00    +0.000 A 
ATOM     24  C   UNL     1       0.850   9.777  18.785  0.00  0.00    +0.000 A 
ATOM     25  C   UNL     1       1.647   8.660  19.079  0.00  0.00    +0.000 A 
ATOM     26 CL   UNL     1       2.638   8.144  17.763  0.00  0.00    +0.000 Cl
BRANCH  23  27
ATOM     27  C   UNL     1      -0.943  11.457  19.335  0.00  0.00    +0.000 C 
ATOM     28  F   UNL     1      -0.236  12.486  18.793  0.00  0.00    +0.000 F 
ATOM     29  F   UNL     1      -1.905  11.141  18.424  0.00  0.00    +0.000 F 
ATOM     30  F   UNL     1      -1.598  11.976  20.409  0.00  0.00    +0.000 F 
ENDBRANCH  23  27
ENDBRANCH  19  20
ENDBRANCH  18  19
ENDBRANCH   5  18
TORSDOF 7
ENDMDL
MODEL 4
REMARK VINA RESULT:      -8.1      1.826      2.461
REMARK  Name = 
REMARK  7 active torsions:
REMARK  status: ('A' for Active; 'I' for Inactive)
REMARK    1  A    between atoms: C_2  and  C_11
REMARK    2  A    between atoms: N_3  and  C_4
REMARK    3  A    between atoms: C_4  and  C_5
REMARK    4  A    between atoms: C_15  and  C_16
REMARK    5  A    between atoms: C_16  and  O_17
REMARK    6  A    between atoms: O_17  and  C_18
REMARK    7  A    between atoms: C_21  and  C_22
REMARK                            x       y       z     vdW  Elec       q    Type
REMARK                         _______ _______ _______ _____ _____    ______ ____
ROOT
ATOM      1  C   UNL     1       0.841   9.344  20.888  0.00  0.00    +0.000 A 
ATOM      2  C   UNL     1       0.203   8.775  21.992  0.00  0.00    +0.000 A 
ATOM      3  C   UNL     1      -0.540   9.581  22.858  0.00  0.00    +0.000 A 
ATOM      4  C   UNL     1      -0.645  10.953  22.615  0.00  0.00    +0.000 A 
ATOM      5  C   UNL     1       0.015  11.535  21.533  0.00  0.00    +0.000 A 
ATOM      6  C   UNL     1       0.771  10.725  20.668  0.00  0.00    +0.000 A 
ENDROOT
BRANCH   1   8
ATOM      7  O   UNL     1       1.642   8.831  18.731  0.00  0.00    +0.000 OA
ATOM      8  C   UNL     1       1.599   8.519  19.916  0.00  0.00    +0.000 C 
ATOM      9  N   UNL     1       2.182   7.389  20.438  0.00  0.00    +0.000 N 
ATOM     10  H   UNL     1       1.860   7.052  21.335  0.00  0.00    +0.000 HD
BRANCH   9  11
ATOM     11  C   UNL     1       2.861   6.447  19.581  0.00  0.00    +0.000 C 
BRANCH  11  12
ATOM     12  C   UNL     1       2.147   5.123  19.554  0.00  0.00    +0.000 A 
ATOM     13  C   UNL     1       1.901   4.472  18.338  0.00  0.00    +0.000 A 
ATOM     14  C   UNL     1       1.239   3.244  18.312  0.00  0.00    +0.000 A 
ATOM     15  C   UNL     1       0.814   2.653  19.503  0.00  0.00    +0.000 A 
ATOM     16  C   UNL     1       1.068   3.281  20.718  0.00  0.00    +0.000 A 
ATOM     17  C   UNL     1       1.736   4.507  20.746  0.00  0.00    +0.000 A 
ENDBRANCH  11  12
ENDBRANCH   9  11
ENDBRANCH   1   8
BRANCH   5  18
ATOM     18  C   UNL     1      -0.067  13.024  21.294  0.00  0.00    +0.000 C 
BRANCH  18  19
ATOM     19  O   UNL     1      -1.401  13.384  20.949  0.00  0.00    +0.000 OA
BRANCH  19  20
ATOM     20  C   UNL     1      -2.007  12.706  19.923  0.00  0.00    +0.000 A 
ATOM     21  C   UNL     1      -1.164  12.507  18.818  0.00  0.00    +0.000 A 
ATOM     22  C   UNL     1      -1.628  11.900  17.640  0.00  0.00    +0.000 A 
ATOM     23  C   UNL     1      -2.948  11.468  17.543  0.00  0.00    +0.000 A 
ATOM     24  C   UNL     1      -3.796  11.668  18.639  0.00  0.00    +0.000 A 
ATOM     25  C   UNL     1      -3.344  12.289  19.813  0.00  0.00    +0.000 A 
ATOM     26 CL   UNL     1      -4.585  12.555  20.983  0.00  0.00    +0.000 Cl
BRANCH  23  27
ATOM     27  C   UNL     1      -3.479  10.818  16.290  0.00  0.00    +0.000 C 
ATOM     28  F   UNL     1      -3.256   9.475  16.240  0.00  0.00    +0.000 F 
ATOM     29  F   UNL     1      -4.824  10.981  16.155  0.00  0.00    +0.000 F 
ATOM     30  F   UNL     1      -2.921  11.332  15.160  0.00  0.00    +0.000 F 
ENDBRANCH  23  27
ENDBRANCH  19  20
ENDBRANCH  18  19
ENDBRANCH   5  18
TORSDOF 7
ENDMDL
MODEL 5
REMARK VINA RESULT:      -8.1      4.409      6.558
REMARK  Name = 
REMARK  7 active torsions:
REMARK  status: ('A' for Active; 'I' for Inactive)
REMARK    1  A    between atoms: C_2  and  C_11
REMARK    2  A    between atoms: N_3  and  C_4
REMARK    3  A    between atoms: C_4  and  C_5
REMARK    4  A    between atoms: C_15  and  C_16
REMARK    5  A    between atoms: C_16  and  O_17
REMARK    6  A    between atoms: O_17  and  C_18
REMARK    7  A    between atoms: C_21  and  C_22
REMARK                            x       y       z     vdW  Elec       q    Type
REMARK                         _______ _______ _______ _____ _____    ______ ____
ROOT
ATOM      1  C   UNL     1       3.909   5.259  17.955  0.00  0.00    +0.000 A 
ATOM      2  C   UNL     1       3.336   4.032  17.613  0.00  0.00    +0.000 A 
ATOM      3  C   UNL     1       2.167   3.609  18.249  0.00  0.00    +0.000 A 
ATOM      4  C   UNL     1       1.573   4.415  19.223  0.00  0.00    +0.000 A 
ATOM      5  C   UNL     1       2.154   5.626  19.595  0.00  0.00    +0.000 A 
ATOM      6  C   UNL     1       3.337   6.047  18.961  0.00  0.00    +0.000 A 
ENDROOT
BRANCH   1   8
ATOM      7  O   UNL     1       5.315   6.975  17.160  0.00  0.00    +0.000 OA
ATOM      8  C   UNL     1       5.122   5.771  17.272  0.00  0.00    +0.000 C 
ATOM      9  N   UNL     1       5.949   4.804  16.749  0.00  0.00    +0.000 N 
ATOM     10  H   UNL     1       5.580   3.871  16.623  0.00  0.00    +0.000 HD
BRANCH   9  11
ATOM     11  C   UNL     1       7.108   5.170  15.971  0.00  0.00    +0.000 C 
BRANCH  11  12
ATOM     12  C   UNL     1       6.952   4.754  14.533  0.00  0.00    +0.000 A 
ATOM     13  C   UNL     1       5.981   3.813  14.166  0.00  0.00    +0.000 A 
ATOM     14  C   UNL     1       5.836   3.426  12.834  0.00  0.00    +0.000 A 
ATOM     15  C   UNL     1       6.661   3.977  11.852  0.00  0.00    +0.000 A 
ATOM     16  C   UNL     1       7.618   4.925  12.201  0.00  0.00    +0.000 A 
ATOM     17  C   UNL     1       7.760   5.317  13.533  0.00  0.00    +0.000 A 
ENDBRANCH  11  12
ENDBRANCH   9  11
ENDBRANCH   1   8
BRANCH   5  18
ATOM     18  C   UNL     1       1.533   6.478  20.676  0.00  0.00    +0.000 C 
BRANCH  18  19
ATOM     19  O   UNL     1       1.999   7.818  20.561  0.00  0.00    +0.000 OA
BRANCH  19  20
ATOM     20  C   UNL     1       1.118   8.773  20.123  0.00  0.00    +0.000 A 
ATOM     21  C   UNL     1       1.367   9.193  18.806  0.00  0.00    +0.000 A 
ATOM     22  C   UNL     1       0.618  10.219  18.208  0.00  0.00    +0.000 A 
ATOM     23  C   UNL     1      -0.407  10.844  18.913  0.00  0.00    +0.000 A 
ATOM     24  C   UNL     1      -0.658  10.434  20.228  0.00  0.00    +0.000 A 
ATOM     25  C   UNL     1       0.097   9.421  20.837  0.00  0.00    +0.000 A 
ATOM     26 CL   UNL     1      -0.290   9.168  22.501  0.00  0.00    +0.000 Cl
BRANCH  23  27
ATOM     27  C   UNL     1      -1.226  11.954  18.301  0.00  0.00    +0.000 C 
ATOM     28  F   UNL     1      -0.489  13.045  17.956  0.00  0.00    +0.000 F 
ATOM     29  F   UNL     1      -1.863  11.556  17.165  0.00  0.00    +0.000 F 
ATOM     30  F   UNL     1      -2.198  12.407  19.139  0.00  0.00    +0.000 F 
ENDBRANCH  23  27
ENDBRANCH  19  20
ENDBRANCH  18  19
ENDBRANCH   5  18
TORSDOF 7
ENDMDL
MODEL 6
REMARK VINA RESULT:      -8.1      1.814      2.366
REMARK  Name = 
REMARK  7 active torsions:
REMARK  status: ('A' for Active; 'I' for Inactive)
REMARK    1  A    between atoms: C_2  and  C_11
REMARK    2  A    between atoms: N_3  and  C_4
REMARK    3  A    between atoms: C_4  and  C_5
REMARK    4  A    between atoms: C_15  and  C_16
REMARK    5  A    between atoms: C_16  and  O_17
REMARK    6  A    between atoms: O_17  and  C_18
REMARK    7  A    between atoms: C_21  and  C_22
REMARK                            x       y       z     vdW  Elec       q    Type
REMARK                         _______ _______ _______ _____ _____    ______ ____
ROOT
ATOM      1  C   UNL     1       0.826   9.333  20.891  0.00  0.00    +0.000 A 
ATOM      2  C   UNL     1       0.204   8.750  21.998  0.00  0.00    +0.000 A 
ATOM      3  C   UNL     1      -0.540   9.542  22.875  0.00  0.00    +0.000 A 
ATOM      4  C   UNL     1      -0.662  10.914  22.642  0.00  0.00    +0.000 A 
ATOM      5  C   UNL     1      -0.019  11.511  21.559  0.00  0.00    +0.000 A 
ATOM      6  C   UNL     1       0.738  10.715  20.682  0.00  0.00    +0.000 A 
ENDROOT
BRANCH   1   8
ATOM      7  O   UNL     1       1.602   8.836  18.722  0.00  0.00    +0.000 OA
ATOM      8  C   UNL     1       1.584   8.524  19.907  0.00  0.00    +0.000 C 
ATOM      9  N   UNL     1       2.197   7.405  20.420  0.00  0.00    +0.000 N 
ATOM     10  H   UNL     1       1.896   7.061  21.322  0.00  0.00    +0.000 HD
BRANCH   9  11
ATOM     11  C   UNL     1       2.881   6.477  19.551  0.00  0.00    +0.000 C 
BRANCH  11  12
ATOM     12  C   UNL     1       2.155   5.160  19.482  0.00  0.00    +0.000 A 
ATOM     13  C   UNL     1       1.603   4.591  20.637  0.00  0.00    +0.000 A 
ATOM     14  C   UNL     1       0.930   3.371  20.574  0.00  0.00    +0.000 A 
ATOM     15  C   UNL     1       0.802   2.704  19.355  0.00  0.00    +0.000 A 
ATOM     16  C   UNL     1       1.332   3.267  18.197  0.00  0.00    +0.000 A 
ATOM     17  C   UNL     1       2.000   4.491  18.258  0.00  0.00    +0.000 A 
ENDBRANCH  11  12
ENDBRANCH   9  11
ENDBRANCH   1   8
BRANCH   5  18
ATOM     18  C   UNL     1      -0.119  13.000  21.331  0.00  0.00    +0.000 C 
BRANCH  18  19
ATOM     19  O   UNL     1      -1.461  13.348  21.003  0.00  0.00    +0.000 OA
BRANCH  19  20
ATOM     20  C   UNL     1      -2.064  12.686  19.965  0.00  0.00    +0.000 A 
ATOM     21  C   UNL     1      -1.211  12.486  18.867  0.00  0.00    +0.000 A 
ATOM     22  C   UNL     1      -1.670  11.894  17.680  0.00  0.00    +0.000 A 
ATOM     23  C   UNL     1      -2.994  11.478  17.566  0.00  0.00    +0.000 A 
ATOM     24  C   UNL     1      -3.851  11.679  18.654  0.00  0.00    +0.000 A 
ATOM     25  C   UNL     1      -3.404  12.286  19.838  0.00  0.00    +0.000 A 
ATOM     26 CL   UNL     1      -4.655  12.558  20.997  0.00  0.00    +0.000 Cl
BRANCH  23  27
ATOM     27  C   UNL     1      -3.518  10.844  16.301  0.00  0.00    +0.000 C 
ATOM     28  F   UNL     1      -4.866  10.969  16.152  0.00  0.00    +0.000 F 
ATOM     29  F   UNL     1      -2.964  11.390  15.184  0.00  0.00    +0.000 F 
ATOM     30  F   UNL     1      -3.256   9.511  16.240  0.00  0.00    +0.000 F 
ENDBRANCH  23  27
ENDBRANCH  19  20
ENDBRANCH  18  19
ENDBRANCH   5  18
TORSDOF 7
ENDMDL
MODEL 7
REMARK VINA RESULT:      -8.1      4.391      6.557
REMARK  Name = 
REMARK  7 active torsions:
REMARK  status: ('A' for Active; 'I' for Inactive)
REMARK    1  A    between atoms: C_2  and  C_11
REMARK    2  A    between atoms: N_3  and  C_4
REMARK    3  A    between atoms: C_4  and  C_5
REMARK    4  A    between atoms: C_15  and  C_16
REMARK    5  A    between atoms: C_16  and  O_17
REMARK    6  A    between atoms: O_17  and  C_18
REMARK    7  A    between atoms: C_21  and  C_22
REMARK                            x       y       z     vdW  Elec       q    Type
REMARK                         _______ _______ _______ _____ _____    ______ ____
ROOT
ATOM      1  C   UNL     1       3.978   4.905  18.127  0.00  0.00    +0.000 A 
ATOM      2  C   UNL     1       3.239   3.857  17.574  0.00  0.00    +0.000 A 
ATOM      3  C   UNL     1       1.947   3.599  18.034  0.00  0.00    +0.000 A 
ATOM      4  C   UNL     1       1.394   4.392  19.043  0.00  0.00    +0.000 A 
ATOM      5  C   UNL     1       2.136   5.421  19.623  0.00  0.00    +0.000 A 
ATOM      6  C   UNL     1       3.441   5.673  19.167  0.00  0.00    +0.000 A 
ENDROOT
BRANCH   1   8
ATOM      7  O   UNL     1       5.970   6.165  18.139  0.00  0.00    +0.000 OA
ATOM      8  C   UNL     1       5.336   5.246  17.636  0.00  0.00    +0.000 C 
ATOM      9  N   UNL     1       5.777   4.497  16.570  0.00  0.00    +0.000 N 
ATOM     10  H   UNL     1       5.096   3.975  16.034  0.00  0.00    +0.000 HD
BRANCH   9  11
ATOM     11  C   UNL     1       7.036   4.795  15.932  0.00  0.00    +0.000 C 
BRANCH  11  12
ATOM     12  C   UNL     1       6.963   4.561  14.447  0.00  0.00    +0.000 A 
ATOM     13  C   UNL     1       6.058   3.633  13.917  0.00  0.00    +0.000 A 
ATOM     14  C   UNL     1       5.989   3.416  12.540  0.00  0.00    +0.000 A 
ATOM     15  C   UNL     1       6.826   4.124  11.678  0.00  0.00    +0.000 A 
ATOM     16  C   UNL     1       7.718   5.062  12.190  0.00  0.00    +0.000 A 
ATOM     17  C   UNL     1       7.783   5.284  13.567  0.00  0.00    +0.000 A 
ENDBRANCH  11  12
ENDBRANCH   9  11
ENDBRANCH   1   8
BRANCH   5  18
ATOM     18  C   UNL     1       1.552   6.252  20.741  0.00  0.00    +0.000 C 
BRANCH  18  19
ATOM     19  O   UNL     1       2.108   7.563  20.707  0.00  0.00    +0.000 OA
BRANCH  19  20
ATOM     20  C   UNL     1       1.344   8.574  20.186  0.00  0.00    +0.000 A 
ATOM     21  C   UNL     1       0.370   9.049  21.080  0.00  0.00    +0.000 A 
ATOM     22  C   UNL     1      -0.559  10.031  20.701  0.00  0.00    +0.000 A 
ATOM     23  C   UNL     1      -0.529  10.570  19.417  0.00  0.00    +0.000 A 
ATOM     24  C   UNL     1       0.435  10.098  18.519  0.00  0.00    +0.000 A 
ATOM     25  C   UNL     1       1.356   9.105  18.886  0.00  0.00    +0.000 A 
ATOM     26 CL   UNL     1       2.365   8.577  17.588  0.00  0.00    +0.000 Cl
BRANCH  23  27
ATOM     27  C   UNL     1      -1.517  11.622  18.978  0.00  0.00    +0.000 C 
ATOM     28  F   UNL     1      -2.762  11.128  18.733  0.00  0.00    +0.000 F 
ATOM     29  F   UNL     1      -1.678  12.599  19.912  0.00  0.00    +0.000 F 
ATOM     30  F   UNL     1      -1.132  12.252  17.835  0.00  0.00    +0.000 F 
ENDBRANCH  23  27
ENDBRANCH  19  20
ENDBRANCH  18  19
ENDBRANCH   5  18
TORSDOF 7
ENDMDL
MODEL 8
REMARK VINA RESULT:      -8.1      0.984      1.267
REMARK  Name = 
REMARK  7 active torsions:
REMARK  status: ('A' for Active; 'I' for Inactive)
REMARK    1  A    between atoms: C_2  and  C_11
REMARK    2  A    between atoms: N_3  and  C_4
REMARK    3  A    between atoms: C_4  and  C_5
REMARK    4  A    between atoms: C_15  and  C_16
REMARK    5  A    between atoms: C_16  and  O_17
REMARK    6  A    between atoms: O_17  and  C_18
REMARK    7  A    between atoms: C_21  and  C_22
REMARK                            x       y       z     vdW  Elec       q    Type
REMARK                         _______ _______ _______ _____ _____    ______ ____
ROOT
ATOM      1  C   UNL     1       0.662   9.545  20.986  0.00  0.00    +0.000 A 
ATOM      2  C   UNL     1       0.288   8.938  22.187  0.00  0.00    +0.000 A 
ATOM      3  C   UNL     1      -0.469   9.649  23.119  0.00  0.00    +0.000 A 
ATOM      4  C   UNL     1      -0.852  10.965  22.848  0.00  0.00    +0.000 A 
ATOM      5  C   UNL     1      -0.457  11.591  21.667  0.00  0.00    +0.000 A 
ATOM      6  C   UNL     1       0.314  10.878  20.732  0.00  0.00    +0.000 A 
ENDROOT
BRANCH   1   8
ATOM      7  O   UNL     1       1.428   9.201  18.783  0.00  0.00    +0.000 OA
ATOM      8  C   UNL     1       1.424   8.812  19.946  0.00  0.00    +0.000 C 
ATOM      9  N   UNL     1       2.057   7.671  20.380  0.00  0.00    +0.000 N 
ATOM     10  H   UNL     1       1.769   7.266  21.260  0.00  0.00    +0.000 HD
BRANCH   9  11
ATOM     11  C   UNL     1       2.747   6.812  19.448  0.00  0.00    +0.000 C 
BRANCH  11  12
ATOM     12  C   UNL     1       2.134   5.437  19.420  0.00  0.00    +0.000 A 
ATOM     13  C   UNL     1       1.653   4.848  20.597  0.00  0.00    +0.000 A 
ATOM     14  C   UNL     1       1.085   3.575  20.571  0.00  0.00    +0.000 A 
ATOM     15  C   UNL     1       0.991   2.874  19.368  0.00  0.00    +0.000 A 
ATOM     16  C   UNL     1       1.450   3.455  18.189  0.00  0.00    +0.000 A 
ATOM     17  C   UNL     1       2.013   4.733  18.213  0.00  0.00    +0.000 A 
ENDBRANCH  11  12
ENDBRANCH   9  11
ENDBRANCH   1   8
BRANCH   5  18
ATOM     18  C   UNL     1      -0.839  13.026  21.393  0.00  0.00    +0.000 C 
BRANCH  18  19
ATOM     19  O   UNL     1      -1.559  13.107  20.167  0.00  0.00    +0.000 OA
BRANCH  19  20
ATOM     20  C   UNL     1      -2.906  12.854  20.192  0.00  0.00    +0.000 A 
ATOM     21  C   UNL     1      -3.527  13.283  21.377  0.00  0.00    +0.000 A 
ATOM     22  C   UNL     1      -4.888  13.043  21.622  0.00  0.00    +0.000 A 
ATOM     23  C   UNL     1      -5.666  12.374  20.679  0.00  0.00    +0.000 A 
ATOM     24  C   UNL     1      -5.053  11.939  19.498  0.00  0.00    +0.000 A 
ATOM     25  C   UNL     1      -3.689  12.161  19.255  0.00  0.00    +0.000 A 
ATOM     26 CL   UNL     1      -3.112  11.425  17.803  0.00  0.00    +0.000 Cl
BRANCH  23  27
ATOM     27  C   UNL     1      -7.130  12.096  20.914  0.00  0.00    +0.000 C 
ATOM     28  F   UNL     1      -7.620  11.086  20.144  0.00  0.00    +0.000 F 
ATOM     29  F   UNL     1      -7.386  11.742  22.204  0.00  0.00    +0.000 F 
ATOM     30  F   UNL     1      -7.913  13.178  20.658  0.00  0.00    +0.000 F 
ENDBRANCH  23  27
ENDBRANCH  19  20
ENDBRANCH  18  19
ENDBRANCH   5  18
TORSDOF 7
ENDMDL
MODEL 9
REMARK VINA RESULT:      -8.1      5.842     10.097
REMARK  Name = 
REMARK  7 active torsions:
REMARK  status: ('A' for Active; 'I' for Inactive)
REMARK    1  A    between atoms: C_2  and  C_11
REMARK    2  A    between atoms: N_3  and  C_4
REMARK    3  A    between atoms: C_4  and  C_5
REMARK    4  A    between atoms: C_15  and  C_16
REMARK    5  A    between atoms: C_16  and  O_17
REMARK    6  A    between atoms: O_17  and  C_18
REMARK    7  A    between atoms: C_21  and  C_22
REMARK                            x       y       z     vdW  Elec       q    Type
REMARK                         _______ _______ _______ _____ _____    ______ ____
ROOT
ATOM      1  C   UNL     1       0.955   9.519  20.765  0.00  0.00    +0.000 A 
ATOM      2  C   UNL     1       0.950  10.300  19.607  0.00  0.00    +0.000 A 
ATOM      3  C   UNL     1       1.428   9.768  18.408  0.00  0.00    +0.000 A 
ATOM      4  C   UNL     1       1.909   8.456  18.370  0.00  0.00    +0.000 A 
ATOM      5  C   UNL     1       1.948   7.681  19.528  0.00  0.00    +0.000 A 
ATOM      6  C   UNL     1       1.475   8.220  20.737  0.00  0.00    +0.000 A 
ENDROOT
BRANCH   1   8
ATOM      7  O   UNL     1       0.905   9.682  23.116  0.00  0.00    +0.000 OA
ATOM      8  C   UNL     1       0.412  10.026  22.049  0.00  0.00    +0.000 C 
ATOM      9  N   UNL     1      -0.688  10.844  21.936  0.00  0.00    +0.000 N 
ATOM     10  H   UNL     1      -1.204  10.840  21.066  0.00  0.00    +0.000 HD
BRANCH   9  11
ATOM     11  C   UNL     1      -1.375  11.321  23.112  0.00  0.00    +0.000 C 
BRANCH  11  12
ATOM     12  C   UNL     1      -2.555  12.180  22.742  0.00  0.00    +0.000 A 
ATOM     13  C   UNL     1      -3.524  12.507  23.699  0.00  0.00    +0.000 A 
ATOM     14  C   UNL     1      -4.618  13.302  23.357  0.00  0.00    +0.000 A 
ATOM     15  C   UNL     1      -4.755  13.780  22.053  0.00  0.00    +0.000 A 
ATOM     16  C   UNL     1      -3.790  13.476  21.097  0.00  0.00    +0.000 A 
ATOM     17  C   UNL     1      -2.692  12.684  21.440  0.00  0.00    +0.000 A 
ENDBRANCH  11  12
ENDBRANCH   9  11
ENDBRANCH   1   8
BRANCH   5  18
ATOM     18  C   UNL     1       2.504   6.277  19.493  0.00  0.00    +0.000 C 
BRANCH  18  19
ATOM     19  O   UNL     1       3.916   6.322  19.315  0.00  0.00    +0.000 OA
BRANCH  19  20
ATOM     20  C   UNL     1       4.445   5.724  18.200  0.00  0.00    +0.000 A 
ATOM     21  C   UNL     1       4.668   6.624  17.144  0.00  0.00    +0.000 A 
ATOM     22  C   UNL     1       5.134   6.188  15.894  0.00  0.00    +0.000 A 
ATOM     23  C   UNL     1       5.396   4.838  15.672  0.00  0.00    +0.000 A 
ATOM     24  C   UNL     1       5.171   3.935  16.718  0.00  0.00    +0.000 A 
ATOM     25  C   UNL     1       4.690   4.362  17.965  0.00  0.00    +0.000 A 
ATOM     26 CL   UNL     1       4.357   3.071  19.062  0.00  0.00    +0.000 Cl
BRANCH  23  27
ATOM     27  C   UNL     1       5.892   4.337  14.338  0.00  0.00    +0.000 C 
ATOM     28  F   UNL     1       4.911   4.237  13.399  0.00  0.00    +0.000 F 
ATOM     29  F   UNL     1       6.843   5.151  13.803  0.00  0.00    +0.000 F 
ATOM     30  F   UNL     1       6.457   3.102  14.423  0.00  0.00    +0.000 F 
ENDBRANCH  23  27
ENDBRANCH  19  20
ENDBRANCH  18  19
ENDBRANCH   5  18
TORSDOF 7
ENDMDL
