MODEL 1
REMARK VINA RESULT:      -8.7      0.000      0.000
REMARK  Name = 
REMARK  7 active torsions:
REMARK  status: ('A' for Active; 'I' for Inactive)
REMARK    1  A    between atoms: C_1  and  N_2
REMARK    2  A    between atoms: N_2  and  C_3
REMARK    3  A    between atoms: N_2  and  C_13
REMARK    4  A    between atoms: C_3  and  C_4
REMARK    5  A    between atoms: C_6  and  C_7
REMARK    6  A    between atoms: C_7  and  C_8
REMARK    7  A    between atoms: C_13  and  C_14
REMARK                            x       y       z     vdW  Elec       q    Type
REMARK                         _______ _______ _______ _____ _____    ______ ____
ROOT
ATOM      1  C   UNL     1       4.782   6.935  16.778  0.00  0.00    +0.000 C 
ATOM      2  N   UNL     1       4.907   5.610  17.408  0.00  0.00    +0.000 NA
ENDROOT
BRANCH   2   3
ATOM      3  C   UNL     1       6.268   5.086  17.148  0.00  0.00    +0.000 C 
BRANCH   3   4
ATOM      4  C   UNL     1       6.678   4.974  15.718  0.00  0.00    +0.000 A 
ATOM      5  N   UNL     1       6.126   4.249  14.765  0.00  0.00    +0.000 NA
ATOM      6  C   UNL     1       6.878   4.592  13.677  0.00  0.00    +0.000 A 
ATOM      7  N   UNL     1       7.861   5.466  13.918  0.00  0.00    +0.000 NA
ATOM      8  O   UNL     1       7.730   5.725  15.281  0.00  0.00    +0.000 OA
BRANCH   6   9
ATOM      9  C   UNL     1       6.632   3.989  12.337  0.00  0.00    +0.000 C 
BRANCH   9  10
ATOM     10  C   UNL     1       5.564   2.926  12.298  0.00  0.00    +0.000 C 
ATOM     11  C   UNL     1       4.561   2.920  11.170  0.00  0.00    +0.000 C 
ATOM     12  C   UNL     1       5.603   1.840  11.250  0.00  0.00    +0.000 C 
ENDBRANCH   9  10
ENDBRANCH   6   9
ENDBRANCH   3   4
ENDBRANCH   2   3
BRANCH   2  13
ATOM     13  C   UNL     1       4.471   5.667  18.819  0.00  0.00    +0.000 C 
BRANCH  13  14
ATOM     14  C   UNL     1       3.468   4.599  19.373  0.00  0.00    +0.000 C 
ATOM     15  C   UNL     1       2.671   5.083  20.611  0.00  0.00    +0.000 C 
ATOM     16  C   UNL     1       1.677   4.030  21.106  0.00  0.00    +0.000 C 
ATOM     17  C   UNL     1       0.661   3.775  19.993  0.00  0.00    +0.000 C 
ATOM     18  C   UNL     1       1.387   3.244  18.748  0.00  0.00    +0.000 C 
ATOM     19  C   UNL     1       2.123   1.944  19.110  0.00  0.00    +0.000 C 
ATOM     20  C   UNL     1       3.169   2.215  20.204  0.00  0.00    +0.000 C 
ATOM     21  C   UNL     1       2.449   2.748  21.452  0.00  0.00    +0.000 C 
ATOM     22  C   UNL     1       4.182   3.266  19.708  0.00  0.00    +0.000 C 
ATOM     23  C   UNL     1       2.414   4.287  18.263  0.00  0.00    +0.000 C 
ENDBRANCH  13  14
ENDBRANCH   2  13
TORSDOF 6
ENDMDL
MODEL 2
REMARK VINA RESULT:      -8.5      1.035      1.836
REMARK  Name = 
REMARK  7 active torsions:
REMARK  status: ('A' for Active; 'I' for Inactive)
REMARK    1  A    between atoms: C_1  and  N_2
REMARK    2  A    between atoms: N_2  and  C_3
REMARK    3  A    between atoms: N_2  and  C_13
REMARK    4  A    between atoms: C_3  and  C_4
REMARK    5  A    between atoms: C_6  and  C_7
REMARK    6  A    between atoms: C_7  and  C_8
REMARK    7  A    between atoms: C_13  and  C_14
REMARK                            x       y       z     vdW  Elec       q    Type
REMARK                         _______ _______ _______ _____ _____    ______ ____
ROOT
ATOM      1  C   UNL     1       7.336   6.743  18.164  0.00  0.00    +0.000 C 
ATOM      2  N   UNL     1       6.313   5.731  17.850  0.00  0.00    +0.000 NA
ENDROOT
BRANCH   2   3
ATOM      3  C   UNL     1       6.969   4.581  17.186  0.00  0.00    +0.000 C 
BRANCH   3   4
ATOM      4  C   UNL     1       7.080   4.643  15.700  0.00  0.00    +0.000 A 
ATOM      5  N   UNL     1       6.569   3.817  14.808  0.00  0.00    +0.000 NA
ATOM      6  C   UNL     1       6.942   4.404  13.633  0.00  0.00    +0.000 A 
ATOM      7  N   UNL     1       7.663   5.523  13.759  0.00  0.00    +0.000 NA
ATOM      8  O   UNL     1       7.755   5.688  15.139  0.00  0.00    +0.000 OA
BRANCH   6   9
ATOM      9  C   UNL     1       6.600   3.798  12.315  0.00  0.00    +0.000 C 
BRANCH   9  10
ATOM     10  C   UNL     1       5.350   2.956  12.301  0.00  0.00    +0.000 C 
ATOM     11  C   UNL     1       4.205   3.337  11.393  0.00  0.00    +0.000 C 
ATOM     12  C   UNL     1       5.015   2.104  11.100  0.00  0.00    +0.000 C 
ENDBRANCH   9  10
ENDBRANCH   6   9
ENDBRANCH   3   4
ENDBRANCH   2   3
BRANCH   2  13
ATOM     13  C   UNL     1       5.497   5.436  19.047  0.00  0.00    +0.000 C 
BRANCH  13  14
ATOM     14  C   UNL     1       4.241   4.508  18.928  0.00  0.00    +0.000 C 
ATOM     15  C   UNL     1       4.481   3.072  19.458  0.00  0.00    +0.000 C 
ATOM     16  C   UNL     1       3.227   2.201  19.358  0.00  0.00    +0.000 C 
ATOM     17  C   UNL     1       2.144   2.827  20.238  0.00  0.00    +0.000 C 
ATOM     18  C   UNL     1       1.823   4.240  19.730  0.00  0.00    +0.000 C 
ATOM     19  C   UNL     1       1.347   4.157  18.271  0.00  0.00    +0.000 C 
ATOM     20  C   UNL     1       2.455   3.561  17.386  0.00  0.00    +0.000 C 
ATOM     21  C   UNL     1       2.780   2.147  17.889  0.00  0.00    +0.000 C 
ATOM     22  C   UNL     1       3.718   4.439  17.471  0.00  0.00    +0.000 C 
ATOM     23  C   UNL     1       3.092   5.114  19.797  0.00  0.00    +0.000 C 
ENDBRANCH  13  14
ENDBRANCH   2  13
TORSDOF 6
ENDMDL
MODEL 3
REMARK VINA RESULT:      -8.4      1.124      2.205
REMARK  Name = 
REMARK  7 active torsions:
REMARK  status: ('A' for Active; 'I' for Inactive)
REMARK    1  A    between atoms: C_1  and  N_2
REMARK    2  A    between atoms: N_2  and  C_3
REMARK    3  A    between atoms: N_2  and  C_13
REMARK    4  A    between atoms: C_3  and  C_4
REMARK    5  A    between atoms: C_6  and  C_7
REMARK    6  A    between atoms: C_7  and  C_8
REMARK    7  A    between atoms: C_13  and  C_14
REMARK                            x       y       z     vdW  Elec       q    Type
REMARK                         _______ _______ _______ _____ _____    ______ ____
ROOT
ATOM      1  C   UNL     1       2.574   8.009  18.197  0.00  0.00    +0.000 C 
ATOM      2  N   UNL     1       3.452   6.889  17.816  0.00  0.00    +0.000 NA
ENDROOT
BRANCH   2   3
ATOM      3  C   UNL     1       4.581   7.420  17.017  0.00  0.00    +0.000 C 
BRANCH   3   4
ATOM      4  C   UNL     1       5.409   6.419  16.285  0.00  0.00    +0.000 A 
ATOM      5  N   UNL     1       5.004   5.361  15.610  0.00  0.00    +0.000 NA
ATOM      6  C   UNL     1       6.180   4.873  15.117  0.00  0.00    +0.000 A 
ATOM      7  N   UNL     1       7.273   5.559  15.467  0.00  0.00    +0.000 NA
ATOM      8  O   UNL     1       6.762   6.595  16.246  0.00  0.00    +0.000 OA
BRANCH   6   9
ATOM      9  C   UNL     1       6.225   3.635  14.289  0.00  0.00    +0.000 C 
BRANCH   9  10
ATOM     10  C   UNL     1       5.870   3.821  12.836  0.00  0.00    +0.000 C 
ATOM     11  C   UNL     1       6.913   3.567  11.775  0.00  0.00    +0.000 C 
ATOM     12  C   UNL     1       5.748   2.628  11.918  0.00  0.00    +0.000 C 
ENDBRANCH   9  10
ENDBRANCH   6   9
ENDBRANCH   3   4
ENDBRANCH   2   3
BRANCH   2  13
ATOM     13  C   UNL     1       3.796   6.078  19.003  0.00  0.00    +0.000 C 
BRANCH  13  14
ATOM     14  C   UNL     1       2.990   4.772  19.318  0.00  0.00    +0.000 C 
ATOM     15  C   UNL     1       2.239   4.199  18.090  0.00  0.00    +0.000 C 
ATOM     16  C   UNL     1       1.489   2.907  18.422  0.00  0.00    +0.000 C 
ATOM     17  C   UNL     1       2.517   1.858  18.847  0.00  0.00    +0.000 C 
ATOM     18  C   UNL     1       3.264   2.347  20.096  0.00  0.00    +0.000 C 
ATOM     19  C   UNL     1       2.251   2.594  21.226  0.00  0.00    +0.000 C 
ATOM     20  C   UNL     1       1.243   3.677  20.806  0.00  0.00    +0.000 C 
ATOM     21  C   UNL     1       0.493   3.193  19.556  0.00  0.00    +0.000 C 
ATOM     22  C   UNL     1       1.989   4.986  20.481  0.00  0.00    +0.000 C 
ATOM     23  C   UNL     1       3.995   3.667  19.777  0.00  0.00    +0.000 C 
ENDBRANCH  13  14
ENDBRANCH   2  13
TORSDOF 6
ENDMDL
MODEL 4
REMARK VINA RESULT:      -8.3      1.318      2.278
REMARK  Name = 
REMARK  7 active torsions:
REMARK  status: ('A' for Active; 'I' for Inactive)
REMARK    1  A    between atoms: C_1  and  N_2
REMARK    2  A    between atoms: N_2  and  C_3
REMARK    3  A    between atoms: N_2  and  C_13
REMARK    4  A    between atoms: C_3  and  C_4
REMARK    5  A    between atoms: C_6  and  C_7
REMARK    6  A    between atoms: C_7  and  C_8
REMARK    7  A    between atoms: C_13  and  C_14
REMARK                            x       y       z     vdW  Elec       q    Type
REMARK                         _______ _______ _______ _____ _____    ______ ____
ROOT
ATOM      1  C   UNL     1       2.560   8.313  17.547  0.00  0.00    +0.000 C 
ATOM      2  N   UNL     1       3.295   7.068  17.826  0.00  0.00    +0.000 NA
ENDROOT
BRANCH   2   3
ATOM      3  C   UNL     1       4.740   7.310  17.610  0.00  0.00    +0.000 C 
BRANCH   3   4
ATOM      4  C   UNL     1       5.498   6.238  16.902  0.00  0.00    +0.000 A 
ATOM      5  N   UNL     1       5.061   5.403  15.979  0.00  0.00    +0.000 NA
ATOM      6  C   UNL     1       6.195   4.710  15.665  0.00  0.00    +0.000 A 
ATOM      7  N   UNL     1       7.285   5.061  16.354  0.00  0.00    +0.000 NA
ATOM      8  O   UNL     1       6.825   6.084  17.180  0.00  0.00    +0.000 OA
BRANCH   6   9
ATOM      9  C   UNL     1       6.185   3.611  14.658  0.00  0.00    +0.000 C 
BRANCH   9  10
ATOM     10  C   UNL     1       5.815   4.028  13.258  0.00  0.00    +0.000 C 
ATOM     11  C   UNL     1       6.863   3.999  12.171  0.00  0.00    +0.000 C 
ATOM     12  C   UNL     1       5.736   3.005  12.150  0.00  0.00    +0.000 C 
ENDBRANCH   9  10
ENDBRANCH   6   9
ENDBRANCH   3   4
ENDBRANCH   2   3
BRANCH   2  13
ATOM     13  C   UNL     1       2.898   6.520  19.141  0.00  0.00    +0.000 C 
BRANCH  13  14
ATOM     14  C   UNL     1       2.600   4.990  19.292  0.00  0.00    +0.000 C 
ATOM     15  C   UNL     1       3.853   4.150  19.650  0.00  0.00    +0.000 C 
ATOM     16  C   UNL     1       3.523   2.666  19.823  0.00  0.00    +0.000 C 
ATOM     17  C   UNL     1       2.546   2.530  20.991  0.00  0.00    +0.000 C 
ATOM     18  C   UNL     1       1.257   3.303  20.675  0.00  0.00    +0.000 C 
ATOM     19  C   UNL     1       0.635   2.741  19.386  0.00  0.00    +0.000 C 
ATOM     20  C   UNL     1       1.608   2.915  18.209  0.00  0.00    +0.000 C 
ATOM     21  C   UNL     1       2.900   2.144  18.520  0.00  0.00    +0.000 C 
ATOM     22  C   UNL     1       1.936   4.409  18.019  0.00  0.00    +0.000 C 
ATOM     23  C   UNL     1       1.588   4.795  20.466  0.00  0.00    +0.000 C 
ENDBRANCH  13  14
ENDBRANCH   2  13
TORSDOF 6
ENDMDL
MODEL 5
REMARK VINA RESULT:      -8.3      1.448      2.483
REMARK  Name = 
REMARK  7 active torsions:
REMARK  status: ('A' for Active; 'I' for Inactive)
REMARK    1  A    between atoms: C_1  and  N_2
REMARK    2  A    between atoms: N_2  and  C_3
REMARK    3  A    between atoms: N_2  and  C_13
REMARK    4  A    between atoms: C_3  and  C_4
REMARK    5  A    between atoms: C_6  and  C_7
REMARK    6  A    between atoms: C_7  and  C_8
REMARK    7  A    between atoms: C_13  and  C_14
REMARK                            x       y       z     vdW  Elec       q    Type
REMARK                         _______ _______ _______ _____ _____    ______ ____
ROOT
ATOM      1  C   UNL     1       7.867   5.635  19.715  0.00  0.00    +0.000 C 
ATOM      2  N   UNL     1       6.766   5.710  18.739  0.00  0.00    +0.000 NA
ENDROOT
BRANCH   2   3
ATOM      3  C   UNL     1       7.230   6.475  17.558  0.00  0.00    +0.000 C 
BRANCH   3   4
ATOM      4  C   UNL     1       6.769   5.990  16.225  0.00  0.00    +0.000 A 
ATOM      5  N   UNL     1       7.367   5.139  15.414  0.00  0.00    +0.000 NA
ATOM      6  C   UNL     1       6.462   5.034  14.397  0.00  0.00    +0.000 A 
ATOM      7  N   UNL     1       5.363   5.783  14.533  0.00  0.00    +0.000 NA
ATOM      8  O   UNL     1       5.562   6.421  15.755  0.00  0.00    +0.000 OA
BRANCH   6   9
ATOM      9  C   UNL     1       6.723   4.177  13.206  0.00  0.00    +0.000 C 
BRANCH   9  10
ATOM     10  C   UNL     1       5.634   3.190  12.875  0.00  0.00    +0.000 C 
ATOM     11  C   UNL     1       4.694   3.473  11.728  0.00  0.00    +0.000 C 
ATOM     12  C   UNL     1       5.705   2.366  11.611  0.00  0.00    +0.000 C 
ENDBRANCH   9  10
ENDBRANCH   6   9
ENDBRANCH   3   4
ENDBRANCH   2   3
BRANCH   2  13
ATOM     13  C   UNL     1       6.208   4.365  18.487  0.00  0.00    +0.000 C 
BRANCH  13  14
ATOM     14  C   UNL     1       4.661   4.133  18.563  0.00  0.00    +0.000 C 
ATOM     15  C   UNL     1       4.042   3.652  17.226  0.00  0.00    +0.000 C 
ATOM     16  C   UNL     1       2.537   3.404  17.343  0.00  0.00    +0.000 C 
ATOM     17  C   UNL     1       2.317   2.287  18.363  0.00  0.00    +0.000 C 
ATOM     18  C   UNL     1       2.867   2.725  19.729  0.00  0.00    +0.000 C 
ATOM     19  C   UNL     1       2.148   4.008  20.175  0.00  0.00    +0.000 C 
ATOM     20  C   UNL     1       2.403   5.137  19.163  0.00  0.00    +0.000 C 
ATOM     21  C   UNL     1       1.856   4.705  17.794  0.00  0.00    +0.000 C 
ATOM     22  C   UNL     1       3.917   5.402  19.049  0.00  0.00    +0.000 C 
ATOM     23  C   UNL     1       4.378   3.009  19.611  0.00  0.00    +0.000 C 
ENDBRANCH  13  14
ENDBRANCH   2  13
TORSDOF 6
ENDMDL
MODEL 6
REMARK VINA RESULT:      -8.3      0.977      1.242
REMARK  Name = 
REMARK  7 active torsions:
REMARK  status: ('A' for Active; 'I' for Inactive)
REMARK    1  A    between atoms: C_1  and  N_2
REMARK    2  A    between atoms: N_2  and  C_3
REMARK    3  A    between atoms: N_2  and  C_13
REMARK    4  A    between atoms: C_3  and  C_4
REMARK    5  A    between atoms: C_6  and  C_7
REMARK    6  A    between atoms: C_7  and  C_8
REMARK    7  A    between atoms: C_13  and  C_14
REMARK                            x       y       z     vdW  Elec       q    Type
REMARK                         _______ _______ _______ _____ _____    ______ ____
ROOT
ATOM      1  C   UNL     1       2.941   7.850  18.021  0.00  0.00    +0.000 C 
ATOM      2  N   UNL     1       3.681   6.699  17.477  0.00  0.00    +0.000 NA
ENDROOT
BRANCH   2   3
ATOM      3  C   UNL     1       4.638   7.188  16.457  0.00  0.00    +0.000 C 
BRANCH   3   4
ATOM      4  C   UNL     1       5.478   6.157  15.783  0.00  0.00    +0.000 A 
ATOM      5  N   UNL     1       5.083   5.106  15.092  0.00  0.00    +0.000 NA
ATOM      6  C   UNL     1       6.272   4.579  14.673  0.00  0.00    +0.000 A 
ATOM      7  N   UNL     1       7.361   5.237  15.084  0.00  0.00    +0.000 NA
ATOM      8  O   UNL     1       6.836   6.294  15.823  0.00  0.00    +0.000 OA
BRANCH   6   9
ATOM      9  C   UNL     1       6.330   3.333  13.858  0.00  0.00    +0.000 C 
BRANCH   9  10
ATOM     10  C   UNL     1       6.083   3.519  12.383  0.00  0.00    +0.000 C 
ATOM     11  C   UNL     1       5.796   2.316  11.517  0.00  0.00    +0.000 C 
ATOM     12  C   UNL     1       4.704   3.307  11.805  0.00  0.00    +0.000 C 
ENDBRANCH   9  10
ENDBRANCH   6   9
ENDBRANCH   3   4
ENDBRANCH   2   3
BRANCH   2  13
ATOM     13  C   UNL     1       4.234   5.878  18.574  0.00  0.00    +0.000 C 
BRANCH  13  14
ATOM     14  C   UNL     1       3.414   4.667  19.136  0.00  0.00    +0.000 C 
ATOM     15  C   UNL     1       2.522   5.036  20.349  0.00  0.00    +0.000 C 
ATOM     16  C   UNL     1       1.709   3.840  20.852  0.00  0.00    +0.000 C 
ATOM     17  C   UNL     1       0.774   3.395  19.728  0.00  0.00    +0.000 C 
ATOM     18  C   UNL     1       1.603   2.968  18.508  0.00  0.00    +0.000 C 
ATOM     19  C   UNL     1       2.540   1.819  18.912  0.00  0.00    +0.000 C 
ATOM     20  C   UNL     1       3.503   2.285  20.017  0.00  0.00    +0.000 C 
ATOM     21  C   UNL     1       2.679   2.714  21.240  0.00  0.00    +0.000 C 
ATOM     22  C   UNL     1       4.335   3.480  19.514  0.00  0.00    +0.000 C 
ATOM     23  C   UNL     1       2.449   4.160  18.016  0.00  0.00    +0.000 C 
ENDBRANCH  13  14
ENDBRANCH   2  13
TORSDOF 6
ENDMDL
MODEL 7
REMARK VINA RESULT:      -8.2      0.913      1.934
REMARK  Name = 
REMARK  7 active torsions:
REMARK  status: ('A' for Active; 'I' for Inactive)
REMARK    1  A    between atoms: C_1  and  N_2
REMARK    2  A    between atoms: N_2  and  C_3
REMARK    3  A    between atoms: N_2  and  C_13
REMARK    4  A    between atoms: C_3  and  C_4
REMARK    5  A    between atoms: C_6  and  C_7
REMARK    6  A    between atoms: C_7  and  C_8
REMARK    7  A    between atoms: C_13  and  C_14
REMARK                            x       y       z     vdW  Elec       q    Type
REMARK                         _______ _______ _______ _____ _____    ______ ____
ROOT
ATOM      1  C   UNL     1       7.382   5.454  18.516  0.00  0.00    +0.000 C 
ATOM      2  N   UNL     1       5.916   5.461  18.380  0.00  0.00    +0.000 NA
ENDROOT
BRANCH   2   3
ATOM      3  C   UNL     1       5.559   6.134  17.109  0.00  0.00    +0.000 C 
BRANCH   3   4
ATOM      4  C   UNL     1       6.242   5.642  15.879  0.00  0.00    +0.000 A 
ATOM      5  N   UNL     1       5.753   4.873  14.925  0.00  0.00    +0.000 NA
ATOM      6  C   UNL     1       6.797   4.811  14.047  0.00  0.00    +0.000 A 
ATOM      7  N   UNL     1       7.894   5.479  14.420  0.00  0.00    +0.000 NA
ATOM      8  O   UNL     1       7.527   6.038  15.642  0.00  0.00    +0.000 OA
BRANCH   6   9
ATOM      9  C   UNL     1       6.716   4.012  12.793  0.00  0.00    +0.000 C 
BRANCH   9  10
ATOM     10  C   UNL     1       5.483   3.156  12.656  0.00  0.00    +0.000 C 
ATOM     11  C   UNL     1       4.493   3.445  11.552  0.00  0.00    +0.000 C 
ATOM     12  C   UNL     1       5.337   2.202  11.494  0.00  0.00    +0.000 C 
ENDBRANCH   9  10
ENDBRANCH   6   9
ENDBRANCH   3   4
ENDBRANCH   2   3
BRANCH   2  13
ATOM     13  C   UNL     1       5.372   4.103  18.593  0.00  0.00    +0.000 C 
BRANCH  13  14
ATOM     14  C   UNL     1       3.908   3.921  19.120  0.00  0.00    +0.000 C 
ATOM     15  C   UNL     1       2.873   3.675  17.993  0.00  0.00    +0.000 C 
ATOM     16  C   UNL     1       1.460   3.468  18.542  0.00  0.00    +0.000 C 
ATOM     17  C   UNL     1       1.470   2.217  19.421  0.00  0.00    +0.000 C 
ATOM     18  C   UNL     1       2.445   2.419  20.590  0.00  0.00    +0.000 C 
ATOM     19  C   UNL     1       2.006   3.644  21.407  0.00  0.00    +0.000 C 
ATOM     20  C   UNL     1       2.034   4.905  20.527  0.00  0.00    +0.000 C 
ATOM     21  C   UNL     1       1.061   4.709  19.355  0.00  0.00    +0.000 C 
ATOM     22  C   UNL     1       3.457   5.128  19.980  0.00  0.00    +0.000 C 
ATOM     23  C   UNL     1       3.866   2.660  20.042  0.00  0.00    +0.000 C 
ENDBRANCH  13  14
ENDBRANCH   2  13
TORSDOF 6
ENDMDL
MODEL 8
REMARK VINA RESULT:      -8.1      1.153      2.109
REMARK  Name = 
REMARK  7 active torsions:
REMARK  status: ('A' for Active; 'I' for Inactive)
REMARK    1  A    between atoms: C_1  and  N_2
REMARK    2  A    between atoms: N_2  and  C_3
REMARK    3  A    between atoms: N_2  and  C_13
REMARK    4  A    between atoms: C_3  and  C_4
REMARK    5  A    between atoms: C_6  and  C_7
REMARK    6  A    between atoms: C_7  and  C_8
REMARK    7  A    between atoms: C_13  and  C_14
REMARK                            x       y       z     vdW  Elec       q    Type
REMARK                         _______ _______ _______ _____ _____    ______ ____
ROOT
ATOM      1  C   UNL     1       7.165   6.133  18.844  0.00  0.00    +0.000 C 
ATOM      2  N   UNL     1       6.370   5.064  18.216  0.00  0.00    +0.000 NA
ENDROOT
BRANCH   2   3
ATOM      3  C   UNL     1       7.258   4.258  17.347  0.00  0.00    +0.000 C 
BRANCH   3   4
ATOM      4  C   UNL     1       7.207   4.549  15.886  0.00  0.00    +0.000 A 
ATOM      5  N   UNL     1       6.600   3.863  14.937  0.00  0.00    +0.000 NA
ATOM      6  C   UNL     1       6.843   4.630  13.834  0.00  0.00    +0.000 A 
ATOM      7  N   UNL     1       7.574   5.727  14.053  0.00  0.00    +0.000 NA
ATOM      8  O   UNL     1       7.817   5.679  15.424  0.00  0.00    +0.000 OA
BRANCH   6   9
ATOM      9  C   UNL     1       6.359   4.229  12.483  0.00  0.00    +0.000 C 
BRANCH   9  10
ATOM     10  C   UNL     1       5.444   3.031  12.458  0.00  0.00    +0.000 C 
ATOM     11  C   UNL     1       4.385   2.924  11.387  0.00  0.00    +0.000 C 
ATOM     12  C   UNL     1       5.567   1.995  11.367  0.00  0.00    +0.000 C 
ENDBRANCH   9  10
ENDBRANCH   6   9
ENDBRANCH   3   4
ENDBRANCH   2   3
BRANCH   2  13
ATOM     13  C   UNL     1       5.592   4.333  19.239  0.00  0.00    +0.000 C 
BRANCH  13  14
ATOM     14  C   UNL     1       4.064   4.067  19.017  0.00  0.00    +0.000 C 
ATOM     15  C   UNL     1       3.718   3.621  17.574  0.00  0.00    +0.000 C 
ATOM     16  C   UNL     1       2.224   3.338  17.399  0.00  0.00    +0.000 C 
ATOM     17  C   UNL     1       1.848   2.182  18.327  0.00  0.00    +0.000 C 
ATOM     18  C   UNL     1       2.123   2.583  19.783  0.00  0.00    +0.000 C 
ATOM     19  C   UNL     1       1.299   3.835  20.126  0.00  0.00    +0.000 C 
ATOM     20  C   UNL     1       1.709   5.004  19.214  0.00  0.00    +0.000 C 
ATOM     21  C   UNL     1       1.437   4.608  17.755  0.00  0.00    +0.000 C 
ATOM     22  C   UNL     1       3.210   5.304  19.394  0.00  0.00    +0.000 C 
ATOM     23  C   UNL     1       3.621   2.902  19.959  0.00  0.00    +0.000 C 
ENDBRANCH  13  14
ENDBRANCH   2  13
TORSDOF 6
ENDMDL
MODEL 9
REMARK VINA RESULT:      -8.1      1.004      1.274
REMARK  Name = 
REMARK  7 active torsions:
REMARK  status: ('A' for Active; 'I' for Inactive)
REMARK    1  A    between atoms: C_1  and  N_2
REMARK    2  A    between atoms: N_2  and  C_3
REMARK    3  A    between atoms: N_2  and  C_13
REMARK    4  A    between atoms: C_3  and  C_4
REMARK    5  A    between atoms: C_6  and  C_7
REMARK    6  A    between atoms: C_7  and  C_8
REMARK    7  A    between atoms: C_13  and  C_14
REMARK                            x       y       z     vdW  Elec       q    Type
REMARK                         _______ _______ _______ _____ _____    ______ ____
ROOT
ATOM      1  C   UNL     1       7.383   5.824  19.135  0.00  0.00    +0.000 C 
ATOM      2  N   UNL     1       6.453   5.759  17.995  0.00  0.00    +0.000 NA
ENDROOT
BRANCH   2   3
ATOM      3  C   UNL     1       6.687   4.492  17.263  0.00  0.00    +0.000 C 
BRANCH   3   4
ATOM      4  C   UNL     1       6.896   4.600  15.791  0.00  0.00    +0.000 A 
ATOM      5  N   UNL     1       6.367   3.862  14.834  0.00  0.00    +0.000 NA
ATOM      6  C   UNL     1       6.866   4.455  13.710  0.00  0.00    +0.000 A 
ATOM      7  N   UNL     1       7.678   5.494  13.928  0.00  0.00    +0.000 NA
ATOM      8  O   UNL     1       7.699   5.596  15.317  0.00  0.00    +0.000 OA
BRANCH   6   9
ATOM      9  C   UNL     1       6.553   3.936  12.349  0.00  0.00    +0.000 C 
BRANCH   9  10
ATOM     10  C   UNL     1       5.406   2.960  12.283  0.00  0.00    +0.000 C 
ATOM     11  C   UNL     1       4.356   3.115  11.208  0.00  0.00    +0.000 C 
ATOM     12  C   UNL     1       5.316   1.960  11.155  0.00  0.00    +0.000 C 
ENDBRANCH   9  10
ENDBRANCH   6   9
ENDBRANCH   3   4
ENDBRANCH   2   3
BRANCH   2  13
ATOM     13  C   UNL     1       5.070   6.028  18.442  0.00  0.00    +0.000 C 
BRANCH  13  14
ATOM     14  C   UNL     1       4.068   4.841  18.640  0.00  0.00    +0.000 C 
ATOM     15  C   UNL     1       2.821   5.219  19.479  0.00  0.00    +0.000 C 
ATOM     16  C   UNL     1       1.846   4.049  19.626  0.00  0.00    +0.000 C 
ATOM     17  C   UNL     1       1.348   3.668  18.232  0.00  0.00    +0.000 C 
ATOM     18  C   UNL     1       2.536   3.233  17.362  0.00  0.00    +0.000 C 
ATOM     19  C   UNL     1       3.237   2.037  18.027  0.00  0.00    +0.000 C 
ATOM     20  C   UNL     1       3.768   2.438  19.413  0.00  0.00    +0.000 C 
ATOM     21  C   UNL     1       2.583   2.874  20.287  0.00  0.00    +0.000 C 
ATOM     22  C   UNL     1       4.760   3.608  19.273  0.00  0.00    +0.000 C 
ATOM     23  C   UNL     1       3.539   4.398  17.237  0.00  0.00    +0.000 C 
ENDBRANCH  13  14
ENDBRANCH   2  13
TORSDOF 6
ENDMDL
