MODEL 1
REMARK VINA RESULT:      -6.0      0.000      0.000
REMARK  Name = 
REMARK  8 active torsions:
REMARK  status: ('A' for Active; 'I' for Inactive)
REMARK    1  A    between atoms: C_2  and  C_3
REMARK    2  A    between atoms: C_3  and  N_4
REMARK    3  A    between atoms: N_4  and  C_5
REMARK    4  A    between atoms: N_4  and  C_6
REMARK    5  A    between atoms: C_6  and  C_7
REMARK    6  A    between atoms: C_7  and  C_8
REMARK    7  A    between atoms: C_8  and  O_9
REMARK    8  A    between atoms: O_9  and  C_10
REMARK                            x       y       z     vdW  Elec       q    Type
REMARK                         _______ _______ _______ _____ _____    ______ ____
ROOT
ATOM      1  O   UNL     1       5.333   5.797  19.067  0.00  0.00    +0.000 OA
ENDROOT
BRANCH   1   2
ATOM      2  C   UNL     1       4.284   4.921  18.990  0.00  0.00    +0.000 A 
ATOM      3  C   UNL     1       4.358   3.567  19.350  0.00  0.00    +0.000 A 
ATOM      4  C   UNL     1       3.231   2.751  19.266  0.00  0.00    +0.000 A 
ATOM      5  C   UNL     1       2.023   3.276  18.821  0.00  0.00    +0.000 A 
ATOM      6 CL   UNL     1       0.636   2.263  18.739  0.00  0.00    +0.000 Cl
ATOM      7  C   UNL     1       1.931   4.612  18.441  0.00  0.00    +0.000 A 
ATOM      8  C   UNL     1       3.060   5.431  18.524  0.00  0.00    +0.000 A 
ATOM      9 CL   UNL     1       2.897   7.082  18.041  0.00  0.00    +0.000 Cl
ENDBRANCH   1   2
BRANCH   1  10
ATOM     10  C   UNL     1       6.611   5.238  19.373  0.00  0.00    +0.000 C 
BRANCH  10  11
ATOM     11  C   UNL     1       7.496   5.342  18.138  0.00  0.00    +0.000 C 
BRANCH  11  12
ATOM     12  C   UNL     1       7.049   6.481  17.216  0.00  0.00    +0.000 C 
BRANCH  12  13
ATOM     13  N   UNL     1       6.682   6.037  15.859  0.00  0.00    +0.000 NA
ATOM     14  C   UNL     1       5.256   6.300  15.624  0.00  0.00    +0.000 C 
BRANCH  13  15
ATOM     15  C   UNL     1       7.008   4.618  15.666  0.00  0.00    +0.000 C 
BRANCH  15  17
ATOM     16  C   UNL     1       6.039   3.702  13.177  0.00  0.00    +0.000 C 
ATOM     17  C   UNL     1       6.487   4.124  14.326  0.00  0.00    +0.000 C 
ENDBRANCH  15  17
ENDBRANCH  13  15
ENDBRANCH  12  13
ENDBRANCH  11  12
ENDBRANCH  10  11
ENDBRANCH   1  10
TORSDOF 7
ENDMDL
MODEL 2
REMARK VINA RESULT:      -5.9      1.468      2.047
REMARK  Name = 
REMARK  8 active torsions:
REMARK  status: ('A' for Active; 'I' for Inactive)
REMARK    1  A    between atoms: C_2  and  C_3
REMARK    2  A    between atoms: C_3  and  N_4
REMARK    3  A    between atoms: N_4  and  C_5
REMARK    4  A    between atoms: N_4  and  C_6
REMARK    5  A    between atoms: C_6  and  C_7
REMARK    6  A    between atoms: C_7  and  C_8
REMARK    7  A    between atoms: C_8  and  O_9
REMARK    8  A    between atoms: O_9  and  C_10
REMARK                            x       y       z     vdW  Elec       q    Type
REMARK                         _______ _______ _______ _____ _____    ______ ____
ROOT
ATOM      1  O   UNL     1       5.922   3.988  19.012  0.00  0.00    +0.000 OA
ENDROOT
BRANCH   1   2
ATOM      2  C   UNL     1       4.581   3.731  18.918  0.00  0.00    +0.000 A 
ATOM      3  C   UNL     1       3.691   4.464  18.120  0.00  0.00    +0.000 A 
ATOM      4  C   UNL     1       2.342   4.117  18.062  0.00  0.00    +0.000 A 
ATOM      5  C   UNL     1       1.869   3.038  18.801  0.00  0.00    +0.000 A 
ATOM      6 CL   UNL     1       0.207   2.607  18.707  0.00  0.00    +0.000 Cl
ATOM      7  C   UNL     1       2.732   2.306  19.614  0.00  0.00    +0.000 A 
ATOM      8  C   UNL     1       4.083   2.655  19.673  0.00  0.00    +0.000 A 
ATOM      9 CL   UNL     1       5.114   1.719  20.696  0.00  0.00    +0.000 Cl
ENDBRANCH   1   2
BRANCH   1  10
ATOM     10  C   UNL     1       6.297   5.347  19.237  0.00  0.00    +0.000 C 
BRANCH  10  11
ATOM     11  C   UNL     1       7.463   5.690  18.318  0.00  0.00    +0.000 C 
BRANCH  11  12
ATOM     12  C   UNL     1       7.086   6.782  17.311  0.00  0.00    +0.000 C 
BRANCH  12  13
ATOM     13  N   UNL     1       6.682   6.260  15.994  0.00  0.00    +0.000 NA
ATOM     14  C   UNL     1       5.242   6.480  15.798  0.00  0.00    +0.000 C 
BRANCH  13  15
ATOM     15  C   UNL     1       7.034   4.840  15.862  0.00  0.00    +0.000 C 
BRANCH  15  17
ATOM     16  C   UNL     1       6.107   3.806  13.403  0.00  0.00    +0.000 C 
ATOM     17  C   UNL     1       6.536   4.284  14.537  0.00  0.00    +0.000 C 
ENDBRANCH  15  17
ENDBRANCH  13  15
ENDBRANCH  12  13
ENDBRANCH  11  12
ENDBRANCH  10  11
ENDBRANCH   1  10
TORSDOF 7
ENDMDL
MODEL 3
REMARK VINA RESULT:      -5.8      3.385      5.206
REMARK  Name = 
REMARK  8 active torsions:
REMARK  status: ('A' for Active; 'I' for Inactive)
REMARK    1  A    between atoms: C_2  and  C_3
REMARK    2  A    between atoms: C_3  and  N_4
REMARK    3  A    between atoms: N_4  and  C_5
REMARK    4  A    between atoms: N_4  and  C_6
REMARK    5  A    between atoms: C_6  and  C_7
REMARK    6  A    between atoms: C_7  and  C_8
REMARK    7  A    between atoms: C_8  and  O_9
REMARK    8  A    between atoms: O_9  and  C_10
REMARK                            x       y       z     vdW  Elec       q    Type
REMARK                         _______ _______ _______ _____ _____    ______ ____
ROOT
ATOM      1  O   UNL     1       5.230   4.816  19.180  0.00  0.00    +0.000 OA
ENDROOT
BRANCH   1   2
ATOM      2  C   UNL     1       4.295   5.784  18.930  0.00  0.00    +0.000 A 
ATOM      3  C   UNL     1       3.230   6.093  19.789  0.00  0.00    +0.000 A 
ATOM      4  C   UNL     1       2.337   7.115  19.469  0.00  0.00    +0.000 A 
ATOM      5  C   UNL     1       2.496   7.834  18.289  0.00  0.00    +0.000 A 
ATOM      6 CL   UNL     1       1.398   9.103  17.914  0.00  0.00    +0.000 Cl
ATOM      7  C   UNL     1       3.535   7.532  17.413  0.00  0.00    +0.000 A 
ATOM      8  C   UNL     1       4.430   6.508  17.733  0.00  0.00    +0.000 A 
ATOM      9 CL   UNL     1       5.703   6.169  16.614  0.00  0.00    +0.000 Cl
ENDBRANCH   1   2
BRANCH   1  10
ATOM     10  C   UNL     1       4.749   3.477  19.291  0.00  0.00    +0.000 C 
BRANCH  10  11
ATOM     11  C   UNL     1       4.038   3.106  17.996  0.00  0.00    +0.000 C 
BRANCH  11  12
ATOM     12  C   UNL     1       2.945   2.058  18.232  0.00  0.00    +0.000 C 
BRANCH  12  13
ATOM     13  N   UNL     1       1.592   2.521  17.875  0.00  0.00    +0.000 NA
ATOM     14  C   UNL     1       1.636   3.948  17.528  0.00  0.00    +0.000 C 
BRANCH  13  15
ATOM     15  C   UNL     1       0.644   2.259  18.966  0.00  0.00    +0.000 C 
BRANCH  15  17
ATOM     16  C   UNL     1       1.663   3.207  21.423  0.00  0.00    +0.000 C 
ATOM     17  C   UNL     1       1.192   2.770  20.289  0.00  0.00    +0.000 C 
ENDBRANCH  15  17
ENDBRANCH  13  15
ENDBRANCH  12  13
ENDBRANCH  11  12
ENDBRANCH  10  11
ENDBRANCH   1  10
TORSDOF 7
ENDMDL
MODEL 4
REMARK VINA RESULT:      -5.8      3.302      6.039
REMARK  Name = 
REMARK  8 active torsions:
REMARK  status: ('A' for Active; 'I' for Inactive)
REMARK    1  A    between atoms: C_2  and  C_3
REMARK    2  A    between atoms: C_3  and  N_4
REMARK    3  A    between atoms: N_4  and  C_5
REMARK    4  A    between atoms: N_4  and  C_6
REMARK    5  A    between atoms: C_6  and  C_7
REMARK    6  A    between atoms: C_7  and  C_8
REMARK    7  A    between atoms: C_8  and  O_9
REMARK    8  A    between atoms: O_9  and  C_10
REMARK                            x       y       z     vdW  Elec       q    Type
REMARK                         _______ _______ _______ _____ _____    ______ ____
ROOT
ATOM      1  O   UNL     1       4.668   3.515  16.751  0.00  0.00    +0.000 OA
ENDROOT
BRANCH   1   2
ATOM      2  C   UNL     1       5.514   4.460  17.263  0.00  0.00    +0.000 A 
ATOM      3  C   UNL     1       5.768   4.634  18.632  0.00  0.00    +0.000 A 
ATOM      4  C   UNL     1       6.667   5.606  19.068  0.00  0.00    +0.000 A 
ATOM      5  C   UNL     1       7.319   6.414  18.143  0.00  0.00    +0.000 A 
ATOM      6 CL   UNL     1       8.440   7.598  18.691  0.00  0.00    +0.000 Cl
ATOM      7  C   UNL     1       7.070   6.272  16.781  0.00  0.00    +0.000 A 
ATOM      8  C   UNL     1       6.168   5.298  16.344  0.00  0.00    +0.000 A 
ATOM      9 CL   UNL     1       5.891   5.160  14.644  0.00  0.00    +0.000 Cl
ENDBRANCH   1   2
BRANCH   1  10
ATOM     10  C   UNL     1       3.329   3.522  17.244  0.00  0.00    +0.000 C 
BRANCH  10  11
ATOM     11  C   UNL     1       3.045   2.178  17.903  0.00  0.00    +0.000 C 
BRANCH  11  12
ATOM     12  C   UNL     1       3.038   2.289  19.431  0.00  0.00    +0.000 C 
BRANCH  12  13
ATOM     13  N   UNL     1       1.690   2.228  20.024  0.00  0.00    +0.000 NA
ATOM     14  C   UNL     1       0.682   2.444  18.978  0.00  0.00    +0.000 C 
BRANCH  13  15
ATOM     15  C   UNL     1       1.553   3.202  21.115  0.00  0.00    +0.000 C 
BRANCH  15  17
ATOM     16  C   UNL     1       2.128   5.811  20.201  0.00  0.00    +0.000 C 
ATOM     17  C   UNL     1       1.863   4.607  20.623  0.00  0.00    +0.000 C 
ENDBRANCH  15  17
ENDBRANCH  13  15
ENDBRANCH  12  13
ENDBRANCH  11  12
ENDBRANCH  10  11
ENDBRANCH   1  10
TORSDOF 7
ENDMDL
MODEL 5
REMARK VINA RESULT:      -5.7      3.003      5.660
REMARK  Name = 
REMARK  8 active torsions:
REMARK  status: ('A' for Active; 'I' for Inactive)
REMARK    1  A    between atoms: C_2  and  C_3
REMARK    2  A    between atoms: C_3  and  N_4
REMARK    3  A    between atoms: N_4  and  C_5
REMARK    4  A    between atoms: N_4  and  C_6
REMARK    5  A    between atoms: C_6  and  C_7
REMARK    6  A    between atoms: C_7  and  C_8
REMARK    7  A    between atoms: C_8  and  O_9
REMARK    8  A    between atoms: O_9  and  C_10
REMARK                            x       y       z     vdW  Elec       q    Type
REMARK                         _______ _______ _______ _____ _____    ______ ____
ROOT
ATOM      1  O   UNL     1       4.070   3.748  17.047  0.00  0.00    +0.000 OA
ENDROOT
BRANCH   1   2
ATOM      2  C   UNL     1       5.062   4.559  17.524  0.00  0.00    +0.000 A 
ATOM      3  C   UNL     1       5.504   4.568  18.855  0.00  0.00    +0.000 A 
ATOM      4  C   UNL     1       6.542   5.410  19.252  0.00  0.00    +0.000 A 
ATOM      5  C   UNL     1       7.147   6.252  18.325  0.00  0.00    +0.000 A 
ATOM      6 CL   UNL     1       8.438   7.273  18.822  0.00  0.00    +0.000 Cl
ATOM      7  C   UNL     1       6.713   6.274  17.002  0.00  0.00    +0.000 A 
ATOM      8  C   UNL     1       5.672   5.431  16.605  0.00  0.00    +0.000 A 
ATOM      9 CL   UNL     1       5.168   5.495  14.953  0.00  0.00    +0.000 Cl
ENDBRANCH   1   2
BRANCH   1  10
ATOM     10  C   UNL     1       3.730   2.616  17.848  0.00  0.00    +0.000 C 
BRANCH  10  11
ATOM     11  C   UNL     1       2.213   2.536  17.960  0.00  0.00    +0.000 C 
BRANCH  11  12
ATOM     12  C   UNL     1       1.629   3.790  18.621  0.00  0.00    +0.000 C 
BRANCH  12  13
ATOM     13  N   UNL     1       2.100   4.008  20.000  0.00  0.00    +0.000 NA
ATOM     14  C   UNL     1       1.435   3.060  20.903  0.00  0.00    +0.000 C 
BRANCH  13  15
ATOM     15  C   UNL     1       1.877   5.399  20.417  0.00  0.00    +0.000 C 
BRANCH  15  17
ATOM     16  C   UNL     1       2.743   7.192  18.414  0.00  0.00    +0.000 C 
ATOM     17  C   UNL     1       2.342   6.365  19.339  0.00  0.00    +0.000 C 
ENDBRANCH  15  17
ENDBRANCH  13  15
ENDBRANCH  12  13
ENDBRANCH  11  12
ENDBRANCH  10  11
ENDBRANCH   1  10
TORSDOF 7
ENDMDL
MODEL 6
REMARK VINA RESULT:      -5.6      1.939      2.698
REMARK  Name = 
REMARK  8 active torsions:
REMARK  status: ('A' for Active; 'I' for Inactive)
REMARK    1  A    between atoms: C_2  and  C_3
REMARK    2  A    between atoms: C_3  and  N_4
REMARK    3  A    between atoms: N_4  and  C_5
REMARK    4  A    between atoms: N_4  and  C_6
REMARK    5  A    between atoms: C_6  and  C_7
REMARK    6  A    between atoms: C_7  and  C_8
REMARK    7  A    between atoms: C_8  and  O_9
REMARK    8  A    between atoms: O_9  and  C_10
REMARK                            x       y       z     vdW  Elec       q    Type
REMARK                         _______ _______ _______ _____ _____    ______ ____
ROOT
ATOM      1  O   UNL     1       2.568   6.446  17.681  0.00  0.00    +0.000 OA
ENDROOT
BRANCH   1   2
ATOM      2  C   UNL     1       2.423   5.564  18.716  0.00  0.00    +0.000 A 
ATOM      3  C   UNL     1       2.037   5.927  20.015  0.00  0.00    +0.000 A 
ATOM      4  C   UNL     1       1.888   4.958  21.006  0.00  0.00    +0.000 A 
ATOM      5  C   UNL     1       2.124   3.619  20.711  0.00  0.00    +0.000 A 
ATOM      6 CL   UNL     1       1.919   2.431  21.937  0.00  0.00    +0.000 Cl
ATOM      7  C   UNL     1       2.526   3.238  19.434  0.00  0.00    +0.000 A 
ATOM      8  C   UNL     1       2.677   4.209  18.441  0.00  0.00    +0.000 A 
ATOM      9 CL   UNL     1       3.178   3.687  16.871  0.00  0.00    +0.000 Cl
ENDBRANCH   1   2
BRANCH   1  10
ATOM     10  C   UNL     1       3.674   7.346  17.758  0.00  0.00    +0.000 C 
BRANCH  10  11
ATOM     11  C   UNL     1       4.684   6.970  16.681  0.00  0.00    +0.000 C 
BRANCH  11  12
ATOM     12  C   UNL     1       6.065   6.680  17.278  0.00  0.00    +0.000 C 
BRANCH  12  13
ATOM     13  N   UNL     1       6.201   5.319  17.826  0.00  0.00    +0.000 NA
ATOM     14  C   UNL     1       6.542   5.394  19.253  0.00  0.00    +0.000 C 
BRANCH  13  15
ATOM     15  C   UNL     1       7.199   4.548  17.072  0.00  0.00    +0.000 C 
BRANCH  15  17
ATOM     16  C   UNL     1       6.304   4.061  14.439  0.00  0.00    +0.000 C 
ATOM     17  C   UNL     1       6.717   4.285  15.654  0.00  0.00    +0.000 C 
ENDBRANCH  15  17
ENDBRANCH  13  15
ENDBRANCH  12  13
ENDBRANCH  11  12
ENDBRANCH  10  11
ENDBRANCH   1  10
TORSDOF 7
ENDMDL
MODEL 7
REMARK VINA RESULT:      -5.6      3.182      5.537
REMARK  Name = 
REMARK  8 active torsions:
REMARK  status: ('A' for Active; 'I' for Inactive)
REMARK    1  A    between atoms: C_2  and  C_3
REMARK    2  A    between atoms: C_3  and  N_4
REMARK    3  A    between atoms: N_4  and  C_5
REMARK    4  A    between atoms: N_4  and  C_6
REMARK    5  A    between atoms: C_6  and  C_7
REMARK    6  A    between atoms: C_7  and  C_8
REMARK    7  A    between atoms: C_8  and  O_9
REMARK    8  A    between atoms: O_9  and  C_10
REMARK                            x       y       z     vdW  Elec       q    Type
REMARK                         _______ _______ _______ _____ _____    ______ ____
ROOT
ATOM      1  O   UNL     1       4.425   5.578  19.597  0.00  0.00    +0.000 OA
ENDROOT
BRANCH   1   2
ATOM      2  C   UNL     1       4.956   5.277  18.372  0.00  0.00    +0.000 A 
ATOM      3  C   UNL     1       4.195   4.964  17.236  0.00  0.00    +0.000 A 
ATOM      4  C   UNL     1       4.818   4.695  16.019  0.00  0.00    +0.000 A 
ATOM      5  C   UNL     1       6.205   4.733  15.924  0.00  0.00    +0.000 A 
ATOM      6 CL   UNL     1       6.962   4.418  14.412  0.00  0.00    +0.000 Cl
ATOM      7  C   UNL     1       6.982   5.024  17.042  0.00  0.00    +0.000 A 
ATOM      8  C   UNL     1       6.357   5.293  18.263  0.00  0.00    +0.000 A 
ATOM      9 CL   UNL     1       7.364   5.647  19.623  0.00  0.00    +0.000 Cl
ENDBRANCH   1   2
BRANCH   1  10
ATOM     10  C   UNL     1       3.105   6.122  19.604  0.00  0.00    +0.000 C 
BRANCH  10  11
ATOM     11  C   UNL     1       2.199   5.191  20.399  0.00  0.00    +0.000 C 
BRANCH  11  12
ATOM     12  C   UNL     1       1.284   4.373  19.482  0.00  0.00    +0.000 C 
BRANCH  12  13
ATOM     13  N   UNL     1       0.959   3.035  20.008  0.00  0.00    +0.000 NA
ATOM     14  C   UNL     1       1.477   2.905  21.376  0.00  0.00    +0.000 C 
BRANCH  13  15
ATOM     15  C   UNL     1       1.486   1.984  19.128  0.00  0.00    +0.000 C 
BRANCH  15  17
ATOM     16  C   UNL     1       4.302   1.857  19.301  0.00  0.00    +0.000 C 
ATOM     17  C   UNL     1       3.002   1.915  19.222  0.00  0.00    +0.000 C 
ENDBRANCH  15  17
ENDBRANCH  13  15
ENDBRANCH  12  13
ENDBRANCH  11  12
ENDBRANCH  10  11
ENDBRANCH   1  10
TORSDOF 7
ENDMDL
MODEL 8
REMARK VINA RESULT:      -5.6      3.081      6.089
REMARK  Name = 
REMARK  8 active torsions:
REMARK  status: ('A' for Active; 'I' for Inactive)
REMARK    1  A    between atoms: C_2  and  C_3
REMARK    2  A    between atoms: C_3  and  N_4
REMARK    3  A    between atoms: N_4  and  C_5
REMARK    4  A    between atoms: N_4  and  C_6
REMARK    5  A    between atoms: C_6  and  C_7
REMARK    6  A    between atoms: C_7  and  C_8
REMARK    7  A    between atoms: C_8  and  O_9
REMARK    8  A    between atoms: O_9  and  C_10
REMARK                            x       y       z     vdW  Elec       q    Type
REMARK                         _______ _______ _______ _____ _____    ______ ____
ROOT
ATOM      1  O   UNL     1       6.117   4.170  17.399  0.00  0.00    +0.000 OA
ENDROOT
BRANCH   1   2
ATOM      2  C   UNL     1       6.728   5.360  17.686  0.00  0.00    +0.000 A 
ATOM      3  C   UNL     1       7.665   5.539  18.714  0.00  0.00    +0.000 A 
ATOM      4  C   UNL     1       8.260   6.782  18.921  0.00  0.00    +0.000 A 
ATOM      5  C   UNL     1       7.924   7.858  18.107  0.00  0.00    +0.000 A 
ATOM      6 CL   UNL     1       8.679   9.383  18.360  0.00  0.00    +0.000 Cl
ATOM      7  C   UNL     1       6.983   7.709  17.092  0.00  0.00    +0.000 A 
ATOM      8  C   UNL     1       6.386   6.463  16.885  0.00  0.00    +0.000 A 
ATOM      9 CL   UNL     1       5.223   6.328  15.613  0.00  0.00    +0.000 Cl
ENDBRANCH   1   2
BRANCH   1  10
ATOM     10  C   UNL     1       5.156   3.701  18.345  0.00  0.00    +0.000 C 
BRANCH  10  11
ATOM     11  C   UNL     1       3.763   4.059  17.843  0.00  0.00    +0.000 C 
BRANCH  11  12
ATOM     12  C   UNL     1       2.879   2.816  17.696  0.00  0.00    +0.000 C 
BRANCH  12  13
ATOM     13  N   UNL     1       1.442   3.084  17.882  0.00  0.00    +0.000 NA
ATOM     14  C   UNL     1       1.246   4.499  18.229  0.00  0.00    +0.000 C 
BRANCH  13  15
ATOM     15  C   UNL     1       0.869   2.194  18.900  0.00  0.00    +0.000 C 
BRANCH  15  17
ATOM     16  C   UNL     1       1.810   2.886  21.471  0.00  0.00    +0.000 C 
ATOM     17  C   UNL     1       1.376   2.566  20.285  0.00  0.00    +0.000 C 
ENDBRANCH  15  17
ENDBRANCH  13  15
ENDBRANCH  12  13
ENDBRANCH  11  12
ENDBRANCH  10  11
ENDBRANCH   1  10
TORSDOF 7
ENDMDL
MODEL 9
REMARK VINA RESULT:      -5.6      3.014      5.442
REMARK  Name = 
REMARK  8 active torsions:
REMARK  status: ('A' for Active; 'I' for Inactive)
REMARK    1  A    between atoms: C_2  and  C_3
REMARK    2  A    between atoms: C_3  and  N_4
REMARK    3  A    between atoms: N_4  and  C_5
REMARK    4  A    between atoms: N_4  and  C_6
REMARK    5  A    between atoms: C_6  and  C_7
REMARK    6  A    between atoms: C_7  and  C_8
REMARK    7  A    between atoms: C_8  and  O_9
REMARK    8  A    between atoms: O_9  and  C_10
REMARK                            x       y       z     vdW  Elec       q    Type
REMARK                         _______ _______ _______ _____ _____    ______ ____
ROOT
ATOM      1  O   UNL     1       4.894   4.193  19.114  0.00  0.00    +0.000 OA
ENDROOT
BRANCH   1   2
ATOM      2  C   UNL     1       5.452   4.341  17.874  0.00  0.00    +0.000 A 
ATOM      3  C   UNL     1       4.898   3.825  16.692  0.00  0.00    +0.000 A 
ATOM      4  C   UNL     1       5.520   4.045  15.465  0.00  0.00    +0.000 A 
ATOM      5  C   UNL     1       6.700   4.779  15.404  0.00  0.00    +0.000 A 
ATOM      6 CL   UNL     1       7.448   5.060  13.881  0.00  0.00    +0.000 Cl
ATOM      7  C   UNL     1       7.277   5.286  16.565  0.00  0.00    +0.000 A 
ATOM      8  C   UNL     1       6.654   5.064  17.796  0.00  0.00    +0.000 A 
ATOM      9 CL   UNL     1       7.409   5.711  19.210  0.00  0.00    +0.000 Cl
ENDBRANCH   1   2
BRANCH   1  10
ATOM     10  C   UNL     1       4.774   2.858  19.606  0.00  0.00    +0.000 C 
BRANCH  10  11
ATOM     11  C   UNL     1       3.301   2.470  19.611  0.00  0.00    +0.000 C 
BRANCH  11  12
ATOM     12  C   UNL     1       2.404   3.666  19.949  0.00  0.00    +0.000 C 
BRANCH  12  13
ATOM     13  N   UNL     1       1.207   3.770  19.095  0.00  0.00    +0.000 NA
ATOM     14  C   UNL     1       0.651   2.430  18.864  0.00  0.00    +0.000 C 
BRANCH  13  15
ATOM     15  C   UNL     1       1.522   4.449  17.832  0.00  0.00    +0.000 C 
BRANCH  15  17
ATOM     16  C   UNL     1       2.672   6.982  18.319  0.00  0.00    +0.000 C 
ATOM     17  C   UNL     1       2.141   5.813  18.095  0.00  0.00    +0.000 C 
ENDBRANCH  15  17
ENDBRANCH  13  15
ENDBRANCH  12  13
ENDBRANCH  11  12
ENDBRANCH  10  11
ENDBRANCH   1  10
TORSDOF 7
ENDMDL
