MODEL 1
REMARK VINA RESULT:      -8.3      0.000      0.000
REMARK  Name = 
REMARK  6 active torsions:
REMARK  status: ('A' for Active; 'I' for Inactive)
REMARK    1  A    between atoms: C_1  and  C_2
REMARK    2  A    between atoms: C_5  and  C_6
REMARK    3  A    between atoms: C_12  and  N_13
REMARK    4  A    between atoms: C_17  and  C_18
REMARK    5  A    between atoms: C_24  and  C_25
REMARK    6  A    between atoms: C_26  and  N_27
REMARK                            x       y       z     vdW  Elec       q    Type
REMARK                         _______ _______ _______ _____ _____    ______ ____
ROOT
ATOM      1  C   UNL     1       0.413  11.361  19.735  0.00  0.00    +0.000 C 
ATOM      2  O   UNL     1       0.403  11.866  18.616  0.00  0.00    +0.000 OA
ATOM      3  N   UNL     1       0.800  10.006  19.995  0.00  0.00    +0.000 N 
ATOM      4  C   UNL     1       0.371   9.327  21.220  0.00  0.00    +0.000 C 
ATOM      5  C   UNL     1       1.367   8.316  21.736  0.00  0.00    +0.000 C 
ATOM      6  C   UNL     1       1.651   7.252  20.702  0.00  0.00    +0.000 C 
ATOM      7  C   UNL     1       2.087   7.866  19.366  0.00  0.00    +0.000 C 
ATOM      8  C   UNL     1       1.155   9.054  18.878  0.00  0.00    +0.000 C 
ATOM      9  C   UNL     1       1.847   9.685  17.655  0.00  0.00    +0.000 C 
ENDROOT
BRANCH   7  10
ATOM     10  N   UNL     1       2.122   6.789  18.361  0.00  0.00    +0.000 N 
ATOM     11  C   UNL     1       3.305   6.300  17.845  0.00  0.00    +0.000 A 
ATOM     12  C   UNL     1       4.389   7.108  17.519  0.00  0.00    +0.000 A 
ATOM     13  C   UNL     1       5.520   6.544  16.927  0.00  0.00    +0.000 A 
ATOM     14  C   UNL     1       5.549   5.179  16.648  0.00  0.00    +0.000 A 
ATOM     15  C   UNL     1       4.428   4.446  16.998  0.00  0.00    +0.000 A 
ATOM     16  N   UNL     1       3.324   4.976  17.586  0.00  0.00    +0.000 NA
ATOM     17  H   UNL     1       1.527   5.987  18.564  0.00  0.00    +0.000 HD
BRANCH  14  18
ATOM     18  C   UNL     1       6.719   4.513  15.992  0.00  0.00    +0.000 C 
ATOM     19  F   UNL     1       7.236   5.225  14.953  0.00  0.00    +0.000 F 
ATOM     20  F   UNL     1       7.754   4.308  16.851  0.00  0.00    +0.000 F 
ATOM     21  F   UNL     1       6.409   3.289  15.483  0.00  0.00    +0.000 F 
ENDBRANCH  14  18
ENDBRANCH   7  10
BRANCH   1  26
ATOM     22  C   UNL     1      -1.835  14.497  24.142  0.00  0.00    +0.000 C 
ATOM     23  C   UNL     1      -1.269  13.730  22.984  0.00  0.00    +0.000 A 
ATOM     24  C   UNL     1      -1.949  12.662  22.413  0.00  0.00    +0.000 A 
ATOM     25  C   UNL     1      -1.393  11.980  21.326  0.00  0.00    +0.000 A 
ATOM     26  C   UNL     1      -0.090  12.242  20.853  0.00  0.00    +0.000 A 
ATOM     27  C   UNL     1       0.554  13.391  21.355  0.00  0.00    +0.000 A 
ATOM     28  C   UNL     1      -0.050  14.114  22.420  0.00  0.00    +0.000 A 
BRANCH  27  29
ATOM     29  N   UNL     1       1.768  13.934  20.850  0.00  0.00    +0.000 N 
ATOM     30  N   UNL     1       1.875  14.762  19.783  0.00  0.00    +0.000 NA
ATOM     31  C   UNL     1       3.179  15.060  19.778  0.00  0.00    +0.000 A 
ATOM     32  C   UNL     1       3.833  14.341  20.775  0.00  0.00    +0.000 A 
ATOM     33  N   UNL     1       2.968  13.563  21.412  0.00  0.00    +0.000 NA
ENDBRANCH  27  29
ENDBRANCH   1  26
TORSDOF 4
ENDMDL
MODEL 2
REMARK VINA RESULT:      -8.0      5.399     10.364
REMARK  Name = 
REMARK  6 active torsions:
REMARK  status: ('A' for Active; 'I' for Inactive)
REMARK    1  A    between atoms: C_1  and  C_2
REMARK    2  A    between atoms: C_5  and  C_6
REMARK    3  A    between atoms: C_12  and  N_13
REMARK    4  A    between atoms: C_17  and  C_18
REMARK    5  A    between atoms: C_24  and  C_25
REMARK    6  A    between atoms: C_26  and  N_27
REMARK                            x       y       z     vdW  Elec       q    Type
REMARK                         _______ _______ _______ _____ _____    ______ ____
ROOT
ATOM      1  C   UNL     1       2.608   6.711  19.321  0.00  0.00    +0.000 C 
ATOM      2  O   UNL     1       2.453   6.006  20.315  0.00  0.00    +0.000 OA
ATOM      3  N   UNL     1       1.979   7.985  19.140  0.00  0.00    +0.000 N 
ATOM      4  C   UNL     1       1.820   8.557  17.801  0.00  0.00    +0.000 C 
ATOM      5  C   UNL     1       1.882  10.066  17.774  0.00  0.00    +0.000 C 
ATOM      6  C   UNL     1       0.817  10.672  18.657  0.00  0.00    +0.000 C 
ATOM      7  C   UNL     1       0.883  10.115  20.084  0.00  0.00    +0.000 C 
ATOM      8  C   UNL     1       0.994   8.533  20.144  0.00  0.00    +0.000 C 
ATOM      9  C   UNL     1       1.263   8.165  21.615  0.00  0.00    +0.000 C 
ENDROOT
BRANCH   7  10
ATOM     10  N   UNL     1      -0.314  10.578  20.808  0.00  0.00    +0.000 N 
ATOM     11  C   UNL     1      -0.550  11.913  21.066  0.00  0.00    +0.000 A 
ATOM     12  C   UNL     1       0.446  12.808  21.443  0.00  0.00    +0.000 A 
ATOM     13  C   UNL     1       0.111  14.124  21.763  0.00  0.00    +0.000 A 
ATOM     14  C   UNL     1      -1.222  14.529  21.721  0.00  0.00    +0.000 A 
ATOM     15  C   UNL     1      -2.153  13.578  21.340  0.00  0.00    +0.000 A 
ATOM     16  N   UNL     1      -1.843  12.296  21.014  0.00  0.00    +0.000 NA
ATOM     17  H   UNL     1      -1.194  10.170  20.496  0.00  0.00    +0.000 HD
BRANCH  14  18
ATOM     18  C   UNL     1      -1.656  15.918  22.074  0.00  0.00    +0.000 C 
ATOM     19  F   UNL     1      -1.315  16.287  23.340  0.00  0.00    +0.000 F 
ATOM     20  F   UNL     1      -1.113  16.861  21.256  0.00  0.00    +0.000 F 
ATOM     21  F   UNL     1      -3.005  16.085  21.991  0.00  0.00    +0.000 F 
ENDBRANCH  14  18
ENDBRANCH   7  10
BRANCH   1  26
ATOM     22  C   UNL     1       6.128   4.761  15.063  0.00  0.00    +0.000 C 
ATOM     23  C   UNL     1       5.189   5.254  16.124  0.00  0.00    +0.000 A 
ATOM     24  C   UNL     1       5.103   6.600  16.456  0.00  0.00    +0.000 A 
ATOM     25  C   UNL     1       4.206   7.021  17.443  0.00  0.00    +0.000 A 
ATOM     26  C   UNL     1       3.463   6.115  18.227  0.00  0.00    +0.000 A 
ATOM     27  C   UNL     1       3.466   4.765  17.821  0.00  0.00    +0.000 A 
ATOM     28  C   UNL     1       4.338   4.358  16.775  0.00  0.00    +0.000 A 
BRANCH  27  29
ATOM     29  N   UNL     1       2.620   3.751  18.351  0.00  0.00    +0.000 N 
ATOM     30  N   UNL     1       2.989   2.814  19.258  0.00  0.00    +0.000 NA
ATOM     31  C   UNL     1       1.837   2.177  19.499  0.00  0.00    +0.000 A 
ATOM     32  C   UNL     1       0.835   2.681  18.674  0.00  0.00    +0.000 A 
ATOM     33  N   UNL     1       1.331   3.624  17.885  0.00  0.00    +0.000 NA
ENDBRANCH  27  29
ENDBRANCH   1  26
TORSDOF 4
ENDMDL
MODEL 3
REMARK VINA RESULT:      -8.0      2.658      3.601
REMARK  Name = 
REMARK  6 active torsions:
REMARK  status: ('A' for Active; 'I' for Inactive)
REMARK    1  A    between atoms: C_1  and  C_2
REMARK    2  A    between atoms: C_5  and  C_6
REMARK    3  A    between atoms: C_12  and  N_13
REMARK    4  A    between atoms: C_17  and  C_18
REMARK    5  A    between atoms: C_24  and  C_25
REMARK    6  A    between atoms: C_26  and  N_27
REMARK                            x       y       z     vdW  Elec       q    Type
REMARK                         _______ _______ _______ _____ _____    ______ ____
ROOT
ATOM      1  C   UNL     1      -0.582  11.616  21.946  0.00  0.00    +0.000 C 
ATOM      2  O   UNL     1      -0.408  11.426  23.147  0.00  0.00    +0.000 OA
ATOM      3  N   UNL     1       0.022  10.822  20.918  0.00  0.00    +0.000 N 
ATOM      4  C   UNL     1       0.163  11.342  19.556  0.00  0.00    +0.000 C 
ATOM      5  C   UNL     1       0.072  10.280  18.486  0.00  0.00    +0.000 C 
ATOM      6  C   UNL     1       1.130   9.219  18.679  0.00  0.00    +0.000 C 
ATOM      7  C   UNL     1       1.082   8.625  20.092  0.00  0.00    +0.000 C 
ATOM      8  C   UNL     1       1.001   9.718  21.239  0.00  0.00    +0.000 C 
ATOM      9  C   UNL     1       0.746   8.960  22.556  0.00  0.00    +0.000 C 
ENDROOT
BRANCH   7  10
ATOM     10  N   UNL     1       2.273   7.775  20.269  0.00  0.00    +0.000 N 
ATOM     11  C   UNL     1       2.274   6.431  19.956  0.00  0.00    +0.000 A 
ATOM     12  C   UNL     1       1.205   5.582  20.224  0.00  0.00    +0.000 A 
ATOM     13  C   UNL     1       1.316   4.219  19.949  0.00  0.00    +0.000 A 
ATOM     14  C   UNL     1       2.504   3.713  19.425  0.00  0.00    +0.000 A 
ATOM     15  C   UNL     1       3.522   4.622  19.191  0.00  0.00    +0.000 A 
ATOM     16  N   UNL     1       3.426   5.954  19.441  0.00  0.00    +0.000 NA
ATOM     17  H   UNL     1       3.143   8.169  19.912  0.00  0.00    +0.000 HD
BRANCH  14  18
ATOM     18  C   UNL     1       2.701   2.258  19.128  0.00  0.00    +0.000 C 
ATOM     19  F   UNL     1       1.762   1.456  19.701  0.00  0.00    +0.000 F 
ATOM     20  F   UNL     1       2.657   1.985  17.795  0.00  0.00    +0.000 F 
ATOM     21  F   UNL     1       3.903   1.791  19.565  0.00  0.00    +0.000 F 
ENDBRANCH  14  18
ENDBRANCH   7  10
BRANCH   1  26
ATOM     22  C   UNL     1      -4.207  16.035  20.663  0.00  0.00    +0.000 C 
ATOM     23  C   UNL     1      -3.263  14.904  20.946  0.00  0.00    +0.000 A 
ATOM     24  C   UNL     1      -3.713  13.600  21.110  0.00  0.00    +0.000 A 
ATOM     25  C   UNL     1      -2.800  12.571  21.361  0.00  0.00    +0.000 A 
ATOM     26  C   UNL     1      -1.430  12.814  21.591  0.00  0.00    +0.000 A 
ATOM     27  C   UNL     1      -0.955  14.113  21.318  0.00  0.00    +0.000 A 
ATOM     28  C   UNL     1      -1.887  15.139  21.004  0.00  0.00    +0.000 A 
BRANCH  27  29
ATOM     29  N   UNL     1       0.416  14.492  21.287  0.00  0.00    +0.000 N 
ATOM     30  N   UNL     1       1.207  14.669  22.373  0.00  0.00    +0.000 NA
ATOM     31  C   UNL     1       2.402  14.915  21.822  0.00  0.00    +0.000 A 
ATOM     32  C   UNL     1       2.282  14.969  20.435  0.00  0.00    +0.000 A 
ATOM     33  N   UNL     1       1.017  14.782  20.084  0.00  0.00    +0.000 NA
ENDBRANCH  27  29
ENDBRANCH   1  26
TORSDOF 4
ENDMDL
MODEL 4
REMARK VINA RESULT:      -7.8      2.760      4.182
REMARK  Name = 
REMARK  6 active torsions:
REMARK  status: ('A' for Active; 'I' for Inactive)
REMARK    1  A    between atoms: C_1  and  C_2
REMARK    2  A    between atoms: C_5  and  C_6
REMARK    3  A    between atoms: C_12  and  N_13
REMARK    4  A    between atoms: C_17  and  C_18
REMARK    5  A    between atoms: C_24  and  C_25
REMARK    6  A    between atoms: C_26  and  N_27
REMARK                            x       y       z     vdW  Elec       q    Type
REMARK                         _______ _______ _______ _____ _____    ______ ____
ROOT
ATOM      1  C   UNL     1       0.555  11.822  20.868  0.00  0.00    +0.000 C 
ATOM      2  O   UNL     1       0.239  11.769  22.053  0.00  0.00    +0.000 OA
ATOM      3  N   UNL     1       1.117  10.722  20.142  0.00  0.00    +0.000 N 
ATOM      4  C   UNL     1       1.883  10.949  18.915  0.00  0.00    +0.000 C 
ATOM      5  C   UNL     1       1.756   9.834  17.903  0.00  0.00    +0.000 C 
ATOM      6  C   UNL     1       2.208   8.515  18.485  0.00  0.00    +0.000 C 
ATOM      7  C   UNL     1       1.477   8.196  19.794  0.00  0.00    +0.000 C 
ATOM      8  C   UNL     1       1.442   9.410  20.816  0.00  0.00    +0.000 C 
ATOM      9  C   UNL     1       0.502   8.996  21.963  0.00  0.00    +0.000 C 
ENDROOT
BRANCH   7  10
ATOM     10  N   UNL     1       2.130   7.025  20.406  0.00  0.00    +0.000 N 
ATOM     11  C   UNL     1       2.392   5.871  19.695  0.00  0.00    +0.000 A 
ATOM     12  C   UNL     1       1.509   5.327  18.768  0.00  0.00    +0.000 A 
ATOM     13  C   UNL     1       1.814   4.114  18.149  0.00  0.00    +0.000 A 
ATOM     14  C   UNL     1       2.993   3.446  18.478  0.00  0.00    +0.000 A 
ATOM     15  C   UNL     1       3.815   4.052  19.412  0.00  0.00    +0.000 A 
ATOM     16  N   UNL     1       3.539   5.238  20.015  0.00  0.00    +0.000 NA
ATOM     17  H   UNL     1       2.959   7.231  20.962  0.00  0.00    +0.000 HD
BRANCH  14  18
ATOM     18  C   UNL     1       3.372   2.130  17.871  0.00  0.00    +0.000 C 
ATOM     19  F   UNL     1       4.456   2.205  17.050  0.00  0.00    +0.000 F 
ATOM     20  F   UNL     1       3.681   1.192  18.807  0.00  0.00    +0.000 F 
ATOM     21  F   UNL     1       2.374   1.591  17.118  0.00  0.00    +0.000 F 
ENDBRANCH  14  18
ENDBRANCH   7  10
BRANCH   1  26
ATOM     22  C   UNL     1       0.280  17.160  18.471  0.00  0.00    +0.000 C 
ATOM     23  C   UNL     1       0.311  15.803  19.109  0.00  0.00    +0.000 A 
ATOM     24  C   UNL     1       1.235  15.480  20.094  0.00  0.00    +0.000 A 
ATOM     25  C   UNL     1       1.224  14.208  20.674  0.00  0.00    +0.000 A 
ATOM     26  C   UNL     1       0.389  13.171  20.209  0.00  0.00    +0.000 A 
ATOM     27  C   UNL     1      -0.620  13.525  19.291  0.00  0.00    +0.000 A 
ATOM     28  C   UNL     1      -0.636  14.841  18.752  0.00  0.00    +0.000 A 
BRANCH  27  29
ATOM     29  N   UNL     1      -1.680  12.673  18.873  0.00  0.00    +0.000 N 
ATOM     30  N   UNL     1      -2.809  12.419  19.578  0.00  0.00    +0.000 NA
ATOM     31  C   UNL     1      -3.513  11.658  18.732  0.00  0.00    +0.000 A 
ATOM     32  C   UNL     1      -2.761  11.401  17.589  0.00  0.00    +0.000 A 
ATOM     33  N   UNL     1      -1.568  11.969  17.695  0.00  0.00    +0.000 NA
ENDBRANCH  27  29
ENDBRANCH   1  26
TORSDOF 4
ENDMDL
MODEL 5
REMARK VINA RESULT:      -7.8      2.785      3.731
REMARK  Name = 
REMARK  6 active torsions:
REMARK  status: ('A' for Active; 'I' for Inactive)
REMARK    1  A    between atoms: C_1  and  C_2
REMARK    2  A    between atoms: C_5  and  C_6
REMARK    3  A    between atoms: C_12  and  N_13
REMARK    4  A    between atoms: C_17  and  C_18
REMARK    5  A    between atoms: C_24  and  C_25
REMARK    6  A    between atoms: C_26  and  N_27
REMARK                            x       y       z     vdW  Elec       q    Type
REMARK                         _______ _______ _______ _____ _____    ______ ____
ROOT
ATOM      1  C   UNL     1      -0.777  11.751  21.928  0.00  0.00    +0.000 C 
ATOM      2  O   UNL     1      -0.430  11.553  23.090  0.00  0.00    +0.000 OA
ATOM      3  N   UNL     1      -0.242  11.042  20.804  0.00  0.00    +0.000 N 
ATOM      4  C   UNL     1      -0.331  11.603  19.454  0.00  0.00    +0.000 C 
ATOM      5  C   UNL     1      -0.462  10.560  18.369  0.00  0.00    +0.000 C 
ATOM      6  C   UNL     1       0.706   9.603  18.388  0.00  0.00    +0.000 C 
ATOM      7  C   UNL     1       0.900   8.976  19.774  0.00  0.00    +0.000 C 
ATOM      8  C   UNL     1       0.869  10.031  20.959  0.00  0.00    +0.000 C 
ATOM      9  C   UNL     1       0.861   9.224  22.270  0.00  0.00    +0.000 C 
ENDROOT
BRANCH   7  10
ATOM     10  N   UNL     1       2.177   8.243  19.767  0.00  0.00    +0.000 N 
ATOM     11  C   UNL     1       2.238   6.865  19.820  0.00  0.00    +0.000 A 
ATOM     12  C   UNL     1       1.405   6.093  20.623  0.00  0.00    +0.000 A 
ATOM     13  C   UNL     1       1.583   4.710  20.680  0.00  0.00    +0.000 A 
ATOM     14  C   UNL     1       2.607   4.113  19.947  0.00  0.00    +0.000 A 
ATOM     15  C   UNL     1       3.395   4.951  19.177  0.00  0.00    +0.000 A 
ATOM     16  N   UNL     1       3.228   6.297  19.100  0.00  0.00    +0.000 NA
ATOM     17  H   UNL     1       2.848   8.547  19.062  0.00  0.00    +0.000 HD
BRANCH  14  18
ATOM     18  C   UNL     1       2.871   2.639  19.980  0.00  0.00    +0.000 C 
ATOM     19  F   UNL     1       3.734   2.265  20.964  0.00  0.00    +0.000 F 
ATOM     20  F   UNL     1       1.740   1.909  20.184  0.00  0.00    +0.000 F 
ATOM     21  F   UNL     1       3.410   2.176  18.819  0.00  0.00    +0.000 F 
ENDBRANCH  14  18
ENDBRANCH   7  10
BRANCH   1  26
ATOM     22  C   UNL     1      -4.941  15.813  21.235  0.00  0.00    +0.000 C 
ATOM     23  C   UNL     1      -3.862  14.779  21.367  0.00  0.00    +0.000 A 
ATOM     24  C   UNL     1      -4.154  13.423  21.431  0.00  0.00    +0.000 A 
ATOM     25  C   UNL     1      -3.118  12.489  21.542  0.00  0.00    +0.000 A 
ATOM     26  C   UNL     1      -1.773  12.868  21.727  0.00  0.00    +0.000 A 
ATOM     27  C   UNL     1      -1.462  14.232  21.553  0.00  0.00    +0.000 A 
ATOM     28  C   UNL     1      -2.520  15.167  21.380  0.00  0.00    +0.000 A 
BRANCH  27  29
ATOM     29  N   UNL     1      -0.146  14.769  21.491  0.00  0.00    +0.000 N 
ATOM     30  N   UNL     1       0.586  14.927  20.361  0.00  0.00    +0.000 NA
ATOM     31  C   UNL     1       1.682  15.548  20.812  0.00  0.00    +0.000 A 
ATOM     32  C   UNL     1       1.623  15.665  22.198  0.00  0.00    +0.000 A 
ATOM     33  N   UNL     1       0.510  15.107  22.652  0.00  0.00    +0.000 NA
ENDBRANCH  27  29
ENDBRANCH   1  26
TORSDOF 4
ENDMDL
MODEL 6
REMARK VINA RESULT:      -7.8      5.480      9.878
REMARK  Name = 
REMARK  6 active torsions:
REMARK  status: ('A' for Active; 'I' for Inactive)
REMARK    1  A    between atoms: C_1  and  C_2
REMARK    2  A    between atoms: C_5  and  C_6
REMARK    3  A    between atoms: C_12  and  N_13
REMARK    4  A    between atoms: C_17  and  C_18
REMARK    5  A    between atoms: C_24  and  C_25
REMARK    6  A    between atoms: C_26  and  N_27
REMARK                            x       y       z     vdW  Elec       q    Type
REMARK                         _______ _______ _______ _____ _____    ______ ____
ROOT
ATOM      1  C   UNL     1       2.779   7.262  17.917  0.00  0.00    +0.000 C 
ATOM      2  O   UNL     1       3.151   7.866  16.915  0.00  0.00    +0.000 OA
ATOM      3  N   UNL     1       2.171   7.894  19.050  0.00  0.00    +0.000 N 
ATOM      4  C   UNL     1       2.169   7.239  20.360  0.00  0.00    +0.000 C 
ATOM      5  C   UNL     1       0.952   7.558  21.198  0.00  0.00    +0.000 C 
ATOM      6  C   UNL     1       0.825   9.044  21.431  0.00  0.00    +0.000 C 
ATOM      7  C   UNL     1       0.842   9.827  20.113  0.00  0.00    +0.000 C 
ATOM      8  C   UNL     1       2.011   9.393  19.132  0.00  0.00    +0.000 C 
ATOM      9  C   UNL     1       1.756  10.112  17.794  0.00  0.00    +0.000 C 
ENDROOT
BRANCH   7  10
ATOM     10  N   UNL     1       0.942  11.261  20.436  0.00  0.00    +0.000 N 
ATOM     11  C   UNL     1      -0.085  11.954  21.042  0.00  0.00    +0.000 A 
ATOM     12  C   UNL     1      -1.426  11.769  20.723  0.00  0.00    +0.000 A 
ATOM     13  C   UNL     1      -2.400  12.567  21.325  0.00  0.00    +0.000 A 
ATOM     14  C   UNL     1      -2.020  13.558  22.228  0.00  0.00    +0.000 A 
ATOM     15  C   UNL     1      -0.666  13.683  22.488  0.00  0.00    +0.000 A 
ATOM     16  N   UNL     1       0.293  12.906  21.921  0.00  0.00    +0.000 NA
ATOM     17  H   UNL     1       1.808  11.542  20.895  0.00  0.00    +0.000 HD
BRANCH  14  18
ATOM     18  C   UNL     1      -3.008  14.467  22.893  0.00  0.00    +0.000 C 
ATOM     19  F   UNL     1      -2.698  15.787  22.771  0.00  0.00    +0.000 F 
ATOM     20  F   UNL     1      -4.265  14.335  22.386  0.00  0.00    +0.000 F 
ATOM     21  F   UNL     1      -3.119  14.234  24.230  0.00  0.00    +0.000 F 
ENDBRANCH  14  18
ENDBRANCH   7  10
BRANCH   1  26
ATOM     22  C   UNL     1       3.506   1.449  17.939  0.00  0.00    +0.000 C 
ATOM     23  C   UNL     1       3.339   2.939  17.977  0.00  0.00    +0.000 A 
ATOM     24  C   UNL     1       2.097   3.531  18.163  0.00  0.00    +0.000 A 
ATOM     25  C   UNL     1       1.984   4.925  18.205  0.00  0.00    +0.000 A 
ATOM     26  C   UNL     1       3.072   5.780  17.931  0.00  0.00    +0.000 A 
ATOM     27  C   UNL     1       4.349   5.188  17.852  0.00  0.00    +0.000 A 
ATOM     28  C   UNL     1       4.457   3.770  17.872  0.00  0.00    +0.000 A 
BRANCH  27  29
ATOM     29  N   UNL     1       5.578   5.901  17.794  0.00  0.00    +0.000 N 
ATOM     30  N   UNL     1       5.964   6.723  16.788  0.00  0.00    +0.000 NA
ATOM     31  C   UNL     1       7.121   7.215  17.245  0.00  0.00    +0.000 A 
ATOM     32  C   UNL     1       7.445   6.615  18.459  0.00  0.00    +0.000 A 
ATOM     33  N   UNL     1       6.518   5.723  18.783  0.00  0.00    +0.000 NA
ENDBRANCH  27  29
ENDBRANCH   1  26
TORSDOF 4
ENDMDL
MODEL 7
REMARK VINA RESULT:      -7.6      2.103      2.468
REMARK  Name = 
REMARK  6 active torsions:
REMARK  status: ('A' for Active; 'I' for Inactive)
REMARK    1  A    between atoms: C_1  and  C_2
REMARK    2  A    between atoms: C_5  and  C_6
REMARK    3  A    between atoms: C_12  and  N_13
REMARK    4  A    between atoms: C_17  and  C_18
REMARK    5  A    between atoms: C_24  and  C_25
REMARK    6  A    between atoms: C_26  and  N_27
REMARK                            x       y       z     vdW  Elec       q    Type
REMARK                         _______ _______ _______ _____ _____    ______ ____
ROOT
ATOM      1  C   UNL     1       0.215  11.821  19.997  0.00  0.00    +0.000 C 
ATOM      2  O   UNL     1       0.290  12.432  18.935  0.00  0.00    +0.000 OA
ATOM      3  N   UNL     1       0.612  10.454  20.162  0.00  0.00    +0.000 N 
ATOM      4  C   UNL     1       0.095   9.654  21.274  0.00  0.00    +0.000 C 
ATOM      5  C   UNL     1       1.068   8.615  21.780  0.00  0.00    +0.000 C 
ATOM      6  C   UNL     1       1.469   7.661  20.680  0.00  0.00    +0.000 C 
ATOM      7  C   UNL     1       2.004   8.407  19.452  0.00  0.00    +0.000 C 
ATOM      8  C   UNL     1       1.088   9.620  18.996  0.00  0.00    +0.000 C 
ATOM      9  C   UNL     1       1.868  10.379  17.906  0.00  0.00    +0.000 C 
ENDROOT
BRANCH   7  10
ATOM     10  N   UNL     1       2.155   7.433  18.357  0.00  0.00    +0.000 N 
ATOM     11  C   UNL     1       2.483   6.112  18.585  0.00  0.00    +0.000 A 
ATOM     12  C   UNL     1       3.418   5.708  19.533  0.00  0.00    +0.000 A 
ATOM     13  C   UNL     1       3.752   4.358  19.646  0.00  0.00    +0.000 A 
ATOM     14  C   UNL     1       3.162   3.425  18.796  0.00  0.00    +0.000 A 
ATOM     15  C   UNL     1       2.246   3.908  17.876  0.00  0.00    +0.000 A 
ATOM     16  N   UNL     1       1.900   5.217  17.761  0.00  0.00    +0.000 NA
ATOM     17  H   UNL     1       1.409   7.443  17.662  0.00  0.00    +0.000 HD
BRANCH  14  18
ATOM     18  C   UNL     1       3.491   1.965  18.845  0.00  0.00    +0.000 C 
ATOM     19  F   UNL     1       4.491   1.665  19.720  0.00  0.00    +0.000 F 
ATOM     20  F   UNL     1       2.430   1.201  19.221  0.00  0.00    +0.000 F 
ATOM     21  F   UNL     1       3.895   1.476  17.641  0.00  0.00    +0.000 F 
ENDBRANCH  14  18
ENDBRANCH   7  10
BRANCH   1  26
ATOM     22  C   UNL     1      -2.482  14.471  24.472  0.00  0.00    +0.000 C 
ATOM     23  C   UNL     1      -1.801  13.831  23.299  0.00  0.00    +0.000 A 
ATOM     24  C   UNL     1      -2.384  12.783  22.598  0.00  0.00    +0.000 A 
ATOM     25  C   UNL     1      -1.722  12.220  21.501  0.00  0.00    +0.000 A 
ATOM     26  C   UNL     1      -0.407  12.582  21.144  0.00  0.00    +0.000 A 
ATOM     27  C   UNL     1       0.141  13.714  21.780  0.00  0.00    +0.000 A 
ATOM     28  C   UNL     1      -0.569  14.317  22.855  0.00  0.00    +0.000 A 
BRANCH  27  29
ATOM     29  N   UNL     1       1.356  14.353  21.406  0.00  0.00    +0.000 N 
ATOM     30  N   UNL     1       2.572  14.109  21.951  0.00  0.00    +0.000 NA
ATOM     31  C   UNL     1       3.381  14.872  21.206  0.00  0.00    +0.000 A 
ATOM     32  C   UNL     1       2.628  15.617  20.302  0.00  0.00    +0.000 A 
ATOM     33  N   UNL     1       1.338  15.360  20.468  0.00  0.00    +0.000 NA
ENDBRANCH  27  29
ENDBRANCH   1  26
TORSDOF 4
ENDMDL
MODEL 8
REMARK VINA RESULT:      -7.5      1.041      1.159
REMARK  Name = 
REMARK  6 active torsions:
REMARK  status: ('A' for Active; 'I' for Inactive)
REMARK    1  A    between atoms: C_1  and  C_2
REMARK    2  A    between atoms: C_5  and  C_6
REMARK    3  A    between atoms: C_12  and  N_13
REMARK    4  A    between atoms: C_17  and  C_18
REMARK    5  A    between atoms: C_24  and  C_25
REMARK    6  A    between atoms: C_26  and  N_27
REMARK                            x       y       z     vdW  Elec       q    Type
REMARK                         _______ _______ _______ _____ _____    ______ ____
ROOT
ATOM      1  C   UNL     1      -0.601  11.665  20.472  0.00  0.00    +0.000 C 
ATOM      2  O   UNL     1      -1.051  11.978  19.373  0.00  0.00    +0.000 OA
ATOM      3  N   UNL     1       0.106  10.445  20.726  0.00  0.00    +0.000 N 
ATOM      4  C   UNL     1       0.213   9.911  22.086  0.00  0.00    +0.000 C 
ATOM      5  C   UNL     1       1.499   9.162  22.346  0.00  0.00    +0.000 C 
ATOM      6  C   UNL     1       1.659   8.005  21.389  0.00  0.00    +0.000 C 
ATOM      7  C   UNL     1       1.538   8.458  19.929  0.00  0.00    +0.000 C 
ATOM      8  C   UNL     1       0.286   9.394  19.656  0.00  0.00    +0.000 C 
ATOM      9  C   UNL     1       0.434   9.923  18.217  0.00  0.00    +0.000 C 
ENDROOT
BRANCH   7  10
ATOM     10  N   UNL     1       1.478   7.254  19.082  0.00  0.00    +0.000 N 
ATOM     11  C   UNL     1       2.571   6.794  18.376  0.00  0.00    +0.000 A 
ATOM     12  C   UNL     1       3.465   7.631  17.717  0.00  0.00    +0.000 A 
ATOM     13  C   UNL     1       4.500   7.083  16.959  0.00  0.00    +0.000 A 
ATOM     14  C   UNL     1       4.620   5.699  16.850  0.00  0.00    +0.000 A 
ATOM     15  C   UNL     1       3.688   4.934  17.532  0.00  0.00    +0.000 A 
ATOM     16  N   UNL     1       2.682   5.452  18.285  0.00  0.00    +0.000 NA
ATOM     17  H   UNL     1       1.033   6.444  19.511  0.00  0.00    +0.000 HD
BRANCH  14  18
ATOM     18  C   UNL     1       5.690   5.042  16.034  0.00  0.00    +0.000 C 
ATOM     19  F   UNL     1       5.454   5.086  14.694  0.00  0.00    +0.000 F 
ATOM     20  F   UNL     1       6.912   5.615  16.213  0.00  0.00    +0.000 F 
ATOM     21  F   UNL     1       5.849   3.724  16.338  0.00  0.00    +0.000 F 
ENDBRANCH  14  18
ENDBRANCH   7  10
BRANCH   1  26
ATOM     22  C   UNL     1      -2.074  15.121  24.967  0.00  0.00    +0.000 C 
ATOM     23  C   UNL     1      -1.709  14.271  23.786  0.00  0.00    +0.000 A 
ATOM     24  C   UNL     1      -2.509  13.214  23.371  0.00  0.00    +0.000 A 
ATOM     25  C   UNL     1      -2.140  12.452  22.257  0.00  0.00    +0.000 A 
ATOM     26  C   UNL     1      -0.905  12.624  21.598  0.00  0.00    +0.000 A 
ATOM     27  C   UNL     1      -0.146  13.760  21.945  0.00  0.00    +0.000 A 
ATOM     28  C   UNL     1      -0.563  14.563  23.042  0.00  0.00    +0.000 A 
BRANCH  27  29
ATOM     29  N   UNL     1       1.010  14.214  21.251  0.00  0.00    +0.000 N 
ATOM     30  N   UNL     1       1.025  15.166  20.287  0.00  0.00    +0.000 NA
ATOM     31  C   UNL     1       2.332  15.297  20.031  0.00  0.00    +0.000 A 
ATOM     32  C   UNL     1       3.055  14.367  20.774  0.00  0.00    +0.000 A 
ATOM     33  N   UNL     1       2.228  13.620  21.492  0.00  0.00    +0.000 NA
ENDBRANCH  27  29
ENDBRANCH   1  26
TORSDOF 4
ENDMDL
MODEL 9
REMARK VINA RESULT:      -7.5      1.276      1.772
REMARK  Name = 
REMARK  6 active torsions:
REMARK  status: ('A' for Active; 'I' for Inactive)
REMARK    1  A    between atoms: C_1  and  C_2
REMARK    2  A    between atoms: C_5  and  C_6
REMARK    3  A    between atoms: C_12  and  N_13
REMARK    4  A    between atoms: C_17  and  C_18
REMARK    5  A    between atoms: C_24  and  C_25
REMARK    6  A    between atoms: C_26  and  N_27
REMARK                            x       y       z     vdW  Elec       q    Type
REMARK                         _______ _______ _______ _____ _____    ______ ____
ROOT
ATOM      1  C   UNL     1      -0.975  11.775  20.663  0.00  0.00    +0.000 C 
ATOM      2  O   UNL     1      -1.495  12.082  19.593  0.00  0.00    +0.000 OA
ATOM      3  N   UNL     1      -0.193  10.592  20.859  0.00  0.00    +0.000 N 
ATOM      4  C   UNL     1       0.009  10.042  22.202  0.00  0.00    +0.000 C 
ATOM      5  C   UNL     1       1.344   9.360  22.386  0.00  0.00    +0.000 C 
ATOM      6  C   UNL     1       1.518   8.228  21.401  0.00  0.00    +0.000 C 
ATOM      7  C   UNL     1       1.301   8.698  19.957  0.00  0.00    +0.000 C 
ATOM      8  C   UNL     1      -0.010   9.570  19.763  0.00  0.00    +0.000 C 
ATOM      9  C   UNL     1       0.039  10.129  18.329  0.00  0.00    +0.000 C 
ENDROOT
BRANCH   7  10
ATOM     10  N   UNL     1       1.264   7.507  19.092  0.00  0.00    +0.000 N 
ATOM     11  C   UNL     1       2.386   7.029  18.445  0.00  0.00    +0.000 A 
ATOM     12  C   UNL     1       3.337   7.853  17.852  0.00  0.00    +0.000 A 
ATOM     13  C   UNL     1       4.402   7.289  17.149  0.00  0.00    +0.000 A 
ATOM     14  C   UNL     1       4.495   5.904  17.028  0.00  0.00    +0.000 A 
ATOM     15  C   UNL     1       3.507   5.154  17.643  0.00  0.00    +0.000 A 
ATOM     16  N   UNL     1       2.470   5.686  18.342  0.00  0.00    +0.000 NA
ATOM     17  H   UNL     1       0.775   6.702  19.482  0.00  0.00    +0.000 HD
BRANCH  14  18
ATOM     18  C   UNL     1       5.597   5.231  16.268  0.00  0.00    +0.000 C 
ATOM     19  F   UNL     1       5.953   4.023  16.785  0.00  0.00    +0.000 F 
ATOM     20  F   UNL     1       5.269   4.995  14.969  0.00  0.00    +0.000 F 
ATOM     21  F   UNL     1       6.740   5.970  16.236  0.00  0.00    +0.000 F 
ENDBRANCH  14  18
ENDBRANCH   7  10
BRANCH   1  26
ATOM     22  C   UNL     1      -2.430  15.088  25.270  0.00  0.00    +0.000 C 
ATOM     23  C   UNL     1      -2.069  14.277  24.061  0.00  0.00    +0.000 A 
ATOM     24  C   UNL     1      -2.875  13.239  23.611  0.00  0.00    +0.000 A 
ATOM     25  C   UNL     1      -2.510  12.512  22.473  0.00  0.00    +0.000 A 
ATOM     26  C   UNL     1      -1.274  12.698  21.821  0.00  0.00    +0.000 A 
ATOM     27  C   UNL     1      -0.509  13.818  22.205  0.00  0.00    +0.000 A 
ATOM     28  C   UNL     1      -0.922  14.586  23.328  0.00  0.00    +0.000 A 
BRANCH  27  29
ATOM     29  N   UNL     1       0.651  14.287  21.527  0.00  0.00    +0.000 N 
ATOM     30  N   UNL     1       1.924  14.172  21.976  0.00  0.00    +0.000 NA
ATOM     31  C   UNL     1       2.635  14.667  20.955  0.00  0.00    +0.000 A 
ATOM     32  C   UNL     1       1.777  15.145  19.968  0.00  0.00    +0.000 A 
ATOM     33  N   UNL     1       0.517  14.985  20.349  0.00  0.00    +0.000 NA
ENDBRANCH  27  29
ENDBRANCH   1  26
TORSDOF 4
ENDMDL
