MODEL 1
REMARK VINA RESULT:      -8.9      0.000      0.000
REMARK  Name = 
REMARK  9 active torsions:
REMARK  status: ('A' for Active; 'I' for Inactive)
REMARK    1  A    between atoms: C_1  and  C_2
REMARK    2  A    between atoms: C_2  and  C_3
REMARK    3  A    between atoms: C_3  and  C_4
REMARK    4  A    between atoms: C_7  and  O_8
REMARK    5  A    between atoms: O_8  and  C_9
REMARK    6  A    between atoms: C_9  and  C_11
REMARK    7  A    between atoms: N_16  and  C_17
REMARK    8  A    between atoms: C_17  and  C_18
REMARK    9  A    between atoms: C_28  and  C_29
REMARK                            x       y       z     vdW  Elec       q    Type
REMARK                         _______ _______ _______ _____ _____    ______ ____
ROOT
ATOM      1  C   UNL     1       3.312   5.692  19.185  0.00  0.00    +0.000 A 
ATOM      2  S   UNL     1       2.382   5.768  20.625  0.00  0.00    +0.000 S 
ATOM      3  C   UNL     1       1.745   7.287  20.229  0.00  0.00    +0.000 A 
ATOM      4  N   UNL     1       0.898   7.929  21.072  0.00  0.00    +0.000 NA
ATOM      5  C   UNL     1       0.525   9.099  20.660  0.00  0.00    +0.000 A 
ATOM      6  N   UNL     1       0.912   9.697  19.480  0.00  0.00    +0.000 N 
ATOM      7  C   UNL     1       1.746   9.045  18.570  0.00  0.00    +0.000 A 
ATOM      8  O   UNL     1       2.065   9.528  17.491  0.00  0.00    +0.000 OA
ATOM      9  C   UNL     1       2.198   7.733  19.010  0.00  0.00    +0.000 A 
ATOM     10  C   UNL     1       3.071   6.789  18.358  0.00  0.00    +0.000 A 
ATOM     11  C   UNL     1       3.688   6.961  17.001  0.00  0.00    +0.000 C 
ENDROOT
BRANCH   1  12
ATOM     12  C   UNL     1       4.246   4.595  18.950  0.00  0.00    +0.000 C 
ATOM     13  O   UNL     1       3.995   3.408  19.126  0.00  0.00    +0.000 OA
BRANCH  12  14
ATOM     14  O   UNL     1       5.469   5.073  18.486  0.00  0.00    +0.000 OA
BRANCH  14  18
ATOM     15  C   UNL     1       6.380   4.218  14.477  0.00  0.00    +0.000 A 
ATOM     16  C   UNL     1       5.234   3.709  15.103  0.00  0.00    +0.000 A 
ATOM     17  C   UNL     1       4.951   4.036  16.429  0.00  0.00    +0.000 A 
ATOM     18  C   UNL     1       5.822   4.863  17.141  0.00  0.00    +0.000 A 
ATOM     19  C   UNL     1       6.958   5.384  16.531  0.00  0.00    +0.000 A 
ATOM     20  C   UNL     1       7.236   5.057  15.203  0.00  0.00    +0.000 A 
BRANCH  15  21
ATOM     21  C   UNL     1       6.711   3.867  13.048  0.00  0.00    +0.000 C 
BRANCH  21  23
ATOM     22  C   UNL     1       5.786   2.126  11.486  0.00  0.00    +0.000 C 
ATOM     23  C   UNL     1       5.486   3.398  12.262  0.00  0.00    +0.000 C 
ENDBRANCH  21  23
ENDBRANCH  15  21
ENDBRANCH  14  18
ENDBRANCH  12  14
ENDBRANCH   1  12
BRANCH   6  24
ATOM     24  C   UNL     1       0.379  10.992  19.100  0.00  0.00    +0.000 C 
BRANCH  24  25
ATOM     25  C   UNL     1      -1.068  10.949  18.659  0.00  0.00    +0.000 A 
ATOM     26  C   UNL     1      -2.028  11.779  19.264  0.00  0.00    +0.000 A 
ATOM     27  C   UNL     1      -3.347  11.807  18.797  0.00  0.00    +0.000 A 
ATOM     28  C   UNL     1      -3.720  11.004  17.721  0.00  0.00    +0.000 A 
ATOM     29  C   UNL     1      -2.778  10.165  17.139  0.00  0.00    +0.000 A 
ATOM     30  F   UNL     1      -3.130   9.404  16.095  0.00  0.00    +0.000 F 
ATOM     31  C   UNL     1      -1.465  10.120  17.604  0.00  0.00    +0.000 A 
ENDBRANCH  24  25
ENDBRANCH   6  24
TORSDOF 7
ENDMDL
MODEL 2
REMARK VINA RESULT:      -8.8      3.353     10.008
REMARK  Name = 
REMARK  9 active torsions:
REMARK  status: ('A' for Active; 'I' for Inactive)
REMARK    1  A    between atoms: C_1  and  C_2
REMARK    2  A    between atoms: C_2  and  C_3
REMARK    3  A    between atoms: C_3  and  C_4
REMARK    4  A    between atoms: C_7  and  O_8
REMARK    5  A    between atoms: O_8  and  C_9
REMARK    6  A    between atoms: C_9  and  C_11
REMARK    7  A    between atoms: N_16  and  C_17
REMARK    8  A    between atoms: C_17  and  C_18
REMARK    9  A    between atoms: C_28  and  C_29
REMARK                            x       y       z     vdW  Elec       q    Type
REMARK                         _______ _______ _______ _____ _____    ______ ____
ROOT
ATOM      1  C   UNL     1       0.644  10.510  20.038  0.00  0.00    +0.000 A 
ATOM      2  S   UNL     1       1.384  10.655  18.497  0.00  0.00    +0.000 S 
ATOM      3  C   UNL     1       1.953   9.060  18.530  0.00  0.00    +0.000 A 
ATOM      4  N   UNL     1       2.699   8.564  17.511  0.00  0.00    +0.000 NA
ATOM      5  C   UNL     1       3.101   7.346  17.692  0.00  0.00    +0.000 A 
ATOM      6  N   UNL     1       2.828   6.565  18.794  0.00  0.00    +0.000 N 
ATOM      7  C   UNL     1       2.027   7.029  19.838  0.00  0.00    +0.000 A 
ATOM      8  O   UNL     1       1.724   6.340  20.805  0.00  0.00    +0.000 OA
ATOM      9  C   UNL     1       1.572   8.401  19.675  0.00  0.00    +0.000 A 
ATOM     10  C   UNL     1       0.758   9.215  20.544  0.00  0.00    +0.000 A 
ATOM     11  C   UNL     1       0.148   8.771  21.840  0.00  0.00    +0.000 C 
ENDROOT
BRANCH   1  12
ATOM     12  C   UNL     1       0.026  11.662  20.687  0.00  0.00    +0.000 C 
ATOM     13  O   UNL     1       0.071  11.901  21.889  0.00  0.00    +0.000 OA
BRANCH  12  14
ATOM     14  O   UNL     1      -0.622  12.471  19.756  0.00  0.00    +0.000 OA
BRANCH  14  18
ATOM     15  C   UNL     1      -4.673  11.903  18.804  0.00  0.00    +0.000 A 
ATOM     16  C   UNL     1      -3.642  11.454  17.966  0.00  0.00    +0.000 A 
ATOM     17  C   UNL     1      -2.308  11.638  18.329  0.00  0.00    +0.000 A 
ATOM     18  C   UNL     1      -1.997  12.285  19.526  0.00  0.00    +0.000 A 
ATOM     19  C   UNL     1      -3.008  12.728  20.373  0.00  0.00    +0.000 A 
ATOM     20  C   UNL     1      -4.341  12.538  20.009  0.00  0.00    +0.000 A 
BRANCH  15  21
ATOM     21  C   UNL     1      -6.121  11.724  18.425  0.00  0.00    +0.000 C 
BRANCH  21  23
ATOM     22  C   UNL     1      -6.971   9.579  19.425  0.00  0.00    +0.000 C 
ATOM     23  C   UNL     1      -6.946  11.094  19.547  0.00  0.00    +0.000 C 
ENDBRANCH  21  23
ENDBRANCH  15  21
ENDBRANCH  14  18
ENDBRANCH  12  14
ENDBRANCH   1  12
BRANCH   6  24
ATOM     24  C   UNL     1       3.289   5.189  18.854  0.00  0.00    +0.000 C 
BRANCH  24  25
ATOM     25  C   UNL     1       4.691   4.993  18.323  0.00  0.00    +0.000 A 
ATOM     26  C   UNL     1       4.906   4.448  17.044  0.00  0.00    +0.000 A 
ATOM     27  C   UNL     1       6.197   4.351  16.515  0.00  0.00    +0.000 A 
ATOM     28  C   UNL     1       7.288   4.796  17.258  0.00  0.00    +0.000 A 
ATOM     29  C   UNL     1       7.080   5.311  18.531  0.00  0.00    +0.000 A 
ATOM     30  F   UNL     1       8.126   5.753  19.241  0.00  0.00    +0.000 F 
ATOM     31  C   UNL     1       5.800   5.401  19.073  0.00  0.00    +0.000 A 
ENDBRANCH  24  25
ENDBRANCH   6  24
TORSDOF 7
ENDMDL
MODEL 3
REMARK VINA RESULT:      -8.7      4.191     10.035
REMARK  Name = 
REMARK  9 active torsions:
REMARK  status: ('A' for Active; 'I' for Inactive)
REMARK    1  A    between atoms: C_1  and  C_2
REMARK    2  A    between atoms: C_2  and  C_3
REMARK    3  A    between atoms: C_3  and  C_4
REMARK    4  A    between atoms: C_7  and  O_8
REMARK    5  A    between atoms: O_8  and  C_9
REMARK    6  A    between atoms: C_9  and  C_11
REMARK    7  A    between atoms: N_16  and  C_17
REMARK    8  A    between atoms: C_17  and  C_18
REMARK    9  A    between atoms: C_28  and  C_29
REMARK                            x       y       z     vdW  Elec       q    Type
REMARK                         _______ _______ _______ _____ _____    ______ ____
ROOT
ATOM      1  C   UNL     1      -0.222  11.190  20.212  0.00  0.00    +0.000 A 
ATOM      2  S   UNL     1       0.362  11.279  18.601  0.00  0.00    +0.000 S 
ATOM      3  C   UNL     1       1.205   9.816  18.741  0.00  0.00    +0.000 A 
ATOM      4  N   UNL     1       1.948   9.338  17.711  0.00  0.00    +0.000 NA
ATOM      5  C   UNL     1       2.572   8.234  17.975  0.00  0.00    +0.000 A 
ATOM      6  N   UNL     1       2.526   7.550  19.171  0.00  0.00    +0.000 N 
ATOM      7  C   UNL     1       1.736   7.990  20.233  0.00  0.00    +0.000 A 
ATOM      8  O   UNL     1       1.634   7.377  21.289  0.00  0.00    +0.000 OA
ATOM      9  C   UNL     1       1.034   9.239  19.977  0.00  0.00    +0.000 A 
ATOM     10  C   UNL     1       0.157   9.999  20.833  0.00  0.00    +0.000 A 
ATOM     11  C   UNL     1      -0.265   9.611  22.219  0.00  0.00    +0.000 C 
ENDROOT
BRANCH   1  12
ATOM     12  C   UNL     1      -0.983  12.289  20.798  0.00  0.00    +0.000 C 
ATOM     13  O   UNL     1      -0.947  12.620  21.978  0.00  0.00    +0.000 OA
BRANCH  12  14
ATOM     14  O   UNL     1      -1.759  12.927  19.833  0.00  0.00    +0.000 OA
BRANCH  14  18
ATOM     15  C   UNL     1      -5.712  11.580  19.393  0.00  0.00    +0.000 A 
ATOM     16  C   UNL     1      -5.304  12.335  20.501  0.00  0.00    +0.000 A 
ATOM     17  C   UNL     1      -3.988  12.787  20.600  0.00  0.00    +0.000 A 
ATOM     18  C   UNL     1      -3.069  12.474  19.596  0.00  0.00    +0.000 A 
ATOM     19  C   UNL     1      -3.461  11.734  18.486  0.00  0.00    +0.000 A 
ATOM     20  C   UNL     1      -4.779  11.287  18.389  0.00  0.00    +0.000 A 
BRANCH  15  21
ATOM     21  C   UNL     1      -7.127  11.071  19.272  0.00  0.00    +0.000 C 
BRANCH  21  23
ATOM     22  C   UNL     1      -7.911   9.560  21.123  0.00  0.00    +0.000 C 
ATOM     23  C   UNL     1      -7.837  10.993  20.623  0.00  0.00    +0.000 C 
ENDBRANCH  21  23
ENDBRANCH  15  21
ENDBRANCH  14  18
ENDBRANCH  12  14
ENDBRANCH   1  12
BRANCH   6  24
ATOM     24  C   UNL     1       3.226   6.287  19.325  0.00  0.00    +0.000 C 
BRANCH  24  25
ATOM     25  C   UNL     1       2.319   5.078  19.263  0.00  0.00    +0.000 A 
ATOM     26  C   UNL     1       1.873   4.577  18.027  0.00  0.00    +0.000 A 
ATOM     27  C   UNL     1       1.110   3.406  17.962  0.00  0.00    +0.000 A 
ATOM     28  C   UNL     1       0.784   2.724  19.132  0.00  0.00    +0.000 A 
ATOM     29  C   UNL     1       1.203   3.231  20.355  0.00  0.00    +0.000 A 
ATOM     30  F   UNL     1       0.904   2.569  21.480  0.00  0.00    +0.000 F 
ATOM     31  C   UNL     1       1.952   4.403  20.433  0.00  0.00    +0.000 A 
ENDBRANCH  24  25
ENDBRANCH   6  24
TORSDOF 7
ENDMDL
MODEL 4
REMARK VINA RESULT:      -8.7      4.415      8.975
REMARK  Name = 
REMARK  9 active torsions:
REMARK  status: ('A' for Active; 'I' for Inactive)
REMARK    1  A    between atoms: C_1  and  C_2
REMARK    2  A    between atoms: C_2  and  C_3
REMARK    3  A    between atoms: C_3  and  C_4
REMARK    4  A    between atoms: C_7  and  O_8
REMARK    5  A    between atoms: O_8  and  C_9
REMARK    6  A    between atoms: C_9  and  C_11
REMARK    7  A    between atoms: N_16  and  C_17
REMARK    8  A    between atoms: C_17  and  C_18
REMARK    9  A    between atoms: C_28  and  C_29
REMARK                            x       y       z     vdW  Elec       q    Type
REMARK                         _______ _______ _______ _____ _____    ______ ____
ROOT
ATOM      1  C   UNL     1      -0.570  11.276  20.272  0.00  0.00    +0.000 A 
ATOM      2  S   UNL     1      -0.240  11.162  18.592  0.00  0.00    +0.000 S 
ATOM      3  C   UNL     1       0.712   9.775  18.793  0.00  0.00    +0.000 A 
ATOM      4  N   UNL     1       1.324   9.190  17.732  0.00  0.00    +0.000 NA
ATOM      5  C   UNL     1       2.054   8.165  18.040  0.00  0.00    +0.000 A 
ATOM      6  N   UNL     1       2.233   7.657  19.308  0.00  0.00    +0.000 N 
ATOM      7  C   UNL     1       1.582   8.207  20.413  0.00  0.00    +0.000 A 
ATOM      8  O   UNL     1       1.679   7.746  21.544  0.00  0.00    +0.000 OA
ATOM      9  C   UNL     1       0.767   9.372  20.106  0.00  0.00    +0.000 A 
ATOM     10  C   UNL     1      -0.023  10.205  20.979  0.00  0.00    +0.000 A 
ATOM     11  C   UNL     1      -0.208   9.999  22.453  0.00  0.00    +0.000 C 
ENDROOT
BRANCH   1  12
ATOM     12  C   UNL     1      -1.309  12.411  20.817  0.00  0.00    +0.000 C 
ATOM     13  O   UNL     1      -2.529  12.535  20.788  0.00  0.00    +0.000 OA
BRANCH  12  14
ATOM     14  O   UNL     1      -0.445  13.340  21.390  0.00  0.00    +0.000 OA
BRANCH  14  18
ATOM     15  C   UNL     1       2.469  15.014  18.871  0.00  0.00    +0.000 A 
ATOM     16  C   UNL     1       1.115  15.368  18.779  0.00  0.00    +0.000 A 
ATOM     17  C   UNL     1       0.181  14.810  19.651  0.00  0.00    +0.000 A 
ATOM     18  C   UNL     1       0.592  13.883  20.610  0.00  0.00    +0.000 A 
ATOM     19  C   UNL     1       1.933  13.529  20.720  0.00  0.00    +0.000 A 
ATOM     20  C   UNL     1       2.865  14.092  19.850  0.00  0.00    +0.000 A 
BRANCH  15  21
ATOM     21  C   UNL     1       3.494  15.596  17.931  0.00  0.00    +0.000 C 
BRANCH  21  23
ATOM     22  C   UNL     1       5.832  14.678  17.803  0.00  0.00    +0.000 C 
ATOM     23  C   UNL     1       4.896  15.623  18.538  0.00  0.00    +0.000 C 
ENDBRANCH  21  23
ENDBRANCH  15  21
ENDBRANCH  14  18
ENDBRANCH  12  14
ENDBRANCH   1  12
BRANCH   6  24
ATOM     24  C   UNL     1       3.032   6.463  19.518  0.00  0.00    +0.000 C 
BRANCH  24  25
ATOM     25  C   UNL     1       2.234   5.179  19.460  0.00  0.00    +0.000 A 
ATOM     26  C   UNL     1       1.940   4.572  18.227  0.00  0.00    +0.000 A 
ATOM     27  C   UNL     1       1.282   3.338  18.175  0.00  0.00    +0.000 A 
ATOM     28  C   UNL     1       0.910   2.699  19.355  0.00  0.00    +0.000 A 
ATOM     29  C   UNL     1       1.178   3.310  20.574  0.00  0.00    +0.000 A 
ATOM     30  F   UNL     1       0.835   2.691  21.711  0.00  0.00    +0.000 F 
ATOM     31  C   UNL     1       1.821   4.544  20.637  0.00  0.00    +0.000 A 
ENDBRANCH  24  25
ENDBRANCH   6  24
TORSDOF 7
ENDMDL
MODEL 5
REMARK VINA RESULT:      -8.7      3.857      5.794
REMARK  Name = 
REMARK  9 active torsions:
REMARK  status: ('A' for Active; 'I' for Inactive)
REMARK    1  A    between atoms: C_1  and  C_2
REMARK    2  A    between atoms: C_2  and  C_3
REMARK    3  A    between atoms: C_3  and  C_4
REMARK    4  A    between atoms: C_7  and  O_8
REMARK    5  A    between atoms: O_8  and  C_9
REMARK    6  A    between atoms: C_9  and  C_11
REMARK    7  A    between atoms: N_16  and  C_17
REMARK    8  A    between atoms: C_17  and  C_18
REMARK    9  A    between atoms: C_28  and  C_29
REMARK                            x       y       z     vdW  Elec       q    Type
REMARK                         _______ _______ _______ _____ _____    ______ ____
ROOT
ATOM      1  C   UNL     1       0.566   9.627  19.942  0.00  0.00    +0.000 A 
ATOM      2  S   UNL     1       0.643   9.469  21.649  0.00  0.00    +0.000 S 
ATOM      3  C   UNL     1      -0.524  10.672  21.893  0.00  0.00    +0.000 A 
ATOM      4  N   UNL     1      -0.890  11.043  23.146  0.00  0.00    +0.000 NA
ATOM      5  C   UNL     1      -1.760  12.004  23.181  0.00  0.00    +0.000 A 
ATOM      6  N   UNL     1      -2.308  12.632  22.084  0.00  0.00    +0.000 N 
ATOM      7  C   UNL     1      -1.987  12.243  20.784  0.00  0.00    +0.000 A 
ATOM      8  O   UNL     1      -2.497  12.747  19.790  0.00  0.00    +0.000 OA
ATOM      9  C   UNL     1      -0.999  11.178  20.707  0.00  0.00    +0.000 A 
ATOM     10  C   UNL     1      -0.415  10.540  19.553  0.00  0.00    +0.000 A 
ATOM     11  C   UNL     1      -0.759  10.833  18.123  0.00  0.00    +0.000 C 
ENDROOT
BRANCH   1  12
ATOM     12  C   UNL     1       1.479   8.887  19.076  0.00  0.00    +0.000 C 
ATOM     13  O   UNL     1       1.597   9.059  17.868  0.00  0.00    +0.000 OA
BRANCH  12  14
ATOM     14  O   UNL     1       2.214   7.956  19.806  0.00  0.00    +0.000 OA
BRANCH  14  18
ATOM     15  C   UNL     1       1.901   3.826  19.117  0.00  0.00    +0.000 A 
ATOM     16  C   UNL     1       1.539   4.404  20.342  0.00  0.00    +0.000 A 
ATOM     17  C   UNL     1       1.633   5.784  20.524  0.00  0.00    +0.000 A 
ATOM     18  C   UNL     1       2.102   6.591  19.487  0.00  0.00    +0.000 A 
ATOM     19  C   UNL     1       2.456   6.034  18.263  0.00  0.00    +0.000 A 
ATOM     20  C   UNL     1       2.358   4.654  18.083  0.00  0.00    +0.000 A 
BRANCH  15  21
ATOM     21  C   UNL     1       1.818   2.335  18.903  0.00  0.00    +0.000 C 
BRANCH  21  23
ATOM     22  C   UNL     1       4.200   2.021  19.646  0.00  0.00    +0.000 C 
ATOM     23  C   UNL     1       3.175   1.717  18.567  0.00  0.00    +0.000 C 
ENDBRANCH  21  23
ENDBRANCH  15  21
ENDBRANCH  14  18
ENDBRANCH  12  14
ENDBRANCH   1  12
BRANCH   6  24
ATOM     24  C   UNL     1      -3.320  13.659  22.253  0.00  0.00    +0.000 C 
BRANCH  24  25
ATOM     25  C   UNL     1      -4.702  13.112  22.533  0.00  0.00    +0.000 A 
ATOM     26  C   UNL     1      -5.199  13.053  23.847  0.00  0.00    +0.000 A 
ATOM     27  C   UNL     1      -6.510  12.633  24.099  0.00  0.00    +0.000 A 
ATOM     28  C   UNL     1      -7.337  12.265  23.041  0.00  0.00    +0.000 A 
ATOM     29  C   UNL     1      -6.839  12.297  21.744  0.00  0.00    +0.000 A 
ATOM     30  F   UNL     1      -7.636  11.959  20.723  0.00  0.00    +0.000 F 
ATOM     31  C   UNL     1      -5.532  12.702  21.483  0.00  0.00    +0.000 A 
ENDBRANCH  24  25
ENDBRANCH   6  24
TORSDOF 7
ENDMDL
MODEL 6
REMARK VINA RESULT:      -8.6      2.511      3.113
REMARK  Name = 
REMARK  9 active torsions:
REMARK  status: ('A' for Active; 'I' for Inactive)
REMARK    1  A    between atoms: C_1  and  C_2
REMARK    2  A    between atoms: C_2  and  C_3
REMARK    3  A    between atoms: C_3  and  C_4
REMARK    4  A    between atoms: C_7  and  O_8
REMARK    5  A    between atoms: O_8  and  C_9
REMARK    6  A    between atoms: C_9  and  C_11
REMARK    7  A    between atoms: N_16  and  C_17
REMARK    8  A    between atoms: C_17  and  C_18
REMARK    9  A    between atoms: C_28  and  C_29
REMARK                            x       y       z     vdW  Elec       q    Type
REMARK                         _______ _______ _______ _____ _____    ______ ____
ROOT
ATOM      1  C   UNL     1       1.946   7.099  19.501  0.00  0.00    +0.000 A 
ATOM      2  S   UNL     1       1.371   6.813  21.092  0.00  0.00    +0.000 S 
ATOM      3  C   UNL     1       0.897   8.427  21.297  0.00  0.00    +0.000 A 
ATOM      4  N   UNL     1       0.357   8.852  22.467  0.00  0.00    +0.000 NA
ATOM      5  C   UNL     1       0.083  10.118  22.496  0.00  0.00    +0.000 A 
ATOM      6  N   UNL     1       0.291  11.009  21.465  0.00  0.00    +0.000 N 
ATOM      7  C   UNL     1       0.802  10.595  20.234  0.00  0.00    +0.000 A 
ATOM      8  O   UNL     1       0.948  11.353  19.283  0.00  0.00    +0.000 OA
ATOM      9  C   UNL     1       1.137   9.181  20.173  0.00  0.00    +0.000 A 
ATOM     10  C   UNL     1       1.698   8.410  19.092  0.00  0.00    +0.000 A 
ATOM     11  C   UNL     1       2.026   8.930  17.724  0.00  0.00    +0.000 C 
ENDROOT
BRANCH   1  12
ATOM     12  C   UNL     1       2.633   6.052  18.751  0.00  0.00    +0.000 C 
ATOM     13  O   UNL     1       2.081   5.119  18.179  0.00  0.00    +0.000 OA
BRANCH  12  14
ATOM     14  O   UNL     1       4.011   6.256  18.759  0.00  0.00    +0.000 OA
BRANCH  14  18
ATOM     15  C   UNL     1       6.133   5.082  15.331  0.00  0.00    +0.000 A 
ATOM     16  C   UNL     1       5.404   6.278  15.380  0.00  0.00    +0.000 A 
ATOM     17  C   UNL     1       4.733   6.647  16.545  0.00  0.00    +0.000 A 
ATOM     18  C   UNL     1       4.776   5.814  17.665  0.00  0.00    +0.000 A 
ATOM     19  C   UNL     1       5.503   4.628  17.635  0.00  0.00    +0.000 A 
ATOM     20  C   UNL     1       6.176   4.265  16.469  0.00  0.00    +0.000 A 
BRANCH  15  21
ATOM     21  C   UNL     1       6.856   4.659  14.077  0.00  0.00    +0.000 C 
BRANCH  21  23
ATOM     22  C   UNL     1       6.718   3.403  11.903  0.00  0.00    +0.000 C 
ATOM     23  C   UNL     1       6.045   3.672  13.239  0.00  0.00    +0.000 C 
ENDBRANCH  21  23
ENDBRANCH  15  21
ENDBRANCH  14  18
ENDBRANCH  12  14
ENDBRANCH   1  12
BRANCH   6  24
ATOM     24  C   UNL     1      -0.113  12.397  21.598  0.00  0.00    +0.000 C 
BRANCH  24  25
ATOM     25  C   UNL     1      -1.611  12.590  21.679  0.00  0.00    +0.000 A 
ATOM     26  C   UNL     1      -2.382  12.725  20.511  0.00  0.00    +0.000 A 
ATOM     27  C   UNL     1      -3.777  12.811  20.579  0.00  0.00    +0.000 A 
ATOM     28  C   UNL     1      -4.416  12.766  21.816  0.00  0.00    +0.000 A 
ATOM     29  C   UNL     1      -3.654  12.658  22.973  0.00  0.00    +0.000 A 
ATOM     30  F   UNL     1      -4.266  12.599  24.162  0.00  0.00    +0.000 F 
ATOM     31  C   UNL     1      -2.264  12.584  22.917  0.00  0.00    +0.000 A 
ENDBRANCH  24  25
ENDBRANCH   6  24
TORSDOF 7
ENDMDL
MODEL 7
REMARK VINA RESULT:      -8.5      3.416      9.753
REMARK  Name = 
REMARK  9 active torsions:
REMARK  status: ('A' for Active; 'I' for Inactive)
REMARK    1  A    between atoms: C_1  and  C_2
REMARK    2  A    between atoms: C_2  and  C_3
REMARK    3  A    between atoms: C_3  and  C_4
REMARK    4  A    between atoms: C_7  and  O_8
REMARK    5  A    between atoms: O_8  and  C_9
REMARK    6  A    between atoms: C_9  and  C_11
REMARK    7  A    between atoms: N_16  and  C_17
REMARK    8  A    between atoms: C_17  and  C_18
REMARK    9  A    between atoms: C_28  and  C_29
REMARK                            x       y       z     vdW  Elec       q    Type
REMARK                         _______ _______ _______ _____ _____    ______ ____
ROOT
ATOM      1  C   UNL     1       0.647  10.190  20.533  0.00  0.00    +0.000 A 
ATOM      2  S   UNL     1       0.621   8.850  21.605  0.00  0.00    +0.000 S 
ATOM      3  C   UNL     1       1.434   7.851  20.504  0.00  0.00    +0.000 A 
ATOM      4  N   UNL     1       1.695   6.553  20.802  0.00  0.00    +0.000 NA
ATOM      5  C   UNL     1       2.283   5.899  19.851  0.00  0.00    +0.000 A 
ATOM      6  N   UNL     1       2.643   6.414  18.624  0.00  0.00    +0.000 N 
ATOM      7  C   UNL     1       2.430   7.755  18.305  0.00  0.00    +0.000 A 
ATOM      8  O   UNL     1       2.786   8.254  17.244  0.00  0.00    +0.000 OA
ATOM      9  C   UNL     1       1.755   8.516  19.345  0.00  0.00    +0.000 A 
ATOM     10  C   UNL     1       1.353   9.901  19.365  0.00  0.00    +0.000 A 
ATOM     11  C   UNL     1       1.603  10.900  18.274  0.00  0.00    +0.000 C 
ENDROOT
BRANCH   1  12
ATOM     12  C   UNL     1      -0.044  11.432  20.865  0.00  0.00    +0.000 C 
ATOM     13  O   UNL     1      -0.153  11.896  21.995  0.00  0.00    +0.000 OA
BRANCH  12  14
ATOM     14  O   UNL     1      -0.562  12.035  19.721  0.00  0.00    +0.000 OA
BRANCH  14  18
ATOM     15  C   UNL     1      -4.631  11.751  18.721  0.00  0.00    +0.000 A 
ATOM     16  C   UNL     1      -3.639  11.073  17.999  0.00  0.00    +0.000 A 
ATOM     17  C   UNL     1      -2.300  11.172  18.377  0.00  0.00    +0.000 A 
ATOM     18  C   UNL     1      -1.944  11.960  19.472  0.00  0.00    +0.000 A 
ATOM     19  C   UNL     1      -2.917  12.631  20.206  0.00  0.00    +0.000 A 
ATOM     20  C   UNL     1      -4.256  12.527  19.827  0.00  0.00    +0.000 A 
BRANCH  15  21
ATOM     21  C   UNL     1      -6.082  11.668  18.322  0.00  0.00    +0.000 C 
BRANCH  21  23
ATOM     22  C   UNL     1      -7.336  10.657  20.254  0.00  0.00    +0.000 C 
ATOM     23  C   UNL     1      -6.768  10.414  18.865  0.00  0.00    +0.000 C 
ENDBRANCH  21  23
ENDBRANCH  15  21
ENDBRANCH  14  18
ENDBRANCH  12  14
ENDBRANCH   1  12
BRANCH   6  24
ATOM     24  C   UNL     1       3.352   5.592  17.660  0.00  0.00    +0.000 C 
BRANCH  24  25
ATOM     25  C   UNL     1       4.858   5.707  17.752  0.00  0.00    +0.000 A 
ATOM     26  C   UNL     1       5.616   6.126  16.644  0.00  0.00    +0.000 A 
ATOM     27  C   UNL     1       6.997   6.321  16.754  0.00  0.00    +0.000 A 
ATOM     28  C   UNL     1       7.635   6.098  17.971  0.00  0.00    +0.000 A 
ATOM     29  C   UNL     1       6.892   5.660  19.060  0.00  0.00    +0.000 A 
ATOM     30  F   UNL     1       7.501   5.459  20.236  0.00  0.00    +0.000 F 
ATOM     31  C   UNL     1       5.518   5.450  18.959  0.00  0.00    +0.000 A 
ENDBRANCH  24  25
ENDBRANCH   6  24
TORSDOF 7
ENDMDL
MODEL 8
REMARK VINA RESULT:      -8.4      3.014      9.467
REMARK  Name = 
REMARK  9 active torsions:
REMARK  status: ('A' for Active; 'I' for Inactive)
REMARK    1  A    between atoms: C_1  and  C_2
REMARK    2  A    between atoms: C_2  and  C_3
REMARK    3  A    between atoms: C_3  and  C_4
REMARK    4  A    between atoms: C_7  and  O_8
REMARK    5  A    between atoms: O_8  and  C_9
REMARK    6  A    between atoms: C_9  and  C_11
REMARK    7  A    between atoms: N_16  and  C_17
REMARK    8  A    between atoms: C_17  and  C_18
REMARK    9  A    between atoms: C_28  and  C_29
REMARK                            x       y       z     vdW  Elec       q    Type
REMARK                         _______ _______ _______ _____ _____    ______ ____
ROOT
ATOM      1  C   UNL     1       1.122   9.474  20.244  0.00  0.00    +0.000 A 
ATOM      2  S   UNL     1       0.961   8.262  21.448  0.00  0.00    +0.000 S 
ATOM      3  C   UNL     1       1.646   7.072  20.455  0.00  0.00    +0.000 A 
ATOM      4  N   UNL     1       1.766   5.791  20.884  0.00  0.00    +0.000 NA
ATOM      5  C   UNL     1       2.266   4.981  20.005  0.00  0.00    +0.000 A 
ATOM      6  N   UNL     1       2.666   5.325  18.731  0.00  0.00    +0.000 N 
ATOM      7  C   UNL     1       2.598   6.642  18.276  0.00  0.00    +0.000 A 
ATOM      8  O   UNL     1       2.994   6.988  17.169  0.00  0.00    +0.000 OA
ATOM      9  C   UNL     1       2.024   7.575  19.233  0.00  0.00    +0.000 A 
ATOM     10  C   UNL     1       1.778   8.991  19.111  0.00  0.00    +0.000 A 
ATOM     11  C   UNL     1       2.122   9.840  17.923  0.00  0.00    +0.000 C 
ENDROOT
BRANCH   1  12
ATOM     12  C   UNL     1       0.577  10.813  20.447  0.00  0.00    +0.000 C 
ATOM     13  O   UNL     1       0.529  11.397  21.524  0.00  0.00    +0.000 OA
BRANCH  12  14
ATOM     14  O   UNL     1       0.120  11.353  19.247  0.00  0.00    +0.000 OA
BRANCH  14  18
ATOM     15  C   UNL     1      -3.918  11.088  18.126  0.00  0.00    +0.000 A 
ATOM     16  C   UNL     1      -2.943  10.233  17.595  0.00  0.00    +0.000 A 
ATOM     17  C   UNL     1      -1.615  10.335  18.012  0.00  0.00    +0.000 A 
ATOM     18  C   UNL     1      -1.254  11.301  18.951  0.00  0.00    +0.000 A 
ATOM     19  C   UNL     1      -2.212  12.151  19.494  0.00  0.00    +0.000 A 
ATOM     20  C   UNL     1      -3.539  12.045  19.078  0.00  0.00    +0.000 A 
BRANCH  15  21
ATOM     21  C   UNL     1      -5.357  11.004  17.681  0.00  0.00    +0.000 C 
BRANCH  21  23
ATOM     22  C   UNL     1      -7.209  12.703  17.607  0.00  0.00    +0.000 C 
ATOM     23  C   UNL     1      -6.278  11.904  18.503  0.00  0.00    +0.000 C 
ENDBRANCH  21  23
ENDBRANCH  15  21
ENDBRANCH  14  18
ENDBRANCH  12  14
ENDBRANCH   1  12
BRANCH   6  24
ATOM     24  C   UNL     1       3.268   4.336  17.856  0.00  0.00    +0.000 C 
BRANCH  24  25
ATOM     25  C   UNL     1       4.752   4.536  17.641  0.00  0.00    +0.000 A 
ATOM     26  C   UNL     1       5.600   4.840  18.721  0.00  0.00    +0.000 A 
ATOM     27  C   UNL     1       6.984   4.934  18.539  0.00  0.00    +0.000 A 
ATOM     28  C   UNL     1       7.535   4.729  17.277  0.00  0.00    +0.000 A 
ATOM     29  C   UNL     1       6.696   4.454  16.204  0.00  0.00    +0.000 A 
ATOM     30  F   UNL     1       7.225   4.241  14.993  0.00  0.00    +0.000 F 
ATOM     31  C   UNL     1       5.316   4.369  16.370  0.00  0.00    +0.000 A 
ENDBRANCH  24  25
ENDBRANCH   6  24
TORSDOF 7
ENDMDL
MODEL 9
REMARK VINA RESULT:      -8.4      4.410     11.366
REMARK  Name = 
REMARK  9 active torsions:
REMARK  status: ('A' for Active; 'I' for Inactive)
REMARK    1  A    between atoms: C_1  and  C_2
REMARK    2  A    between atoms: C_2  and  C_3
REMARK    3  A    between atoms: C_3  and  C_4
REMARK    4  A    between atoms: C_7  and  O_8
REMARK    5  A    between atoms: O_8  and  C_9
REMARK    6  A    between atoms: C_9  and  C_11
REMARK    7  A    between atoms: N_16  and  C_17
REMARK    8  A    between atoms: C_17  and  C_18
REMARK    9  A    between atoms: C_28  and  C_29
REMARK                            x       y       z     vdW  Elec       q    Type
REMARK                         _______ _______ _______ _____ _____    ______ ____
ROOT
ATOM      1  C   UNL     1      -0.697  11.441  20.240  0.00  0.00    +0.000 A 
ATOM      2  S   UNL     1      -0.297  11.345  18.574  0.00  0.00    +0.000 S 
ATOM      3  C   UNL     1       0.651   9.959  18.799  0.00  0.00    +0.000 A 
ATOM      4  N   UNL     1       1.308   9.388  17.759  0.00  0.00    +0.000 NA
ATOM      5  C   UNL     1       2.028   8.361  18.085  0.00  0.00    +0.000 A 
ATOM      6  N   UNL     1       2.156   7.840  19.355  0.00  0.00    +0.000 N 
ATOM      7  C   UNL     1       1.458   8.376  20.437  0.00  0.00    +0.000 A 
ATOM      8  O   UNL     1       1.509   7.903  21.567  0.00  0.00    +0.000 OA
ATOM      9  C   UNL     1       0.652   9.542  20.109  0.00  0.00    +0.000 A 
ATOM     10  C   UNL     1      -0.176  10.363  20.958  0.00  0.00    +0.000 A 
ATOM     11  C   UNL     1      -0.421  10.141  22.421  0.00  0.00    +0.000 C 
ENDROOT
BRANCH   1  12
ATOM     12  C   UNL     1      -1.462  12.567  20.767  0.00  0.00    +0.000 C 
ATOM     13  O   UNL     1      -0.992  13.662  21.056  0.00  0.00    +0.000 OA
BRANCH  12  14
ATOM     14  O   UNL     1      -2.810  12.240  20.891  0.00  0.00    +0.000 OA
BRANCH  14  18
ATOM     15  C   UNL     1      -5.455  14.700  23.032  0.00  0.00    +0.000 A 
ATOM     16  C   UNL     1      -4.852  13.576  23.613  0.00  0.00    +0.000 A 
ATOM     17  C   UNL     1      -3.959  12.797  22.877  0.00  0.00    +0.000 A 
ATOM     18  C   UNL     1      -3.674  13.131  21.552  0.00  0.00    +0.000 A 
ATOM     19  C   UNL     1      -4.256  14.249  20.965  0.00  0.00    +0.000 A 
ATOM     20  C   UNL     1      -5.146  15.028  21.705  0.00  0.00    +0.000 A 
BRANCH  15  21
ATOM     21  C   UNL     1      -6.433  15.549  23.806  0.00  0.00    +0.000 C 
BRANCH  21  23
ATOM     22  C   UNL     1      -4.680  16.949  24.941  0.00  0.00    +0.000 C 
ATOM     23  C   UNL     1      -5.912  16.965  24.052  0.00  0.00    +0.000 C 
ENDBRANCH  21  23
ENDBRANCH  15  21
ENDBRANCH  14  18
ENDBRANCH  12  14
ENDBRANCH   1  12
BRANCH   6  24
ATOM     24  C   UNL     1       2.949   6.647  19.585  0.00  0.00    +0.000 C 
BRANCH  24  25
ATOM     25  C   UNL     1       2.178   5.358  19.402  0.00  0.00    +0.000 A 
ATOM     26  C   UNL     1       1.926   4.847  18.116  0.00  0.00    +0.000 A 
ATOM     27  C   UNL     1       1.294   3.611  17.948  0.00  0.00    +0.000 A 
ATOM     28  C   UNL     1       0.904   2.873  19.063  0.00  0.00    +0.000 A 
ATOM     29  C   UNL     1       1.128   3.388  20.333  0.00  0.00    +0.000 A 
ATOM     30  F   UNL     1       0.768   2.674  21.407  0.00  0.00    +0.000 F 
ATOM     31  C   UNL     1       1.746   4.624  20.513  0.00  0.00    +0.000 A 
ENDBRANCH  24  25
ENDBRANCH   6  24
TORSDOF 7
ENDMDL
