MODEL 1
REMARK VINA RESULT:      -7.0      0.000      0.000
REMARK  Name = 
REMARK  8 active torsions:
REMARK  status: ('A' for Active; 'I' for Inactive)
REMARK    1  A    between atoms: C_1  and  C_2
REMARK    2  A    between atoms: C_2  and  O_3
REMARK    3  A    between atoms: O_3  and  C_4
REMARK    4  A    between atoms: C_4  and  C_6
REMARK    5  A    between atoms: C_7  and  C_8
REMARK    6  A    between atoms: C_13  and  C_14
REMARK    7  A    between atoms: C_19  and  O_20
REMARK    8  A    between atoms: O_20  and  C_21
REMARK                            x       y       z     vdW  Elec       q    Type
REMARK                         _______ _______ _______ _____ _____    ______ ____
ROOT
ATOM      1  C   UNL     1       4.420   5.845  18.656  0.00  0.00    +0.000 C 
ATOM      2  C   UNL     1       4.528   6.632  17.562  0.00  0.00    +0.000 C 
ATOM      3  C   UNL     1       5.560   6.564  16.467  0.00  0.00    +0.000 C 
ATOM      4  N   UNL     1       3.606   7.637  17.375  0.00  0.00    +0.000 N 
ATOM      5  C   UNL     1       2.530   7.877  18.172  0.00  0.00    +0.000 C 
ATOM      6  S   UNL     1       1.446   9.084  17.826  0.00  0.00    +0.000 S 
ATOM      7  N   UNL     1       2.368   7.069  19.240  0.00  0.00    +0.000 N 
ATOM      8  C   UNL     1       3.318   6.054  19.680  0.00  0.00    +0.000 C 
ATOM      9  H   UNL     1       3.692   8.249  16.567  0.00  0.00    +0.000 HD
ATOM     10  H   UNL     1       1.553   7.237  19.817  0.00  0.00    +0.000 HD
ENDROOT
BRANCH   8  11
ATOM     11  C   UNL     1       2.513   4.827  20.078  0.00  0.00    +0.000 A 
ATOM     12  C   UNL     1       2.643   4.377  21.418  0.00  0.00    +0.000 A 
ATOM     13  C   UNL     1       1.992   3.235  21.881  0.00  0.00    +0.000 A 
ATOM     14  C   UNL     1       1.182   2.516  21.015  0.00  0.00    +0.000 A 
ATOM     15  C   UNL     1       1.037   2.938  19.693  0.00  0.00    +0.000 A 
ATOM     16  C   UNL     1       1.691   4.085  19.210  0.00  0.00    +0.000 A 
BRANCH  16  17
ATOM     17  O   UNL     1       1.548   4.245  17.859  0.00  0.00    +0.000 OA
ATOM     18  C   UNL     1       2.319   3.435  16.983  0.00  0.00    +0.000 C 
ENDBRANCH  16  17
ENDBRANCH   8  11
BRANCH   1  19
ATOM     19  C   UNL     1       5.455   4.795  18.929  0.00  0.00    +0.000 C 
ATOM     20  O   UNL     1       5.378   3.631  18.571  0.00  0.00    +0.000 OA
BRANCH  19  21
ATOM     21  O   UNL     1       6.444   5.316  19.682  0.00  0.00    +0.000 OA
BRANCH  21  23
ATOM     22  C   UNL     1       8.107   6.838  18.745  0.00  0.00    +0.000 C 
ATOM     23  C   UNL     1       7.759   5.414  19.124  0.00  0.00    +0.000 C 
ENDBRANCH  21  23
ENDBRANCH  19  21
ENDBRANCH   1  19
TORSDOF 5
ENDMDL
MODEL 2
REMARK VINA RESULT:      -6.6      0.928      1.918
REMARK  Name = 
REMARK  8 active torsions:
REMARK  status: ('A' for Active; 'I' for Inactive)
REMARK    1  A    between atoms: C_1  and  C_2
REMARK    2  A    between atoms: C_2  and  O_3
REMARK    3  A    between atoms: O_3  and  C_4
REMARK    4  A    between atoms: C_4  and  C_6
REMARK    5  A    between atoms: C_7  and  C_8
REMARK    6  A    between atoms: C_13  and  C_14
REMARK    7  A    between atoms: C_19  and  O_20
REMARK    8  A    between atoms: O_20  and  C_21
REMARK                            x       y       z     vdW  Elec       q    Type
REMARK                         _______ _______ _______ _____ _____    ______ ____
ROOT
ATOM      1  C   UNL     1       4.383   5.792  18.764  0.00  0.00    +0.000 C 
ATOM      2  C   UNL     1       4.555   6.570  17.671  0.00  0.00    +0.000 C 
ATOM      3  C   UNL     1       5.622   6.463  16.614  0.00  0.00    +0.000 C 
ATOM      4  N   UNL     1       3.675   7.604  17.450  0.00  0.00    +0.000 N 
ATOM      5  C   UNL     1       2.580   7.883  18.208  0.00  0.00    +0.000 C 
ATOM      6  S   UNL     1       1.549   9.125  17.821  0.00  0.00    +0.000 S 
ATOM      7  N   UNL     1       2.354   7.085  19.272  0.00  0.00    +0.000 N 
ATOM      8  C   UNL     1       3.254   6.041  19.748  0.00  0.00    +0.000 C 
ATOM      9  H   UNL     1       3.809   8.210  16.643  0.00  0.00    +0.000 HD
ATOM     10  H   UNL     1       1.525   7.283  19.820  0.00  0.00    +0.000 HD
ENDROOT
BRANCH   8  11
ATOM     11  C   UNL     1       2.394   4.844  20.121  0.00  0.00    +0.000 A 
ATOM     12  C   UNL     1       2.563   4.311  21.426  0.00  0.00    +0.000 A 
ATOM     13  C   UNL     1       1.865   3.185  21.860  0.00  0.00    +0.000 A 
ATOM     14  C   UNL     1       0.970   2.565  21.001  0.00  0.00    +0.000 A 
ATOM     15  C   UNL     1       0.786   3.071  19.714  0.00  0.00    +0.000 A 
ATOM     16  C   UNL     1       1.485   4.203  19.259  0.00  0.00    +0.000 A 
BRANCH  16  17
ATOM     17  O   UNL     1       1.286   4.448  17.928  0.00  0.00    +0.000 OA
ATOM     18  C   UNL     1       2.036   3.715  16.971  0.00  0.00    +0.000 C 
ENDBRANCH  16  17
ENDBRANCH   8  11
BRANCH   1  19
ATOM     19  C   UNL     1       5.372   4.709  19.076  0.00  0.00    +0.000 C 
ATOM     20  O   UNL     1       6.414   4.873  19.691  0.00  0.00    +0.000 OA
BRANCH  19  21
ATOM     21  O   UNL     1       4.970   3.551  18.518  0.00  0.00    +0.000 OA
BRANCH  21  23
ATOM     22  C   UNL     1       3.872   1.375  18.665  0.00  0.00    +0.000 C 
ATOM     23  C   UNL     1       4.699   2.431  19.368  0.00  0.00    +0.000 C 
ENDBRANCH  21  23
ENDBRANCH  19  21
ENDBRANCH   1  19
TORSDOF 5
ENDMDL
MODEL 3
REMARK VINA RESULT:      -6.5      2.740      5.260
REMARK  Name = 
REMARK  8 active torsions:
REMARK  status: ('A' for Active; 'I' for Inactive)
REMARK    1  A    between atoms: C_1  and  C_2
REMARK    2  A    between atoms: C_2  and  O_3
REMARK    3  A    between atoms: O_3  and  C_4
REMARK    4  A    between atoms: C_4  and  C_6
REMARK    5  A    between atoms: C_7  and  C_8
REMARK    6  A    between atoms: C_13  and  C_14
REMARK    7  A    between atoms: C_19  and  O_20
REMARK    8  A    between atoms: O_20  and  C_21
REMARK                            x       y       z     vdW  Elec       q    Type
REMARK                         _______ _______ _______ _____ _____    ______ ____
ROOT
ATOM      1  C   UNL     1       2.978   4.517  18.737  0.00  0.00    +0.000 C 
ATOM      2  C   UNL     1       3.947   3.710  18.251  0.00  0.00    +0.000 C 
ATOM      3  C   UNL     1       3.788   2.451  17.440  0.00  0.00    +0.000 C 
ATOM      4  N   UNL     1       5.262   4.030  18.500  0.00  0.00    +0.000 N 
ATOM      5  C   UNL     1       5.692   5.147  19.146  0.00  0.00    +0.000 C 
ATOM      6  S   UNL     1       7.308   5.467  19.347  0.00  0.00    +0.000 S 
ATOM      7  N   UNL     1       4.745   5.999  19.591  0.00  0.00    +0.000 N 
ATOM      8  C   UNL     1       3.308   5.754  19.553  0.00  0.00    +0.000 C 
ATOM      9  H   UNL     1       5.999   3.417  18.159  0.00  0.00    +0.000 HD
ATOM     10  H   UNL     1       5.071   6.840  20.051  0.00  0.00    +0.000 HD
ENDROOT
BRANCH   8  11
ATOM     11  C   UNL     1       2.643   7.053  19.127  0.00  0.00    +0.000 A 
ATOM     12  C   UNL     1       2.939   7.532  17.824  0.00  0.00    +0.000 A 
ATOM     13  C   UNL     1       2.426   8.736  17.345  0.00  0.00    +0.000 A 
ATOM     14  C   UNL     1       1.593   9.492  18.156  0.00  0.00    +0.000 A 
ATOM     15  C   UNL     1       1.287   9.043  19.441  0.00  0.00    +0.000 A 
ATOM     16  C   UNL     1       1.799   7.833  19.940  0.00  0.00    +0.000 A 
BRANCH  16  17
ATOM     17  O   UNL     1       1.513   7.644  21.264  0.00  0.00    +0.000 OA
ATOM     18  C   UNL     1       1.115   8.758  22.050  0.00  0.00    +0.000 C 
ENDBRANCH  16  17
ENDBRANCH   8  11
BRANCH   1  19
ATOM     19  C   UNL     1       1.535   4.151  18.552  0.00  0.00    +0.000 C 
ATOM     20  O   UNL     1       0.961   4.104  17.476  0.00  0.00    +0.000 OA
BRANCH  19  21
ATOM     21  O   UNL     1       0.960   3.950  19.753  0.00  0.00    +0.000 OA
BRANCH  21  23
ATOM     22  C   UNL     1       1.811   2.779  21.719  0.00  0.00    +0.000 C 
ATOM     23  C   UNL     1       1.105   2.672  20.384  0.00  0.00    +0.000 C 
ENDBRANCH  21  23
ENDBRANCH  19  21
ENDBRANCH   1  19
TORSDOF 5
ENDMDL
MODEL 4
REMARK VINA RESULT:      -6.4      1.697      5.160
REMARK  Name = 
REMARK  8 active torsions:
REMARK  status: ('A' for Active; 'I' for Inactive)
REMARK    1  A    between atoms: C_1  and  C_2
REMARK    2  A    between atoms: C_2  and  O_3
REMARK    3  A    between atoms: O_3  and  C_4
REMARK    4  A    between atoms: C_4  and  C_6
REMARK    5  A    between atoms: C_7  and  C_8
REMARK    6  A    between atoms: C_13  and  C_14
REMARK    7  A    between atoms: C_19  and  O_20
REMARK    8  A    between atoms: O_20  and  C_21
REMARK                            x       y       z     vdW  Elec       q    Type
REMARK                         _______ _______ _______ _____ _____    ______ ____
ROOT
ATOM      1  C   UNL     1       3.387   4.517  18.866  0.00  0.00    +0.000 C 
ATOM      2  C   UNL     1       2.836   5.206  19.890  0.00  0.00    +0.000 C 
ATOM      3  C   UNL     1       2.628   4.750  21.310  0.00  0.00    +0.000 C 
ATOM      4  N   UNL     1       2.392   6.488  19.663  0.00  0.00    +0.000 N 
ATOM      5  C   UNL     1       2.521   7.170  18.493  0.00  0.00    +0.000 C 
ATOM      6  S   UNL     1       1.998   8.738  18.340  0.00  0.00    +0.000 S 
ATOM      7  N   UNL     1       3.119   6.525  17.471  0.00  0.00    +0.000 N 
ATOM      8  C   UNL     1       3.515   5.121  17.478  0.00  0.00    +0.000 C 
ATOM      9  H   UNL     1       1.956   7.007  20.421  0.00  0.00    +0.000 HD
ATOM     10  H   UNL     1       3.232   7.044  16.609  0.00  0.00    +0.000 HD
ENDROOT
BRANCH   8  11
ATOM     11  C   UNL     1       4.882   5.036  16.818  0.00  0.00    +0.000 A 
ATOM     12  C   UNL     1       4.964   4.320  15.596  0.00  0.00    +0.000 A 
ATOM     13  C   UNL     1       6.173   4.135  14.928  0.00  0.00    +0.000 A 
ATOM     14  C   UNL     1       7.335   4.672  15.461  0.00  0.00    +0.000 A 
ATOM     15  C   UNL     1       7.280   5.381  16.662  0.00  0.00    +0.000 A 
ATOM     16  C   UNL     1       6.069   5.573  17.350  0.00  0.00    +0.000 A 
BRANCH  16  17
ATOM     17  O   UNL     1       6.244   6.155  18.575  0.00  0.00    +0.000 OA
ATOM     18  C   UNL     1       7.183   5.590  19.480  0.00  0.00    +0.000 C 
ENDBRANCH  16  17
ENDBRANCH   8  11
BRANCH   1  19
ATOM     19  C   UNL     1       3.805   3.090  19.061  0.00  0.00    +0.000 C 
ATOM     20  O   UNL     1       4.820   2.734  19.638  0.00  0.00    +0.000 OA
BRANCH  19  21
ATOM     21  O   UNL     1       2.928   2.271  18.448  0.00  0.00    +0.000 OA
BRANCH  21  23
ATOM     22  C   UNL     1       0.521   2.478  18.800  0.00  0.00    +0.000 C 
ATOM     23  C   UNL     1       1.807   1.778  19.189  0.00  0.00    +0.000 C 
ENDBRANCH  21  23
ENDBRANCH  19  21
ENDBRANCH   1  19
TORSDOF 5
ENDMDL
MODEL 5
REMARK VINA RESULT:      -6.4      2.842      4.151
REMARK  Name = 
REMARK  8 active torsions:
REMARK  status: ('A' for Active; 'I' for Inactive)
REMARK    1  A    between atoms: C_1  and  C_2
REMARK    2  A    between atoms: C_2  and  O_3
REMARK    3  A    between atoms: O_3  and  C_4
REMARK    4  A    between atoms: C_4  and  C_6
REMARK    5  A    between atoms: C_7  and  C_8
REMARK    6  A    between atoms: C_13  and  C_14
REMARK    7  A    between atoms: C_19  and  O_20
REMARK    8  A    between atoms: O_20  and  C_21
REMARK                            x       y       z     vdW  Elec       q    Type
REMARK                         _______ _______ _______ _____ _____    ______ ____
ROOT
ATOM      1  C   UNL     1       4.813   5.487  17.045  0.00  0.00    +0.000 C 
ATOM      2  C   UNL     1       5.635   4.425  17.200  0.00  0.00    +0.000 C 
ATOM      3  C   UNL     1       7.121   4.358  16.964  0.00  0.00    +0.000 C 
ATOM      4  N   UNL     1       5.099   3.229  17.622  0.00  0.00    +0.000 N 
ATOM      5  C   UNL     1       3.801   3.028  17.974  0.00  0.00    +0.000 C 
ATOM      6  S   UNL     1       3.269   1.555  18.524  0.00  0.00    +0.000 S 
ATOM      7  N   UNL     1       2.972   4.088  17.883  0.00  0.00    +0.000 N 
ATOM      8  C   UNL     1       3.322   5.385  17.316  0.00  0.00    +0.000 C 
ATOM      9  H   UNL     1       5.706   2.418  17.720  0.00  0.00    +0.000 HD
ATOM     10  H   UNL     1       2.011   3.939  18.167  0.00  0.00    +0.000 HD
ENDROOT
BRANCH   8  11
ATOM     11  C   UNL     1       2.716   6.448  18.219  0.00  0.00    +0.000 A 
ATOM     12  C   UNL     1       2.346   7.676  17.610  0.00  0.00    +0.000 A 
ATOM     13  C   UNL     1       1.828   8.739  18.348  0.00  0.00    +0.000 A 
ATOM     14  C   UNL     1       1.656   8.599  19.717  0.00  0.00    +0.000 A 
ATOM     15  C   UNL     1       2.012   7.401  20.338  0.00  0.00    +0.000 A 
ATOM     16  C   UNL     1       2.540   6.321  19.609  0.00  0.00    +0.000 A 
BRANCH  16  17
ATOM     17  O   UNL     1       2.969   5.300  20.413  0.00  0.00    +0.000 OA
ATOM     18  C   UNL     1       2.009   4.536  21.129  0.00  0.00    +0.000 C 
ENDBRANCH  16  17
ENDBRANCH   8  11
BRANCH   1  19
ATOM     19  C   UNL     1       5.351   6.779  16.508  0.00  0.00    +0.000 C 
ATOM     20  O   UNL     1       5.265   7.140  15.345  0.00  0.00    +0.000 OA
BRANCH  19  21
ATOM     21  O   UNL     1       5.998   7.444  17.485  0.00  0.00    +0.000 OA
BRANCH  21  23
ATOM     22  C   UNL     1       8.219   7.563  18.492  0.00  0.00    +0.000 C 
ATOM     23  C   UNL     1       7.361   7.830  17.273  0.00  0.00    +0.000 C 
ENDBRANCH  21  23
ENDBRANCH  19  21
ENDBRANCH   1  19
TORSDOF 5
ENDMDL
MODEL 6
REMARK VINA RESULT:      -6.3      1.895      4.958
REMARK  Name = 
REMARK  8 active torsions:
REMARK  status: ('A' for Active; 'I' for Inactive)
REMARK    1  A    between atoms: C_1  and  C_2
REMARK    2  A    between atoms: C_2  and  O_3
REMARK    3  A    between atoms: O_3  and  C_4
REMARK    4  A    between atoms: C_4  and  C_6
REMARK    5  A    between atoms: C_7  and  C_8
REMARK    6  A    between atoms: C_13  and  C_14
REMARK    7  A    between atoms: C_19  and  O_20
REMARK    8  A    between atoms: O_20  and  C_21
REMARK                            x       y       z     vdW  Elec       q    Type
REMARK                         _______ _______ _______ _____ _____    ______ ____
ROOT
ATOM      1  C   UNL     1       3.335   3.745  19.789  0.00  0.00    +0.000 C 
ATOM      2  C   UNL     1       2.527   4.105  20.811  0.00  0.00    +0.000 C 
ATOM      3  C   UNL     1       2.057   3.260  21.966  0.00  0.00    +0.000 C 
ATOM      4  N   UNL     1       2.041   5.392  20.849  0.00  0.00    +0.000 N 
ATOM      5  C   UNL     1       2.361   6.381  19.972  0.00  0.00    +0.000 C 
ATOM      6  S   UNL     1       1.761   7.919  20.141  0.00  0.00    +0.000 S 
ATOM      7  N   UNL     1       3.213   6.063  18.975  0.00  0.00    +0.000 N 
ATOM      8  C   UNL     1       3.707   4.721  18.687  0.00  0.00    +0.000 C 
ATOM      9  H   UNL     1       1.414   5.667  21.602  0.00  0.00    +0.000 HD
ATOM     10  H   UNL     1       3.465   6.808  18.338  0.00  0.00    +0.000 HD
ENDROOT
BRANCH   8  11
ATOM     11  C   UNL     1       5.186   4.850  18.357  0.00  0.00    +0.000 A 
ATOM     12  C   UNL     1       6.012   5.470  19.330  0.00  0.00    +0.000 A 
ATOM     13  C   UNL     1       7.373   5.686  19.115  0.00  0.00    +0.000 A 
ATOM     14  C   UNL     1       7.946   5.278  17.920  0.00  0.00    +0.000 A 
ATOM     15  C   UNL     1       7.155   4.666  16.948  0.00  0.00    +0.000 A 
ATOM     16  C   UNL     1       5.781   4.444  17.148  0.00  0.00    +0.000 A 
BRANCH  16  17
ATOM     17  O   UNL     1       5.152   3.977  16.027  0.00  0.00    +0.000 OA
ATOM     18  C   UNL     1       5.628   4.379  14.750  0.00  0.00    +0.000 C 
ENDBRANCH  16  17
ENDBRANCH   8  11
BRANCH   1  19
ATOM     19  C   UNL     1       3.813   2.328  19.676  0.00  0.00    +0.000 C 
ATOM     20  O   UNL     1       4.867   1.910  20.128  0.00  0.00    +0.000 OA
BRANCH  19  21
ATOM     21  O   UNL     1       2.939   1.610  18.944  0.00  0.00    +0.000 OA
BRANCH  21  23
ATOM     22  C   UNL     1       0.590   2.193  18.624  0.00  0.00    +0.000 C 
ATOM     23  C   UNL     1       2.008   2.302  18.104  0.00  0.00    +0.000 C 
ENDBRANCH  21  23
ENDBRANCH  19  21
ENDBRANCH   1  19
TORSDOF 5
ENDMDL
MODEL 7
REMARK VINA RESULT:      -6.3      2.548      4.947
REMARK  Name = 
REMARK  8 active torsions:
REMARK  status: ('A' for Active; 'I' for Inactive)
REMARK    1  A    between atoms: C_1  and  C_2
REMARK    2  A    between atoms: C_2  and  O_3
REMARK    3  A    between atoms: O_3  and  C_4
REMARK    4  A    between atoms: C_4  and  C_6
REMARK    5  A    between atoms: C_7  and  C_8
REMARK    6  A    between atoms: C_13  and  C_14
REMARK    7  A    between atoms: C_19  and  O_20
REMARK    8  A    between atoms: O_20  and  C_21
REMARK                            x       y       z     vdW  Elec       q    Type
REMARK                         _______ _______ _______ _____ _____    ______ ____
ROOT
ATOM      1  C   UNL     1       3.084   4.380  18.811  0.00  0.00    +0.000 C 
ATOM      2  C   UNL     1       4.032   3.550  18.323  0.00  0.00    +0.000 C 
ATOM      3  C   UNL     1       3.840   2.290  17.520  0.00  0.00    +0.000 C 
ATOM      4  N   UNL     1       5.355   3.843  18.561  0.00  0.00    +0.000 N 
ATOM      5  C   UNL     1       5.813   4.954  19.199  0.00  0.00    +0.000 C 
ATOM      6  S   UNL     1       7.437   5.240  19.386  0.00  0.00    +0.000 S 
ATOM      7  N   UNL     1       4.888   5.828  19.645  0.00  0.00    +0.000 N 
ATOM      8  C   UNL     1       3.446   5.614  19.618  0.00  0.00    +0.000 C 
ATOM      9  H   UNL     1       6.076   3.213  18.218  0.00  0.00    +0.000 HD
ATOM     10  H   UNL     1       5.235   6.664  20.099  0.00  0.00    +0.000 HD
ENDROOT
BRANCH   8  11
ATOM     11  C   UNL     1       2.805   6.925  19.190  0.00  0.00    +0.000 A 
ATOM     12  C   UNL     1       1.948   7.560  20.126  0.00  0.00    +0.000 A 
ATOM     13  C   UNL     1       1.268   8.739  19.825  0.00  0.00    +0.000 A 
ATOM     14  C   UNL     1       1.436   9.321  18.578  0.00  0.00    +0.000 A 
ATOM     15  C   UNL     1       2.273   8.717  17.640  0.00  0.00    +0.000 A 
ATOM     16  C   UNL     1       2.963   7.525  17.927  0.00  0.00    +0.000 A 
BRANCH  16  17
ATOM     17  O   UNL     1       3.606   7.010  16.835  0.00  0.00    +0.000 OA
ATOM     18  C   UNL     1       4.990   7.277  16.660  0.00  0.00    +0.000 C 
ENDBRANCH  16  17
ENDBRANCH   8  11
BRANCH   1  19
ATOM     19  C   UNL     1       1.632   4.044  18.638  0.00  0.00    +0.000 C 
ATOM     20  O   UNL     1       1.058   3.969  17.563  0.00  0.00    +0.000 OA
BRANCH  19  21
ATOM     21  O   UNL     1       1.050   3.906  19.845  0.00  0.00    +0.000 OA
BRANCH  21  23
ATOM     22  C   UNL     1       1.963   2.799  21.821  0.00  0.00    +0.000 C 
ATOM     23  C   UNL     1       1.176   2.657  20.534  0.00  0.00    +0.000 C 
ENDBRANCH  21  23
ENDBRANCH  19  21
ENDBRANCH   1  19
TORSDOF 5
ENDMDL
MODEL 8
REMARK VINA RESULT:      -6.2      3.140      5.836
REMARK  Name = 
REMARK  8 active torsions:
REMARK  status: ('A' for Active; 'I' for Inactive)
REMARK    1  A    between atoms: C_1  and  C_2
REMARK    2  A    between atoms: C_2  and  O_3
REMARK    3  A    between atoms: O_3  and  C_4
REMARK    4  A    between atoms: C_4  and  C_6
REMARK    5  A    between atoms: C_7  and  C_8
REMARK    6  A    between atoms: C_13  and  C_14
REMARK    7  A    between atoms: C_19  and  O_20
REMARK    8  A    between atoms: O_20  and  C_21
REMARK                            x       y       z     vdW  Elec       q    Type
REMARK                         _______ _______ _______ _____ _____    ______ ____
ROOT
ATOM      1  C   UNL     1       3.213   4.265  18.967  0.00  0.00    +0.000 C 
ATOM      2  C   UNL     1       2.504   3.323  19.628  0.00  0.00    +0.000 C 
ATOM      3  C   UNL     1       1.008   3.196  19.742  0.00  0.00    +0.000 C 
ATOM      4  N   UNL     1       3.185   2.334  20.301  0.00  0.00    +0.000 N 
ATOM      5  C   UNL     1       4.535   2.170  20.306  0.00  0.00    +0.000 C 
ATOM      6  S   UNL     1       5.254   0.907  21.108  0.00  0.00    +0.000 S 
ATOM      7  N   UNL     1       5.262   3.065  19.605  0.00  0.00    +0.000 N 
ATOM      8  C   UNL     1       4.731   4.259  18.959  0.00  0.00    +0.000 C 
ATOM      9  H   UNL     1       2.661   1.633  20.821  0.00  0.00    +0.000 HD
ATOM     10  H   UNL     1       6.265   2.926  19.594  0.00  0.00    +0.000 HD
ENDROOT
BRANCH   8  11
ATOM     11  C   UNL     1       5.409   4.375  17.603  0.00  0.00    +0.000 A 
ATOM     12  C   UNL     1       4.605   4.139  16.458  0.00  0.00    +0.000 A 
ATOM     13  C   UNL     1       5.130   4.169  15.167  0.00  0.00    +0.000 A 
ATOM     14  C   UNL     1       6.477   4.445  14.986  0.00  0.00    +0.000 A 
ATOM     15  C   UNL     1       7.288   4.681  16.096  0.00  0.00    +0.000 A 
ATOM     16  C   UNL     1       6.775   4.651  17.405  0.00  0.00    +0.000 A 
BRANCH  16  17
ATOM     17  O   UNL     1       7.751   4.752  18.358  0.00  0.00    +0.000 OA
ATOM     18  C   UNL     1       7.898   5.974  19.068  0.00  0.00    +0.000 C 
ENDBRANCH  16  17
ENDBRANCH   8  11
BRANCH   1  19
ATOM     19  C   UNL     1       2.502   5.402  18.293  0.00  0.00    +0.000 C 
ATOM     20  O   UNL     1       1.570   5.278  17.515  0.00  0.00    +0.000 OA
BRANCH  19  21
ATOM     21  O   UNL     1       3.092   6.567  18.625  0.00  0.00    +0.000 OA
BRANCH  21  23
ATOM     22  C   UNL     1       2.223   8.714  17.853  0.00  0.00    +0.000 C 
ATOM     23  C   UNL     1       2.266   7.687  18.965  0.00  0.00    +0.000 C 
ENDBRANCH  21  23
ENDBRANCH  19  21
ENDBRANCH   1  19
TORSDOF 5
ENDMDL
MODEL 9
REMARK VINA RESULT:      -6.2      1.915      4.596
REMARK  Name = 
REMARK  8 active torsions:
REMARK  status: ('A' for Active; 'I' for Inactive)
REMARK    1  A    between atoms: C_1  and  C_2
REMARK    2  A    between atoms: C_2  and  O_3
REMARK    3  A    between atoms: O_3  and  C_4
REMARK    4  A    between atoms: C_4  and  C_6
REMARK    5  A    between atoms: C_7  and  C_8
REMARK    6  A    between atoms: C_13  and  C_14
REMARK    7  A    between atoms: C_19  and  O_20
REMARK    8  A    between atoms: O_20  and  C_21
REMARK                            x       y       z     vdW  Elec       q    Type
REMARK                         _______ _______ _______ _____ _____    ______ ____
ROOT
ATOM      1  C   UNL     1       2.565   4.351  18.533  0.00  0.00    +0.000 C 
ATOM      2  C   UNL     1       1.633   4.321  19.511  0.00  0.00    +0.000 C 
ATOM      3  C   UNL     1       0.817   3.145  19.981  0.00  0.00    +0.000 C 
ATOM      4  N   UNL     1       1.352   5.482  20.195  0.00  0.00    +0.000 N 
ATOM      5  C   UNL     1       1.989   6.671  20.022  0.00  0.00    +0.000 C 
ATOM      6  S   UNL     1       1.610   8.001  20.940  0.00  0.00    +0.000 S 
ATOM      7  N   UNL     1       2.965   6.713  19.091  0.00  0.00    +0.000 N 
ATOM      8  C   UNL     1       3.296   5.632  18.170  0.00  0.00    +0.000 C 
ATOM      9  H   UNL     1       0.636   5.475  20.917  0.00  0.00    +0.000 HD
ATOM     10  H   UNL     1       3.451   7.594  18.982  0.00  0.00    +0.000 HD
ENDROOT
BRANCH   8  11
ATOM     11  C   UNL     1       4.813   5.557  18.094  0.00  0.00    +0.000 A 
ATOM     12  C   UNL     1       5.519   5.521  19.325  0.00  0.00    +0.000 A 
ATOM     13  C   UNL     1       6.912   5.502  19.378  0.00  0.00    +0.000 A 
ATOM     14  C   UNL     1       7.638   5.508  18.197  0.00  0.00    +0.000 A 
ATOM     15  C   UNL     1       6.967   5.543  16.974  0.00  0.00    +0.000 A 
ATOM     16  C   UNL     1       5.563   5.566  16.904  0.00  0.00    +0.000 A 
BRANCH  16  17
ATOM     17  O   UNL     1       5.100   5.755  15.630  0.00  0.00    +0.000 OA
ATOM     18  C   UNL     1       5.486   4.841  14.614  0.00  0.00    +0.000 C 
ENDBRANCH  16  17
ENDBRANCH   8  11
BRANCH   1  19
ATOM     19  C   UNL     1       2.835   3.123  17.716  0.00  0.00    +0.000 C 
ATOM     20  O   UNL     1       2.071   2.658  16.885  0.00  0.00    +0.000 OA
BRANCH  19  21
ATOM     21  O   UNL     1       4.010   2.579  18.086  0.00  0.00    +0.000 OA
BRANCH  21  23
ATOM     22  C   UNL     1       4.514   2.016  20.408  0.00  0.00    +0.000 C 
ATOM     23  C   UNL     1       4.011   1.533  19.064  0.00  0.00    +0.000 C 
ENDBRANCH  21  23
ENDBRANCH  19  21
ENDBRANCH   1  19
TORSDOF 5
ENDMDL
