MODEL 1
REMARK VINA RESULT:      -6.8      0.000      0.000
REMARK  Name = 
REMARK  10 active torsions:
REMARK  status: ('A' for Active; 'I' for Inactive)
REMARK    1  A    between atoms: N_1  and  C_2
REMARK    2  A    between atoms: C_2  and  C_3
REMARK    3  A    between atoms: C_3  and  P_4
REMARK    4  A    between atoms: P_4  and  O_6
REMARK    5  A    between atoms: P_4  and  O_7
REMARK    6  A    between atoms: O_7  and  C_8
REMARK    7  A    between atoms: C_8  and  C_9
REMARK    8  A    between atoms: C_11  and  N_12
REMARK    9  A    between atoms: C_20  and  O_21
REMARK   10  A    between atoms: C_22  and  O_23
REMARK                            x       y       z     vdW  Elec       q    Type
REMARK                         _______ _______ _______ _____ _____    ______ ____
ROOT
ATOM      1  C   UNL     1       6.233   5.362  16.095  0.00  0.00    +0.000 C 
ATOM      2  O   UNL     1       4.845   5.464  16.461  0.00  0.00    +0.000 OA
ATOM      3  C   UNL     1       4.714   5.278  17.881  0.00  0.00    +0.000 C 
ATOM      4  C   UNL     1       6.046   4.720  18.399  0.00  0.00    +0.000 C 
ATOM      5  C   UNL     1       7.038   5.302  17.401  0.00  0.00    +0.000 C 
ENDROOT
BRANCH   3   6
ATOM      6  N   UNL     1       3.571   4.417  18.164  0.00  0.00    +0.000 N 
ATOM      7  C   UNL     1       3.457   3.162  17.593  0.00  0.00    +0.000 A 
ATOM      8  C   UNL     1       2.404   2.384  17.787  0.00  0.00    +0.000 A 
ATOM      9  C   UNL     1       1.315   2.881  18.654  0.00  0.00    +0.000 A 
ATOM     10  O   UNL     1       0.272   2.247  18.771  0.00  0.00    +0.000 OA
ATOM     11  N   UNL     1       1.549   4.058  19.286  0.00  0.00    +0.000 N 
ATOM     12  C   UNL     1       2.609   4.904  19.040  0.00  0.00    +0.000 A 
ATOM     13  O   UNL     1       2.642   6.016  19.555  0.00  0.00    +0.000 OA
ATOM     14  H   UNL     1       0.818   4.424  19.867  0.00  0.00    +0.000 HD
ENDBRANCH   3   6
BRANCH   4  15
ATOM     15  O   UNL     1       6.351   5.094  19.737  0.00  0.00    +0.000 OA
ATOM     16  H   UNL     1       6.449   6.066  19.749  0.00  0.00    +0.000 HD
ENDBRANCH   4  15
BRANCH   5  17
ATOM     17  O   UNL     1       7.440   6.610  17.842  0.00  0.00    +0.000 OA
ATOM     18  H   UNL     1       6.911   7.283  17.380  0.00  0.00    +0.000 HD
ENDBRANCH   5  17
BRANCH   1  19
ATOM     19  C   UNL     1       6.452   4.109  15.246  0.00  0.00    +0.000 C 
BRANCH  19  20
ATOM     20  O   UNL     1       6.933   4.403  13.920  0.00  0.00    +0.000 OA
BRANCH  20  21
ATOM     21  P   UNL     1       6.295   3.330  12.723  0.00  0.00    +0.000 P 
ATOM     22  O   UNL     1       6.994   4.073  11.576  0.00  0.00    +0.000 OA
BRANCH  21  23
ATOM     23  O   UNL     1       4.812   4.020  12.844  0.00  0.00    +0.000 OA
ATOM     24  H   UNL     1       4.440   3.887  13.740  0.00  0.00    +0.000 HD
ENDBRANCH  21  23
BRANCH  21  25
ATOM     25  C   UNL     1       5.619   2.195  11.456  0.00  0.00    +0.000 C 
BRANCH  25  26
ATOM     26  C   UNL     1       6.665   1.157  11.073  0.00  0.00    +0.000 C 
BRANCH  26  27
ATOM     27  N   UNL     1       6.219  -0.185  11.429  0.00  0.00    +0.000 NA
ATOM     28  H   UNL     1       5.936  -0.692  10.591  0.00  0.00    +0.000 HD
ATOM     29  H   UNL     1       5.384  -0.128  12.014  0.00  0.00    +0.000 HD
ENDBRANCH  26  27
ENDBRANCH  25  26
ENDBRANCH  21  25
ENDBRANCH  20  21
ENDBRANCH  19  20
ENDBRANCH   1  19
TORSDOF 10
ENDMDL
MODEL 2
REMARK VINA RESULT:      -6.7      2.845      4.514
REMARK  Name = 
REMARK  10 active torsions:
REMARK  status: ('A' for Active; 'I' for Inactive)
REMARK    1  A    between atoms: N_1  and  C_2
REMARK    2  A    between atoms: C_2  and  C_3
REMARK    3  A    between atoms: C_3  and  P_4
REMARK    4  A    between atoms: P_4  and  O_6
REMARK    5  A    between atoms: P_4  and  O_7
REMARK    6  A    between atoms: O_7  and  C_8
REMARK    7  A    between atoms: C_8  and  C_9
REMARK    8  A    between atoms: C_11  and  N_12
REMARK    9  A    between atoms: C_20  and  O_21
REMARK   10  A    between atoms: C_22  and  O_23
REMARK                            x       y       z     vdW  Elec       q    Type
REMARK                         _______ _______ _______ _____ _____    ______ ____
ROOT
ATOM      1  C   UNL     1       4.365   3.959  19.228  0.00  0.00    +0.000 C 
ATOM      2  O   UNL     1       4.270   5.348  19.590  0.00  0.00    +0.000 OA
ATOM      3  C   UNL     1       2.919   5.644  19.986  0.00  0.00    +0.000 C 
ATOM      4  C   UNL     1       2.042   4.462  19.554  0.00  0.00    +0.000 C 
ATOM      5  C   UNL     1       3.030   3.304  19.608  0.00  0.00    +0.000 C 
ENDROOT
BRANCH   3   6
ATOM      6  N   UNL     1       2.504   6.919  19.411  0.00  0.00    +0.000 N 
ATOM      7  C   UNL     1       2.908   7.303  18.145  0.00  0.00    +0.000 A 
ATOM      8  C   UNL     1       2.593   8.478  17.622  0.00  0.00    +0.000 A 
ATOM      9  C   UNL     1       1.774   9.407  18.428  0.00  0.00    +0.000 A 
ATOM     10  O   UNL     1       1.554  10.547  18.034  0.00  0.00    +0.000 OA
ATOM     11  N   UNL     1       1.303   8.919  19.602  0.00  0.00    +0.000 N 
ATOM     12  C   UNL     1       1.677   7.726  20.183  0.00  0.00    +0.000 A 
ATOM     13  O   UNL     1       1.309   7.452  21.320  0.00  0.00    +0.000 OA
ATOM     14  H   UNL     1       0.758   9.536  20.175  0.00  0.00    +0.000 HD
ENDBRANCH   3   6
BRANCH   4  15
ATOM     15  O   UNL     1       0.912   4.242  20.390  0.00  0.00    +0.000 OA
ATOM     16  H   UNL     1       1.239   4.200  21.310  0.00  0.00    +0.000 HD
ENDBRANCH   4  15
BRANCH   5  17
ATOM     17  O   UNL     1       3.057   2.768  20.941  0.00  0.00    +0.000 OA
ATOM     18  H   UNL     1       3.364   1.846  20.912  0.00  0.00    +0.000 HD
ENDBRANCH   5  17
BRANCH   1  19
ATOM     19  C   UNL     1       4.640   3.835  17.729  0.00  0.00    +0.000 C 
BRANCH  19  20
ATOM     20  O   UNL     1       5.296   4.995  17.178  0.00  0.00    +0.000 OA
BRANCH  20  21
ATOM     21  P   UNL     1       6.018   4.687  15.636  0.00  0.00    +0.000 P 
ATOM     22  O   UNL     1       7.439   4.697  16.217  0.00  0.00    +0.000 OA
BRANCH  21  23
ATOM     23  O   UNL     1       5.737   6.230  15.158  0.00  0.00    +0.000 OA
ATOM     24  H   UNL     1       6.345   6.485  14.434  0.00  0.00    +0.000 HD
ENDBRANCH  21  23
BRANCH  21  25
ATOM     25  C   UNL     1       6.782   4.363  14.005  0.00  0.00    +0.000 C 
BRANCH  25  26
ATOM     26  C   UNL     1       5.749   3.776  13.053  0.00  0.00    +0.000 C 
BRANCH  26  27
ATOM     27  N   UNL     1       6.344   2.740  12.216  0.00  0.00    +0.000 NA
ATOM     28  H   UNL     1       7.171   3.106  11.744  0.00  0.00    +0.000 HD
ATOM     29  H   UNL     1       5.693   2.480  11.474  0.00  0.00    +0.000 HD
ENDBRANCH  26  27
ENDBRANCH  25  26
ENDBRANCH  21  25
ENDBRANCH  20  21
ENDBRANCH  19  20
ENDBRANCH   1  19
TORSDOF 10
ENDMDL
MODEL 3
REMARK VINA RESULT:      -6.6      4.064      5.873
REMARK  Name = 
REMARK  10 active torsions:
REMARK  status: ('A' for Active; 'I' for Inactive)
REMARK    1  A    between atoms: N_1  and  C_2
REMARK    2  A    between atoms: C_2  and  C_3
REMARK    3  A    between atoms: C_3  and  P_4
REMARK    4  A    between atoms: P_4  and  O_6
REMARK    5  A    between atoms: P_4  and  O_7
REMARK    6  A    between atoms: O_7  and  C_8
REMARK    7  A    between atoms: C_8  and  C_9
REMARK    8  A    between atoms: C_11  and  N_12
REMARK    9  A    between atoms: C_20  and  O_21
REMARK   10  A    between atoms: C_22  and  O_23
REMARK                            x       y       z     vdW  Elec       q    Type
REMARK                         _______ _______ _______ _____ _____    ______ ____
ROOT
ATOM      1  C   UNL     1       4.278   4.445  18.752  0.00  0.00    +0.000 C 
ATOM      2  O   UNL     1       4.147   5.785  19.259  0.00  0.00    +0.000 OA
ATOM      3  C   UNL     1       2.826   5.960  19.802  0.00  0.00    +0.000 C 
ATOM      4  C   UNL     1       1.974   4.773  19.334  0.00  0.00    +0.000 C 
ATOM      5  C   UNL     1       3.021   3.677  19.182  0.00  0.00    +0.000 C 
ENDROOT
BRANCH   3   6
ATOM      6  N   UNL     1       2.294   7.256  19.398  0.00  0.00    +0.000 N 
ATOM      7  C   UNL     1       2.511   7.759  18.128  0.00  0.00    +0.000 A 
ATOM      8  C   UNL     1       2.088   8.956  17.754  0.00  0.00    +0.000 A 
ATOM      9  C   UNL     1       1.351   9.778  18.735  0.00  0.00    +0.000 A 
ATOM     10  O   UNL     1       1.040  10.935  18.474  0.00  0.00    +0.000 OA
ATOM     11  N   UNL     1       1.058   9.176  19.915  0.00  0.00    +0.000 N 
ATOM     12  C   UNL     1       1.549   7.958  20.337  0.00  0.00    +0.000 A 
ATOM     13  O   UNL     1       1.346   7.577  21.485  0.00  0.00    +0.000 OA
ATOM     14  H   UNL     1       0.573   9.719  20.604  0.00  0.00    +0.000 HD
ENDBRANCH   3   6
BRANCH   4  15
ATOM     15  O   UNL     1       0.942   4.406  20.241  0.00  0.00    +0.000 OA
ATOM     16  H   UNL     1       1.319   3.746  20.854  0.00  0.00    +0.000 HD
ENDBRANCH   4  15
BRANCH   5  17
ATOM     17  O   UNL     1       3.202   3.019  20.447  0.00  0.00    +0.000 OA
ATOM     18  H   UNL     1       2.766   3.537  21.146  0.00  0.00    +0.000 HD
ENDBRANCH   5  17
BRANCH   1  19
ATOM     19  C   UNL     1       4.416   4.481  17.229  0.00  0.00    +0.000 C 
BRANCH  19  20
ATOM     20  O   UNL     1       5.780   4.354  16.783  0.00  0.00    +0.000 OA
BRANCH  20  21
ATOM     21  P   UNL     1       6.827   5.543  17.481  0.00  0.00    +0.000 P 
ATOM     22  O   UNL     1       7.436   5.912  16.122  0.00  0.00    +0.000 OA
BRANCH  21  23
ATOM     23  O   UNL     1       7.804   4.375  18.089  0.00  0.00    +0.000 OA
ATOM     24  H   UNL     1       8.719   4.479  17.753  0.00  0.00    +0.000 HD
ENDBRANCH  21  23
BRANCH  21  25
ATOM     25  C   UNL     1       7.934   6.799  18.219  0.00  0.00    +0.000 C 
BRANCH  25  26
ATOM     26  C   UNL     1       7.641   8.169  17.622  0.00  0.00    +0.000 C 
BRANCH  26  27
ATOM     27  N   UNL     1       8.475   9.193  18.239  0.00  0.00    +0.000 NA
ATOM     28  H   UNL     1       9.445   9.076  17.946  0.00  0.00    +0.000 HD
ATOM     29  H   UNL     1       8.475   9.074  19.253  0.00  0.00    +0.000 HD
ENDBRANCH  26  27
ENDBRANCH  25  26
ENDBRANCH  21  25
ENDBRANCH  20  21
ENDBRANCH  19  20
ENDBRANCH   1  19
TORSDOF 10
ENDMDL
MODEL 4
REMARK VINA RESULT:      -6.6      3.503      7.330
REMARK  Name = 
REMARK  10 active torsions:
REMARK  status: ('A' for Active; 'I' for Inactive)
REMARK    1  A    between atoms: N_1  and  C_2
REMARK    2  A    between atoms: C_2  and  C_3
REMARK    3  A    between atoms: C_3  and  P_4
REMARK    4  A    between atoms: P_4  and  O_6
REMARK    5  A    between atoms: P_4  and  O_7
REMARK    6  A    between atoms: O_7  and  C_8
REMARK    7  A    between atoms: C_8  and  C_9
REMARK    8  A    between atoms: C_11  and  N_12
REMARK    9  A    between atoms: C_20  and  O_21
REMARK   10  A    between atoms: C_22  and  O_23
REMARK                            x       y       z     vdW  Elec       q    Type
REMARK                         _______ _______ _______ _____ _____    ______ ____
ROOT
ATOM      1  C   UNL     1       2.309   3.292  17.651  0.00  0.00    +0.000 C 
ATOM      2  O   UNL     1       3.433   3.672  16.836  0.00  0.00    +0.000 OA
ATOM      3  C   UNL     1       4.652   3.353  17.529  0.00  0.00    +0.000 C 
ATOM      4  C   UNL     1       4.287   3.044  18.987  0.00  0.00    +0.000 C 
ATOM      5  C   UNL     1       2.868   2.509  18.847  0.00  0.00    +0.000 C 
ENDROOT
BRANCH   3   6
ATOM      6  N   UNL     1       5.603   4.450  17.385  0.00  0.00    +0.000 N 
ATOM      7  C   UNL     1       5.795   5.374  18.396  0.00  0.00    +0.000 A 
ATOM      8  C   UNL     1       6.609   6.410  18.269  0.00  0.00    +0.000 A 
ATOM      9  C   UNL     1       7.343   6.574  16.998  0.00  0.00    +0.000 A 
ATOM     10  O   UNL     1       8.018   7.576  16.791  0.00  0.00    +0.000 OA
ATOM     11  N   UNL     1       7.212   5.565  16.101  0.00  0.00    +0.000 N 
ATOM     12  C   UNL     1       6.319   4.518  16.196  0.00  0.00    +0.000 A 
ATOM     13  O   UNL     1       6.174   3.746  15.255  0.00  0.00    +0.000 OA
ATOM     14  H   UNL     1       7.687   5.660  15.223  0.00  0.00    +0.000 HD
ENDBRANCH   3   6
BRANCH   4  15
ATOM     15  O   UNL     1       5.153   2.109  19.617  0.00  0.00    +0.000 OA
ATOM     16  H   UNL     1       4.609   1.338  19.869  0.00  0.00    +0.000 HD
ENDBRANCH   4  15
BRANCH   5  17
ATOM     17  O   UNL     1       2.920   1.097  18.585  0.00  0.00    +0.000 OA
ATOM     18  H   UNL     1       2.718   0.609  19.402  0.00  0.00    +0.000 HD
ENDBRANCH   5  17
BRANCH   1  19
ATOM     19  C   UNL     1       1.557   4.543  18.106  0.00  0.00    +0.000 C 
BRANCH  19  20
ATOM     20  O   UNL     1       2.277   5.763  17.840  0.00  0.00    +0.000 OA
BRANCH  20  21
ATOM     21  P   UNL     1       2.016   6.973  19.049  0.00  0.00    +0.000 P 
ATOM     22  O   UNL     1       2.946   7.976  18.352  0.00  0.00    +0.000 OA
BRANCH  21  23
ATOM     23  O   UNL     1       2.969   6.166  20.112  0.00  0.00    +0.000 OA
ATOM     24  H   UNL     1       3.221   6.745  20.860  0.00  0.00    +0.000 HD
ENDBRANCH  21  23
BRANCH  21  25
ATOM     25  C   UNL     1       1.740   8.252  20.328  0.00  0.00    +0.000 C 
BRANCH  25  26
ATOM     26  C   UNL     1       0.975   9.427  19.735  0.00  0.00    +0.000 C 
BRANCH  26  27
ATOM     27  N   UNL     1      -0.143   9.804  20.591  0.00  0.00    +0.000 NA
ATOM     28  H   UNL     1      -0.991   9.904  20.032  0.00  0.00    +0.000 HD
ATOM     29  H   UNL     1       0.029  10.724  20.999  0.00  0.00    +0.000 HD
ENDBRANCH  26  27
ENDBRANCH  25  26
ENDBRANCH  21  25
ENDBRANCH  20  21
ENDBRANCH  19  20
ENDBRANCH   1  19
TORSDOF 10
ENDMDL
MODEL 5
REMARK VINA RESULT:      -6.6      3.025      5.136
REMARK  Name = 
REMARK  10 active torsions:
REMARK  status: ('A' for Active; 'I' for Inactive)
REMARK    1  A    between atoms: N_1  and  C_2
REMARK    2  A    between atoms: C_2  and  C_3
REMARK    3  A    between atoms: C_3  and  P_4
REMARK    4  A    between atoms: P_4  and  O_6
REMARK    5  A    between atoms: P_4  and  O_7
REMARK    6  A    between atoms: O_7  and  C_8
REMARK    7  A    between atoms: C_8  and  C_9
REMARK    8  A    between atoms: C_11  and  N_12
REMARK    9  A    between atoms: C_20  and  O_21
REMARK   10  A    between atoms: C_22  and  O_23
REMARK                            x       y       z     vdW  Elec       q    Type
REMARK                         _______ _______ _______ _____ _____    ______ ____
ROOT
ATOM      1  C   UNL     1       3.799   3.422  20.363  0.00  0.00    +0.000 C 
ATOM      2  O   UNL     1       3.665   4.843  20.544  0.00  0.00    +0.000 OA
ATOM      3  C   UNL     1       2.286   5.216  20.379  0.00  0.00    +0.000 C 
ATOM      4  C   UNL     1       1.557   4.020  19.752  0.00  0.00    +0.000 C 
ATOM      5  C   UNL     1       2.379   2.847  20.270  0.00  0.00    +0.000 C 
ENDROOT
BRANCH   3   6
ATOM      6  N   UNL     1       2.195   6.436  19.585  0.00  0.00    +0.000 N 
ATOM      7  C   UNL     1       2.598   6.465  18.262  0.00  0.00    +0.000 A 
ATOM      8  C   UNL     1       2.580   7.572  17.536  0.00  0.00    +0.000 A 
ATOM      9  C   UNL     1       2.103   8.818  18.169  0.00  0.00    +0.000 A 
ATOM     10  O   UNL     1       2.175   9.888  17.575  0.00  0.00    +0.000 OA
ATOM     11  N   UNL     1       1.600   8.694  19.423  0.00  0.00    +0.000 N 
ATOM     12  C   UNL     1       1.675   7.563  20.208  0.00  0.00    +0.000 A 
ATOM     13  O   UNL     1       1.327   7.606  21.383  0.00  0.00    +0.000 OA
ATOM     14  H   UNL     1       1.285   9.529  19.880  0.00  0.00    +0.000 HD
ENDBRANCH   3   6
BRANCH   4  15
ATOM     15  O   UNL     1       0.187   3.918  20.120  0.00  0.00    +0.000 OA
ATOM     16  H   UNL     1      -0.277   4.674  19.711  0.00  0.00    +0.000 HD
ENDBRANCH   4  15
BRANCH   5  17
ATOM     17  O   UNL     1       1.877   2.450  21.557  0.00  0.00    +0.000 OA
ATOM     18  H   UNL     1       2.525   1.867  21.990  0.00  0.00    +0.000 HD
ENDBRANCH   5  17
BRANCH   1  19
ATOM     19  C   UNL     1       4.600   3.138  19.092  0.00  0.00    +0.000 C 
BRANCH  19  20
ATOM     20  O   UNL     1       5.731   4.017  18.930  0.00  0.00    +0.000 OA
BRANCH  20  21
ATOM     21  P   UNL     1       5.794   4.744  17.361  0.00  0.00    +0.000 P 
ATOM     22  O   UNL     1       4.823   3.716  16.764  0.00  0.00    +0.000 OA
BRANCH  21  23
ATOM     23  O   UNL     1       7.291   4.127  17.097  0.00  0.00    +0.000 OA
ATOM     24  H   UNL     1       7.936   4.844  16.927  0.00  0.00    +0.000 HD
ENDBRANCH  21  23
BRANCH  21  25
ATOM     25  C   UNL     1       5.862   5.512  15.701  0.00  0.00    +0.000 C 
BRANCH  25  26
ATOM     26  C   UNL     1       5.348   4.534  14.652  0.00  0.00    +0.000 C 
BRANCH  26  27
ATOM     27  N   UNL     1       6.407   3.626  14.226  0.00  0.00    +0.000 NA
ATOM     28  H   UNL     1       6.015   2.707  14.019  0.00  0.00    +0.000 HD
ATOM     29  H   UNL     1       7.065   3.480  14.992  0.00  0.00    +0.000 HD
ENDBRANCH  26  27
ENDBRANCH  25  26
ENDBRANCH  21  25
ENDBRANCH  20  21
ENDBRANCH  19  20
ENDBRANCH   1  19
TORSDOF 10
ENDMDL
MODEL 6
REMARK VINA RESULT:      -6.5      3.724      5.549
REMARK  Name = 
REMARK  10 active torsions:
REMARK  status: ('A' for Active; 'I' for Inactive)
REMARK    1  A    between atoms: N_1  and  C_2
REMARK    2  A    between atoms: C_2  and  C_3
REMARK    3  A    between atoms: C_3  and  P_4
REMARK    4  A    between atoms: P_4  and  O_6
REMARK    5  A    between atoms: P_4  and  O_7
REMARK    6  A    between atoms: O_7  and  C_8
REMARK    7  A    between atoms: C_8  and  C_9
REMARK    8  A    between atoms: C_11  and  N_12
REMARK    9  A    between atoms: C_20  and  O_21
REMARK   10  A    between atoms: C_22  and  O_23
REMARK                            x       y       z     vdW  Elec       q    Type
REMARK                         _______ _______ _______ _____ _____    ______ ____
ROOT
ATOM      1  C   UNL     1       3.606   3.425  18.995  0.00  0.00    +0.000 C 
ATOM      2  O   UNL     1       3.819   4.806  19.338  0.00  0.00    +0.000 OA
ATOM      3  C   UNL     1       2.622   5.339  19.930  0.00  0.00    +0.000 C 
ATOM      4  C   UNL     1       1.490   4.337  19.665  0.00  0.00    +0.000 C 
ATOM      5  C   UNL     1       2.251   3.020  19.591  0.00  0.00    +0.000 C 
ENDROOT
BRANCH   3   6
ATOM      6  N   UNL     1       2.359   6.671  19.399  0.00  0.00    +0.000 N 
ATOM      7  C   UNL     1       2.791   7.042  18.138  0.00  0.00    +0.000 A 
ATOM      8  C   UNL     1       2.615   8.261  17.655  0.00  0.00    +0.000 A 
ATOM      9  C   UNL     1       1.924   9.258  18.499  0.00  0.00    +0.000 A 
ATOM     10  O   UNL     1       1.840  10.428  18.142  0.00  0.00    +0.000 OA
ATOM     11  N   UNL     1       1.411   8.795  19.666  0.00  0.00    +0.000 N 
ATOM     12  C   UNL     1       1.644   7.548  20.206  0.00  0.00    +0.000 A 
ATOM     13  O   UNL     1       1.259   7.286  21.340  0.00  0.00    +0.000 OA
ATOM     14  H   UNL     1       0.951   9.456  20.264  0.00  0.00    +0.000 HD
ENDBRANCH   3   6
BRANCH   4  15
ATOM     15  O   UNL     1       0.484   4.319  20.669  0.00  0.00    +0.000 OA
ATOM     16  H   UNL     1       0.934   4.183  21.525  0.00  0.00    +0.000 HD
ENDBRANCH   4  15
BRANCH   5  17
ATOM     17  O   UNL     1       2.388   2.479  20.915  0.00  0.00    +0.000 OA
ATOM     18  H   UNL     1       1.987   3.090  21.556  0.00  0.00    +0.000 HD
ENDBRANCH   5  17
BRANCH   1  19
ATOM     19  C   UNL     1       3.619   3.263  17.475  0.00  0.00    +0.000 C 
BRANCH  19  20
ATOM     20  O   UNL     1       4.223   4.381  16.794  0.00  0.00    +0.000 OA
BRANCH  20  21
ATOM     21  P   UNL     1       5.906   4.556  17.157  0.00  0.00    +0.000 P 
ATOM     22  O   UNL     1       5.970   5.959  16.539  0.00  0.00    +0.000 OA
BRANCH  21  23
ATOM     23  O   UNL     1       6.311   3.530  15.944  0.00  0.00    +0.000 OA
ATOM     24  H   UNL     1       5.825   2.683  16.029  0.00  0.00    +0.000 HD
ENDBRANCH  21  23
BRANCH  21  25
ATOM     25  C   UNL     1       7.686   4.741  17.541  0.00  0.00    +0.000 C 
BRANCH  25  26
ATOM     26  C   UNL     1       7.861   5.463  18.870  0.00  0.00    +0.000 C 
BRANCH  26  27
ATOM     27  N   UNL     1       6.649   5.368  19.676  0.00  0.00    +0.000 NA
ATOM     28  H   UNL     1       6.891   5.359  20.668  0.00  0.00    +0.000 HD
ATOM     29  H   UNL     1       6.184   4.477  19.497  0.00  0.00    +0.000 HD
ENDBRANCH  26  27
ENDBRANCH  25  26
ENDBRANCH  21  25
ENDBRANCH  20  21
ENDBRANCH  19  20
ENDBRANCH   1  19
TORSDOF 10
ENDMDL
MODEL 7
REMARK VINA RESULT:      -6.5      2.382      3.758
REMARK  Name = 
REMARK  10 active torsions:
REMARK  status: ('A' for Active; 'I' for Inactive)
REMARK    1  A    between atoms: N_1  and  C_2
REMARK    2  A    between atoms: C_2  and  C_3
REMARK    3  A    between atoms: C_3  and  P_4
REMARK    4  A    between atoms: P_4  and  O_6
REMARK    5  A    between atoms: P_4  and  O_7
REMARK    6  A    between atoms: O_7  and  C_8
REMARK    7  A    between atoms: C_8  and  C_9
REMARK    8  A    between atoms: C_11  and  N_12
REMARK    9  A    between atoms: C_20  and  O_21
REMARK   10  A    between atoms: C_22  and  O_23
REMARK                            x       y       z     vdW  Elec       q    Type
REMARK                         _______ _______ _______ _____ _____    ______ ____
ROOT
ATOM      1  C   UNL     1       5.397   4.154  18.014  0.00  0.00    +0.000 C 
ATOM      2  O   UNL     1       4.749   4.782  19.135  0.00  0.00    +0.000 OA
ATOM      3  C   UNL     1       3.324   4.653  18.993  0.00  0.00    +0.000 C 
ATOM      4  C   UNL     1       3.042   4.196  17.555  0.00  0.00    +0.000 C 
ATOM      5  C   UNL     1       4.308   3.417  17.222  0.00  0.00    +0.000 C 
ENDROOT
BRANCH   3   6
ATOM      6  N   UNL     1       2.676   5.912  19.343  0.00  0.00    +0.000 N 
ATOM      7  C   UNL     1       2.687   6.992  18.477  0.00  0.00    +0.000 A 
ATOM      8  C   UNL     1       2.157   8.163  18.793  0.00  0.00    +0.000 A 
ATOM      9  C   UNL     1       1.526   8.312  20.120  0.00  0.00    +0.000 A 
ATOM     10  O   UNL     1       1.125   9.407  20.501  0.00  0.00    +0.000 OA
ATOM     11  N   UNL     1       1.433   7.183  20.865  0.00  0.00    +0.000 N 
ATOM     12  C   UNL     1       2.037   5.978  20.575  0.00  0.00    +0.000 A 
ATOM     13  O   UNL     1       2.017   5.066  21.393  0.00  0.00    +0.000 OA
ATOM     14  H   UNL     1       1.023   7.262  21.777  0.00  0.00    +0.000 HD
ENDBRANCH   3   6
BRANCH   4  15
ATOM     15  O   UNL     1       1.872   3.400  17.418  0.00  0.00    +0.000 OA
ATOM     16  H   UNL     1       1.890   3.016  16.520  0.00  0.00    +0.000 HD
ENDBRANCH   4  15
BRANCH   5  17
ATOM     17  O   UNL     1       4.155   2.057  17.660  0.00  0.00    +0.000 OA
ATOM     18  H   UNL     1       4.235   2.019  18.629  0.00  0.00    +0.000 HD
ENDBRANCH   5  17
BRANCH   1  19
ATOM     19  C   UNL     1       6.089   5.215  17.157  0.00  0.00    +0.000 C 
BRANCH  19  20
ATOM     20  O   UNL     1       7.253   4.715  16.471  0.00  0.00    +0.000 OA
BRANCH  20  21
ATOM     21  P   UNL     1       7.055   4.684  14.752  0.00  0.00    +0.000 P 
ATOM     22  O   UNL     1       5.927   5.723  14.788  0.00  0.00    +0.000 OA
BRANCH  21  23
ATOM     23  O   UNL     1       6.305   3.228  14.830  0.00  0.00    +0.000 OA
ATOM     24  H   UNL     1       5.637   3.220  15.547  0.00  0.00    +0.000 HD
ENDBRANCH  21  23
BRANCH  21  25
ATOM     25  C   UNL     1       6.845   4.650  12.934  0.00  0.00    +0.000 C 
BRANCH  25  26
ATOM     26  C   UNL     1       5.911   3.514  12.538  0.00  0.00    +0.000 C 
BRANCH  26  27
ATOM     27  N   UNL     1       6.652   2.428  11.908  0.00  0.00    +0.000 NA
ATOM     28  H   UNL     1       6.013   1.677  11.645  0.00  0.00    +0.000 HD
ATOM     29  H   UNL     1       7.301   2.017  12.581  0.00  0.00    +0.000 HD
ENDBRANCH  26  27
ENDBRANCH  25  26
ENDBRANCH  21  25
ENDBRANCH  20  21
ENDBRANCH  19  20
ENDBRANCH   1  19
TORSDOF 10
ENDMDL
MODEL 8
REMARK VINA RESULT:      -6.5      1.641      1.705
REMARK  Name = 
REMARK  10 active torsions:
REMARK  status: ('A' for Active; 'I' for Inactive)
REMARK    1  A    between atoms: N_1  and  C_2
REMARK    2  A    between atoms: C_2  and  C_3
REMARK    3  A    between atoms: C_3  and  P_4
REMARK    4  A    between atoms: P_4  and  O_6
REMARK    5  A    between atoms: P_4  and  O_7
REMARK    6  A    between atoms: O_7  and  C_8
REMARK    7  A    between atoms: C_8  and  C_9
REMARK    8  A    between atoms: C_11  and  N_12
REMARK    9  A    between atoms: C_20  and  O_21
REMARK   10  A    between atoms: C_22  and  O_23
REMARK                            x       y       z     vdW  Elec       q    Type
REMARK                         _______ _______ _______ _____ _____    ______ ____
ROOT
ATOM      1  C   UNL     1       5.254   5.721  16.619  0.00  0.00    +0.000 C 
ATOM      2  O   UNL     1       4.172   5.857  17.559  0.00  0.00    +0.000 OA
ATOM      3  C   UNL     1       4.677   5.678  18.893  0.00  0.00    +0.000 C 
ATOM      4  C   UNL     1       6.089   5.089  18.778  0.00  0.00    +0.000 C 
ATOM      5  C   UNL     1       6.550   5.644  17.437  0.00  0.00    +0.000 C 
ENDROOT
BRANCH   3   6
ATOM      6  N   UNL     1       3.758   4.846  19.662  0.00  0.00    +0.000 N 
ATOM      7  C   UNL     1       4.002   3.498  19.861  0.00  0.00    +0.000 A 
ATOM      8  C   UNL     1       3.157   2.709  20.505  0.00  0.00    +0.000 A 
ATOM      9  C   UNL     1       1.911   3.299  21.035  0.00  0.00    +0.000 A 
ATOM     10  O   UNL     1       1.047   2.588  21.536  0.00  0.00    +0.000 OA
ATOM     11  N   UNL     1       1.796   4.646  20.921  0.00  0.00    +0.000 N 
ATOM     12  C   UNL     1       2.636   5.465  20.197  0.00  0.00    +0.000 A 
ATOM     13  O   UNL     1       2.353   6.647  20.033  0.00  0.00    +0.000 OA
ATOM     14  H   UNL     1       0.951   5.068  21.259  0.00  0.00    +0.000 HD
ENDBRANCH   3   6
BRANCH   4  15
ATOM     15  O   UNL     1       6.961   5.458  19.839  0.00  0.00    +0.000 OA
ATOM     16  H   UNL     1       6.657   6.325  20.172  0.00  0.00    +0.000 HD
ENDBRANCH   4  15
BRANCH   5  17
ATOM     17  O   UNL     1       7.133   6.942  17.639  0.00  0.00    +0.000 OA
ATOM     18  H   UNL     1       7.978   6.846  18.112  0.00  0.00    +0.000 HD
ENDBRANCH   5  17
BRANCH   1  19
ATOM     19  C   UNL     1       5.050   4.460  15.777  0.00  0.00    +0.000 C 
BRANCH  19  20
ATOM     20  O   UNL     1       6.287   3.808  15.429  0.00  0.00    +0.000 OA
BRANCH  20  21
ATOM     21  P   UNL     1       6.624   3.872  13.734  0.00  0.00    +0.000 P 
ATOM     22  O   UNL     1       7.240   5.274  13.833  0.00  0.00    +0.000 OA
BRANCH  21  23
ATOM     23  O   UNL     1       5.039   4.119  13.392  0.00  0.00    +0.000 OA
ATOM     24  H   UNL     1       4.611   4.647  14.098  0.00  0.00    +0.000 HD
ENDBRANCH  21  23
BRANCH  21  25
ATOM     25  C   UNL     1       6.980   3.940  11.940  0.00  0.00    +0.000 C 
BRANCH  25  26
ATOM     26  C   UNL     1       7.108   2.530  11.379  0.00  0.00    +0.000 C 
BRANCH  26  27
ATOM     27  N   UNL     1       5.893   1.762  11.623  0.00  0.00    +0.000 NA
ATOM     28  H   UNL     1       5.671   1.767  12.619  0.00  0.00    +0.000 HD
ATOM     29  H   UNL     1       6.048   0.783  11.379  0.00  0.00    +0.000 HD
ENDBRANCH  26  27
ENDBRANCH  25  26
ENDBRANCH  21  25
ENDBRANCH  20  21
ENDBRANCH  19  20
ENDBRANCH   1  19
TORSDOF 10
ENDMDL
MODEL 9
REMARK VINA RESULT:      -6.5      3.778      8.206
REMARK  Name = 
REMARK  10 active torsions:
REMARK  status: ('A' for Active; 'I' for Inactive)
REMARK    1  A    between atoms: N_1  and  C_2
REMARK    2  A    between atoms: C_2  and  C_3
REMARK    3  A    between atoms: C_3  and  P_4
REMARK    4  A    between atoms: P_4  and  O_6
REMARK    5  A    between atoms: P_4  and  O_7
REMARK    6  A    between atoms: O_7  and  C_8
REMARK    7  A    between atoms: C_8  and  C_9
REMARK    8  A    between atoms: C_11  and  N_12
REMARK    9  A    between atoms: C_20  and  O_21
REMARK   10  A    between atoms: C_22  and  O_23
REMARK                            x       y       z     vdW  Elec       q    Type
REMARK                         _______ _______ _______ _____ _____    ______ ____
ROOT
ATOM      1  C   UNL     1       1.742   4.274  19.398  0.00  0.00    +0.000 C 
ATOM      2  O   UNL     1       2.503   4.725  18.262  0.00  0.00    +0.000 OA
ATOM      3  C   UNL     1       3.642   3.865  18.082  0.00  0.00    +0.000 C 
ATOM      4  C   UNL     1       3.785   3.015  19.352  0.00  0.00    +0.000 C 
ATOM      5  C   UNL     1       2.343   2.930  19.834  0.00  0.00    +0.000 C 
ENDROOT
BRANCH   3   6
ATOM      6  N   UNL     1       4.823   4.666  17.780  0.00  0.00    +0.000 N 
ATOM      7  C   UNL     1       5.511   5.338  18.775  0.00  0.00    +0.000 A 
ATOM      8  C   UNL     1       6.550   6.116  18.520  0.00  0.00    +0.000 A 
ATOM      9  C   UNL     1       6.990   6.264  17.118  0.00  0.00    +0.000 A 
ATOM     10  O   UNL     1       7.873   7.061  16.821  0.00  0.00    +0.000 OA
ATOM     11  N   UNL     1       6.358   5.478  16.211  0.00  0.00    +0.000 N 
ATOM     12  C   UNL     1       5.236   4.715  16.454  0.00  0.00    +0.000 A 
ATOM     13  O   UNL     1       4.653   4.164  15.527  0.00  0.00    +0.000 OA
ATOM     14  H   UNL     1       6.628   5.571  15.250  0.00  0.00    +0.000 HD
ENDBRANCH   3   6
BRANCH   4  15
ATOM     15  O   UNL     1       4.352   1.730  19.129  0.00  0.00    +0.000 OA
ATOM     16  H   UNL     1       5.279   1.869  18.854  0.00  0.00    +0.000 HD
ENDBRANCH   4  15
BRANCH   5  17
ATOM     17  O   UNL     1       1.695   1.820  19.191  0.00  0.00    +0.000 OA
ATOM     18  H   UNL     1       0.975   2.150  18.626  0.00  0.00    +0.000 HD
ENDBRANCH   5  17
BRANCH   1  19
ATOM     19  C   UNL     1       1.824   5.311  20.518  0.00  0.00    +0.000 C 
BRANCH  19  20
ATOM     20  O   UNL     1       2.202   6.620  20.047  0.00  0.00    +0.000 OA
BRANCH  20  21
ATOM     21  P   UNL     1       1.090   7.854  20.533  0.00  0.00    +0.000 P 
ATOM     22  O   UNL     1       1.542   8.805  19.416  0.00  0.00    +0.000 OA
BRANCH  21  23
ATOM     23  O   UNL     1       2.022   8.233  21.827  0.00  0.00    +0.000 OA
ATOM     24  H   UNL     1       2.230   7.433  22.352  0.00  0.00    +0.000 HD
ENDBRANCH  21  23
BRANCH  21  25
ATOM     25  C   UNL     1      -0.085   9.159  21.047  0.00  0.00    +0.000 C 
BRANCH  25  26
ATOM     26  C   UNL     1      -0.455   8.980  22.513  0.00  0.00    +0.000 C 
BRANCH  26  27
ATOM     27  N   UNL     1       0.180  10.003  23.337  0.00  0.00    +0.000 NA
ATOM     28  H   UNL     1      -0.500  10.399  23.986  0.00  0.00    +0.000 HD
ATOM     29  H   UNL     1       0.486  10.779  22.749  0.00  0.00    +0.000 HD
ENDBRANCH  26  27
ENDBRANCH  25  26
ENDBRANCH  21  25
ENDBRANCH  20  21
ENDBRANCH  19  20
ENDBRANCH   1  19
TORSDOF 10
ENDMDL
