MODEL 1
REMARK VINA RESULT:      -9.0      0.000      0.000
REMARK  Name = 
REMARK  7 active torsions:
REMARK  status: ('A' for Active; 'I' for Inactive)
REMARK    1  A    between atoms: C_1  and  C_2
REMARK    2  A    between atoms: C_5  and  C_6
REMARK    3  A    between atoms: C_10  and  C_12
REMARK    4  A    between atoms: C_15  and  C_16
REMARK    5  A    between atoms: C_22  and  C_23
REMARK    6  A    between atoms: C_25  and  C_26
REMARK    7  A    between atoms: C_31  and  C_32
REMARK                            x       y       z     vdW  Elec       q    Type
REMARK                         _______ _______ _______ _____ _____    ______ ____
ROOT
ATOM      1  C   UNL     1       2.551   4.988  20.790  0.00  0.00    +0.000 C 
ATOM      2  C   UNL     1       2.278   6.292  20.079  0.00  0.00    +0.000 A 
ATOM      3  C   UNL     1       1.397   7.175  20.722  0.00  0.00    +0.000 A 
ATOM      4  C   UNL     1       1.108   8.428  20.185  0.00  0.00    +0.000 A 
ATOM      5  C   UNL     1       1.726   8.836  19.001  0.00  0.00    +0.000 A 
ATOM      6  C   UNL     1       2.565   7.936  18.319  0.00  0.00    +0.000 A 
ATOM      7  C   UNL     1       2.844   6.642  18.825  0.00  0.00    +0.000 A 
ENDROOT
BRANCH   5   8
ATOM      8  C   UNL     1       1.415  10.180  18.416  0.00  0.00    +0.000 C 
ATOM      9  O   UNL     1       2.308  10.825  17.876  0.00  0.00    +0.000 OA
ATOM     10  N   UNL     1       0.095  10.599  18.468  0.00  0.00    +0.000 N 
ATOM     11  C   UNL     1      -0.466  11.801  17.941  0.00  0.00    +0.000 C 
ATOM     12  C   UNL     1      -1.214  12.217  19.248  0.00  0.00    +0.000 C 
ATOM     13  F   UNL     1      -0.491  13.391  19.344  0.00  0.00    +0.000 F 
ATOM     14  C   UNL     1      -0.750  10.653  19.612  0.00  0.00    +0.000 C 
BRANCH  12  15
ATOM     15  C   UNL     1      -1.754  12.475  20.746  0.00  0.00    +0.000 A 
ATOM     16  C   UNL     1      -2.921  13.272  20.935  0.00  0.00    +0.000 A 
ATOM     17  C   UNL     1      -3.664  13.263  22.113  0.00  0.00    +0.000 A 
ATOM     18  C   UNL     1      -3.248  12.467  23.171  0.00  0.00    +0.000 A 
ATOM     19  C   UNL     1      -2.029  11.785  23.084  0.00  0.00    +0.000 A 
ATOM     20  C   UNL     1      -1.286  11.799  21.889  0.00  0.00    +0.000 A 
BRANCH  18  21
ATOM     21  C   UNL     1      -4.121  12.274  24.293  0.00  0.00    +0.000 C 
ATOM     22  N   UNL     1      -4.871  12.126  25.166  0.00  0.00    +0.000 NA
ENDBRANCH  18  21
ENDBRANCH  12  15
ENDBRANCH   5   8
BRANCH   7  23
ATOM     23  C   UNL     1       3.669   5.711  18.030  0.00  0.00    +0.000 A 
ATOM     24  N   UNL     1       5.005   5.936  17.755  0.00  0.00    +0.000 N 
ATOM     25  C   UNL     1       5.504   4.922  16.977  0.00  0.00    +0.000 A 
ATOM     26  N   UNL     1       4.565   4.006  16.794  0.00  0.00    +0.000 NA
ATOM     27  C   UNL     1       3.443   4.465  17.449  0.00  0.00    +0.000 A 
ATOM     28  C   UNL     1       2.219   3.627  17.434  0.00  0.00    +0.000 C 
ATOM     29  H   UNL     1       5.548   6.720  18.078  0.00  0.00    +0.000 HD
BRANCH  25  30
ATOM     30  C   UNL     1       6.914   4.945  16.487  0.00  0.00    +0.000 C 
ATOM     31  F   UNL     1       7.719   4.193  17.292  0.00  0.00    +0.000 F 
ATOM     32  F   UNL     1       7.044   4.435  15.237  0.00  0.00    +0.000 F 
ATOM     33  F   UNL     1       7.450   6.193  16.475  0.00  0.00    +0.000 F 
ENDBRANCH  25  30
ENDBRANCH   7  23
TORSDOF 5
ENDMDL
MODEL 2
REMARK VINA RESULT:      -8.9      1.050      1.202
REMARK  Name = 
REMARK  7 active torsions:
REMARK  status: ('A' for Active; 'I' for Inactive)
REMARK    1  A    between atoms: C_1  and  C_2
REMARK    2  A    between atoms: C_5  and  C_6
REMARK    3  A    between atoms: C_10  and  C_12
REMARK    4  A    between atoms: C_15  and  C_16
REMARK    5  A    between atoms: C_22  and  C_23
REMARK    6  A    between atoms: C_25  and  C_26
REMARK    7  A    between atoms: C_31  and  C_32
REMARK                            x       y       z     vdW  Elec       q    Type
REMARK                         _______ _______ _______ _____ _____    ______ ____
ROOT
ATOM      1  C   UNL     1       2.556   4.890  20.853  0.00  0.00    +0.000 C 
ATOM      2  C   UNL     1       2.266   6.196  20.151  0.00  0.00    +0.000 A 
ATOM      3  C   UNL     1       1.382   7.067  20.805  0.00  0.00    +0.000 A 
ATOM      4  C   UNL     1       1.077   8.320  20.278  0.00  0.00    +0.000 A 
ATOM      5  C   UNL     1       1.685   8.742  19.093  0.00  0.00    +0.000 A 
ATOM      6  C   UNL     1       2.528   7.853  18.400  0.00  0.00    +0.000 A 
ATOM      7  C   UNL     1       2.821   6.560  18.897  0.00  0.00    +0.000 A 
ENDROOT
BRANCH   5   8
ATOM      8  C   UNL     1       1.358  10.087  18.519  0.00  0.00    +0.000 C 
ATOM      9  O   UNL     1       2.207  10.687  17.867  0.00  0.00    +0.000 OA
ATOM     10  N   UNL     1       0.069  10.557  18.711  0.00  0.00    +0.000 N 
ATOM     11  C   UNL     1      -0.504  11.771  18.226  0.00  0.00    +0.000 C 
ATOM     12  C   UNL     1      -1.083  12.237  19.600  0.00  0.00    +0.000 C 
ATOM     13  F   UNL     1      -0.311  13.384  19.588  0.00  0.00    +0.000 F 
ATOM     14  C   UNL     1      -0.637  10.664  19.943  0.00  0.00    +0.000 C 
BRANCH  12  15
ATOM     15  C   UNL     1      -1.438  12.542  21.144  0.00  0.00    +0.000 A 
ATOM     16  C   UNL     1      -0.511  13.277  21.938  0.00  0.00    +0.000 A 
ATOM     17  C   UNL     1      -0.859  13.893  23.138  0.00  0.00    +0.000 A 
ATOM     18  C   UNL     1      -2.159  13.772  23.610  0.00  0.00    +0.000 A 
ATOM     19  C   UNL     1      -3.060  12.937  22.942  0.00  0.00    +0.000 A 
ATOM     20  C   UNL     1      -2.700  12.320  21.730  0.00  0.00    +0.000 A 
BRANCH  18  21
ATOM     21  C   UNL     1      -2.585  14.583  24.714  0.00  0.00    +0.000 C 
ATOM     22  N   UNL     1      -2.948  15.192  25.632  0.00  0.00    +0.000 NA
ENDBRANCH  18  21
ENDBRANCH  12  15
ENDBRANCH   5   8
BRANCH   7  23
ATOM     23  C   UNL     1       3.651   5.641  18.090  0.00  0.00    +0.000 A 
ATOM     24  N   UNL     1       4.997   5.849  17.859  0.00  0.00    +0.000 N 
ATOM     25  C   UNL     1       5.498   4.853  17.059  0.00  0.00    +0.000 A 
ATOM     26  N   UNL     1       4.548   3.963  16.818  0.00  0.00    +0.000 NA
ATOM     27  C   UNL     1       3.417   4.421  17.460  0.00  0.00    +0.000 A 
ATOM     28  C   UNL     1       2.178   3.608  17.383  0.00  0.00    +0.000 C 
ATOM     29  H   UNL     1       5.546   6.611  18.225  0.00  0.00    +0.000 HD
BRANCH  25  30
ATOM     30  C   UNL     1       6.921   4.866  16.607  0.00  0.00    +0.000 C 
ATOM     31  F   UNL     1       7.717   4.201  17.493  0.00  0.00    +0.000 F 
ATOM     32  F   UNL     1       7.097   4.257  15.408  0.00  0.00    +0.000 F 
ATOM     33  F   UNL     1       7.432   6.121  16.505  0.00  0.00    +0.000 F 
ENDBRANCH  25  30
ENDBRANCH   7  23
TORSDOF 5
ENDMDL
MODEL 3
REMARK VINA RESULT:      -8.4      3.346      4.905
REMARK  Name = 
REMARK  7 active torsions:
REMARK  status: ('A' for Active; 'I' for Inactive)
REMARK    1  A    between atoms: C_1  and  C_2
REMARK    2  A    between atoms: C_5  and  C_6
REMARK    3  A    between atoms: C_10  and  C_12
REMARK    4  A    between atoms: C_15  and  C_16
REMARK    5  A    between atoms: C_22  and  C_23
REMARK    6  A    between atoms: C_25  and  C_26
REMARK    7  A    between atoms: C_31  and  C_32
REMARK                            x       y       z     vdW  Elec       q    Type
REMARK                         _______ _______ _______ _____ _____    ______ ____
ROOT
ATOM      1  C   UNL     1       4.934   4.879  19.695  0.00  0.00    +0.000 C 
ATOM      2  C   UNL     1       3.978   5.933  19.186  0.00  0.00    +0.000 A 
ATOM      3  C   UNL     1       2.886   6.229  20.015  0.00  0.00    +0.000 A 
ATOM      4  C   UNL     1       1.965   7.217  19.674  0.00  0.00    +0.000 A 
ATOM      5  C   UNL     1       2.142   7.957  18.502  0.00  0.00    +0.000 A 
ATOM      6  C   UNL     1       3.202   7.628  17.636  0.00  0.00    +0.000 A 
ATOM      7  C   UNL     1       4.127   6.601  17.943  0.00  0.00    +0.000 A 
ENDROOT
BRANCH   5   8
ATOM      8  C   UNL     1       1.153   9.018  18.127  0.00  0.00    +0.000 C 
ATOM      9  O   UNL     1       0.506   8.902  17.090  0.00  0.00    +0.000 OA
ATOM     10  N   UNL     1       0.978  10.060  19.023  0.00  0.00    +0.000 N 
ATOM     11  C   UNL     1       0.070  11.157  18.928  0.00  0.00    +0.000 C 
ATOM     12  C   UNL     1       1.129  12.270  19.211  0.00  0.00    +0.000 C 
ATOM     13  F   UNL     1       0.912  12.855  17.977  0.00  0.00    +0.000 F 
ATOM     14  C   UNL     1       1.987  10.888  19.592  0.00  0.00    +0.000 C 
BRANCH  12  15
ATOM     15  C   UNL     1       2.432  13.205  19.379  0.00  0.00    +0.000 A 
ATOM     16  C   UNL     1       3.217  13.515  18.231  0.00  0.00    +0.000 A 
ATOM     17  C   UNL     1       4.124  14.572  18.192  0.00  0.00    +0.000 A 
ATOM     18  C   UNL     1       4.303  15.353  19.327  0.00  0.00    +0.000 A 
ATOM     19  C   UNL     1       3.667  14.993  20.519  0.00  0.00    +0.000 A 
ATOM     20  C   UNL     1       2.751  13.925  20.547  0.00  0.00    +0.000 A 
BRANCH  18  21
ATOM     21  C   UNL     1       5.054  16.572  19.231  0.00  0.00    +0.000 C 
ATOM     22  N   UNL     1       5.698  17.535  19.190  0.00  0.00    +0.000 NA
ENDBRANCH  18  21
ENDBRANCH  12  15
ENDBRANCH   5   8
BRANCH   7  23
ATOM     23  C   UNL     1       5.174   6.246  16.963  0.00  0.00    +0.000 A 
ATOM     24  N   UNL     1       4.945   5.407  15.888  0.00  0.00    +0.000 N 
ATOM     25  C   UNL     1       6.101   5.238  15.168  0.00  0.00    +0.000 A 
ATOM     26  N   UNL     1       7.057   5.991  15.688  0.00  0.00    +0.000 NA
ATOM     27  C   UNL     1       6.499   6.629  16.775  0.00  0.00    +0.000 A 
ATOM     28  C   UNL     1       7.341   7.569  17.556  0.00  0.00    +0.000 C 
ATOM     29  H   UNL     1       4.063   4.982  15.651  0.00  0.00    +0.000 HD
BRANCH  25  30
ATOM     30  C   UNL     1       6.147   4.332  13.983  0.00  0.00    +0.000 C 
ATOM     31  F   UNL     1       6.410   3.048  14.364  0.00  0.00    +0.000 F 
ATOM     32  F   UNL     1       4.973   4.293  13.305  0.00  0.00    +0.000 F 
ATOM     33  F   UNL     1       7.118   4.670  13.095  0.00  0.00    +0.000 F 
ENDBRANCH  25  30
ENDBRANCH   7  23
TORSDOF 5
ENDMDL
MODEL 4
REMARK VINA RESULT:      -8.4      3.681     10.759
REMARK  Name = 
REMARK  7 active torsions:
REMARK  status: ('A' for Active; 'I' for Inactive)
REMARK    1  A    between atoms: C_1  and  C_2
REMARK    2  A    between atoms: C_5  and  C_6
REMARK    3  A    between atoms: C_10  and  C_12
REMARK    4  A    between atoms: C_15  and  C_16
REMARK    5  A    between atoms: C_22  and  C_23
REMARK    6  A    between atoms: C_25  and  C_26
REMARK    7  A    between atoms: C_31  and  C_32
REMARK                            x       y       z     vdW  Elec       q    Type
REMARK                         _______ _______ _______ _____ _____    ______ ____
ROOT
ATOM      1  C   UNL     1      -6.843  10.765  18.234  0.00  0.00    +0.000 C 
ATOM      2  C   UNL     1      -5.395  11.164  18.404  0.00  0.00    +0.000 A 
ATOM      3  C   UNL     1      -4.483  10.573  17.517  0.00  0.00    +0.000 A 
ATOM      4  C   UNL     1      -3.129  10.901  17.547  0.00  0.00    +0.000 A 
ATOM      5  C   UNL     1      -2.666  11.860  18.451  0.00  0.00    +0.000 A 
ATOM      6  C   UNL     1      -3.563  12.414  19.382  0.00  0.00    +0.000 A 
ATOM      7  C   UNL     1      -4.936  12.067  19.397  0.00  0.00    +0.000 A 
ENDROOT
BRANCH   5   8
ATOM      8  C   UNL     1      -1.210  12.213  18.491  0.00  0.00    +0.000 C 
ATOM      9  O   UNL     1      -0.767  13.037  17.697  0.00  0.00    +0.000 OA
ATOM     10  N   UNL     1      -0.446  11.621  19.483  0.00  0.00    +0.000 N 
ATOM     11  C   UNL     1       0.938  11.828  19.766  0.00  0.00    +0.000 C 
ATOM     12  C   UNL     1       1.324  10.315  19.805  0.00  0.00    +0.000 C 
ATOM     13  F   UNL     1       2.207  10.466  18.752  0.00  0.00    +0.000 F 
ATOM     14  C   UNL     1      -0.345  10.234  19.784  0.00  0.00    +0.000 C 
BRANCH  12  15
ATOM     15  C   UNL     1       1.469   8.716  19.644  0.00  0.00    +0.000 A 
ATOM     16  C   UNL     1       2.015   8.186  18.440  0.00  0.00    +0.000 A 
ATOM     17  C   UNL     1       2.509   6.888  18.336  0.00  0.00    +0.000 A 
ATOM     18  C   UNL     1       2.449   6.049  19.441  0.00  0.00    +0.000 A 
ATOM     19  C   UNL     1       1.786   6.477  20.596  0.00  0.00    +0.000 A 
ATOM     20  C   UNL     1       1.292   7.791  20.692  0.00  0.00    +0.000 A 
BRANCH  18  21
ATOM     21  C   UNL     1       3.155   4.801  19.417  0.00  0.00    +0.000 C 
ATOM     22  N   UNL     1       3.677   3.765  19.385  0.00  0.00    +0.000 NA
ENDBRANCH  18  21
ENDBRANCH  12  15
ENDBRANCH   5   8
BRANCH   7  23
ATOM     23  C   UNL     1      -5.817  12.621  20.446  0.00  0.00    +0.000 A 
ATOM     24  N   UNL     1      -5.639  12.362  21.792  0.00  0.00    +0.000 N 
ATOM     25  C   UNL     1      -6.618  12.984  22.525  0.00  0.00    +0.000 A 
ATOM     26  N   UNL     1      -7.386  13.698  21.717  0.00  0.00    +0.000 NA
ATOM     27  C   UNL     1      -6.895  13.502  20.444  0.00  0.00    +0.000 A 
ATOM     28  C   UNL     1      -7.553  14.204  19.313  0.00  0.00    +0.000 C 
ATOM     29  H   UNL     1      -4.899  11.808  22.192  0.00  0.00    +0.000 HD
BRANCH  25  30
ATOM     30  C   UNL     1      -6.694  12.823  24.007  0.00  0.00    +0.000 C 
ATOM     31  F   UNL     1      -6.462  11.527  24.367  0.00  0.00    +0.000 F 
ATOM     32  F   UNL     1      -5.772  13.570  24.665  0.00  0.00    +0.000 F 
ATOM     33  F   UNL     1      -7.913  13.144  24.513  0.00  0.00    +0.000 F 
ENDBRANCH  25  30
ENDBRANCH   7  23
TORSDOF 5
ENDMDL
MODEL 5
REMARK VINA RESULT:      -8.4      1.170      1.596
REMARK  Name = 
REMARK  7 active torsions:
REMARK  status: ('A' for Active; 'I' for Inactive)
REMARK    1  A    between atoms: C_1  and  C_2
REMARK    2  A    between atoms: C_5  and  C_6
REMARK    3  A    between atoms: C_10  and  C_12
REMARK    4  A    between atoms: C_15  and  C_16
REMARK    5  A    between atoms: C_22  and  C_23
REMARK    6  A    between atoms: C_25  and  C_26
REMARK    7  A    between atoms: C_31  and  C_32
REMARK                            x       y       z     vdW  Elec       q    Type
REMARK                         _______ _______ _______ _____ _____    ______ ____
ROOT
ATOM      1  C   UNL     1       2.109   5.508  20.971  0.00  0.00    +0.000 C 
ATOM      2  C   UNL     1       1.865   6.842  20.304  0.00  0.00    +0.000 A 
ATOM      3  C   UNL     1       1.086   7.760  21.025  0.00  0.00    +0.000 A 
ATOM      4  C   UNL     1       0.835   9.039  20.532  0.00  0.00    +0.000 A 
ATOM      5  C   UNL     1       1.391   9.437  19.314  0.00  0.00    +0.000 A 
ATOM      6  C   UNL     1       2.125   8.504  18.558  0.00  0.00    +0.000 A 
ATOM      7  C   UNL     1       2.360   7.186  19.020  0.00  0.00    +0.000 A 
ENDROOT
BRANCH   5   8
ATOM      8  C   UNL     1       1.121  10.809  18.777  0.00  0.00    +0.000 C 
ATOM      9  O   UNL     1       2.056  11.585  18.605  0.00  0.00    +0.000 OA
ATOM     10  N   UNL     1      -0.190  11.107  18.443  0.00  0.00    +0.000 N 
ATOM     11  C   UNL     1      -0.698  12.312  17.869  0.00  0.00    +0.000 C 
ATOM     12  C   UNL     1      -1.854  12.508  18.901  0.00  0.00    +0.000 C 
ATOM     13  F   UNL     1      -1.337  13.719  19.321  0.00  0.00    +0.000 F 
ATOM     14  C   UNL     1      -1.346  10.957  19.260  0.00  0.00    +0.000 C 
BRANCH  12  15
ATOM     15  C   UNL     1      -2.855  12.543  20.167  0.00  0.00    +0.000 A 
ATOM     16  C   UNL     1      -2.419  13.153  21.378  0.00  0.00    +0.000 A 
ATOM     17  C   UNL     1      -3.294  13.553  22.386  0.00  0.00    +0.000 A 
ATOM     18  C   UNL     1      -4.656  13.329  22.229  0.00  0.00    +0.000 A 
ATOM     19  C   UNL     1      -5.112  12.600  21.125  0.00  0.00    +0.000 A 
ATOM     20  C   UNL     1      -4.220  12.202  20.113  0.00  0.00    +0.000 A 
BRANCH  18  21
ATOM     21  C   UNL     1      -5.579  13.936  23.143  0.00  0.00    +0.000 C 
ATOM     22  N   UNL     1      -6.319  14.383  23.917  0.00  0.00    +0.000 NA
ENDBRANCH  18  21
ENDBRANCH  12  15
ENDBRANCH   5   8
BRANCH   7  23
ATOM     23  C   UNL     1       3.071   6.225  18.151  0.00  0.00    +0.000 A 
ATOM     24  N   UNL     1       4.374   6.413  17.729  0.00  0.00    +0.000 N 
ATOM     25  C   UNL     1       4.759   5.378  16.914  0.00  0.00    +0.000 A 
ATOM     26  N   UNL     1       3.784   4.486  16.846  0.00  0.00    +0.000 NA
ATOM     27  C   UNL     1       2.752   4.981  17.614  0.00  0.00    +0.000 A 
ATOM     28  C   UNL     1       1.512   4.174  17.743  0.00  0.00    +0.000 C 
ATOM     29  H   UNL     1       4.969   7.186  17.982  0.00  0.00    +0.000 HD
BRANCH  25  30
ATOM     30  C   UNL     1       6.107   5.360  16.274  0.00  0.00    +0.000 C 
ATOM     31  F   UNL     1       6.012   5.611  14.936  0.00  0.00    +0.000 F 
ATOM     32  F   UNL     1       6.942   6.303  16.778  0.00  0.00    +0.000 F 
ATOM     33  F   UNL     1       6.733   4.159  16.390  0.00  0.00    +0.000 F 
ENDBRANCH  25  30
ENDBRANCH   7  23
TORSDOF 5
ENDMDL
MODEL 6
REMARK VINA RESULT:      -8.3      3.652      9.542
REMARK  Name = 
REMARK  7 active torsions:
REMARK  status: ('A' for Active; 'I' for Inactive)
REMARK    1  A    between atoms: C_1  and  C_2
REMARK    2  A    between atoms: C_5  and  C_6
REMARK    3  A    between atoms: C_10  and  C_12
REMARK    4  A    between atoms: C_15  and  C_16
REMARK    5  A    between atoms: C_22  and  C_23
REMARK    6  A    between atoms: C_25  and  C_26
REMARK    7  A    between atoms: C_31  and  C_32
REMARK                            x       y       z     vdW  Elec       q    Type
REMARK                         _______ _______ _______ _____ _____    ______ ____
ROOT
ATOM      1  C   UNL     1      -0.963  13.014  18.209  0.00  0.00    +0.000 C 
ATOM      2  C   UNL     1      -0.279  11.898  18.964  0.00  0.00    +0.000 A 
ATOM      3  C   UNL     1      -1.015  10.713  19.118  0.00  0.00    +0.000 A 
ATOM      4  C   UNL     1      -0.470   9.600  19.753  0.00  0.00    +0.000 A 
ATOM      5  C   UNL     1       0.846   9.641  20.220  0.00  0.00    +0.000 A 
ATOM      6  C   UNL     1       1.571  10.843  20.122  0.00  0.00    +0.000 A 
ATOM      7  C   UNL     1       1.024  12.000  19.516  0.00  0.00    +0.000 A 
ENDROOT
BRANCH   5   8
ATOM      8  C   UNL     1       1.436   8.448  20.908  0.00  0.00    +0.000 C 
ATOM      9  O   UNL     1       1.913   8.573  22.032  0.00  0.00    +0.000 OA
ATOM     10  N   UNL     1       1.353   7.234  20.246  0.00  0.00    +0.000 N 
ATOM     11  C   UNL     1       1.786   5.953  20.702  0.00  0.00    +0.000 C 
ATOM     12  C   UNL     1       2.593   5.587  19.416  0.00  0.00    +0.000 C 
ATOM     13  F   UNL     1       3.775   5.494  20.128  0.00  0.00    +0.000 F 
ATOM     14  C   UNL     1       1.762   6.947  18.913  0.00  0.00    +0.000 C 
BRANCH  12  15
ATOM     15  C   UNL     1       3.456   5.531  18.054  0.00  0.00    +0.000 A 
ATOM     16  C   UNL     1       4.233   6.665  17.677  0.00  0.00    +0.000 A 
ATOM     17  C   UNL     1       5.267   6.602  16.747  0.00  0.00    +0.000 A 
ATOM     18  C   UNL     1       5.550   5.392  16.128  0.00  0.00    +0.000 A 
ATOM     19  C   UNL     1       4.719   4.290  16.355  0.00  0.00    +0.000 A 
ATOM     20  C   UNL     1       3.677   4.363  17.298  0.00  0.00    +0.000 A 
BRANCH  18  21
ATOM     21  C   UNL     1       6.748   5.263  15.348  0.00  0.00    +0.000 C 
ATOM     22  N   UNL     1       7.729   5.212  14.732  0.00  0.00    +0.000 NA
ENDBRANCH  18  21
ENDBRANCH  12  15
ENDBRANCH   5   8
BRANCH   7  23
ATOM     23  C   UNL     1       1.802  13.256  19.509  0.00  0.00    +0.000 A 
ATOM     24  N   UNL     1       2.581  13.653  18.439  0.00  0.00    +0.000 N 
ATOM     25  C   UNL     1       3.206  14.841  18.726  0.00  0.00    +0.000 A 
ATOM     26  N   UNL     1       2.808  15.271  19.913  0.00  0.00    +0.000 NA
ATOM     27  C   UNL     1       1.933  14.322  20.396  0.00  0.00    +0.000 A 
ATOM     28  C   UNL     1       1.301  14.546  21.720  0.00  0.00    +0.000 C 
ATOM     29  H   UNL     1       2.679  13.159  17.567  0.00  0.00    +0.000 HD
BRANCH  25  30
ATOM     30  C   UNL     1       4.154  15.468  17.759  0.00  0.00    +0.000 C 
ATOM     31  F   UNL     1       3.528  15.754  16.581  0.00  0.00    +0.000 F 
ATOM     32  F   UNL     1       4.665  16.641  18.211  0.00  0.00    +0.000 F 
ATOM     33  F   UNL     1       5.202  14.662  17.446  0.00  0.00    +0.000 F 
ENDBRANCH  25  30
ENDBRANCH   7  23
TORSDOF 5
ENDMDL
MODEL 7
REMARK VINA RESULT:      -8.2      3.341     10.172
REMARK  Name = 
REMARK  7 active torsions:
REMARK  status: ('A' for Active; 'I' for Inactive)
REMARK    1  A    between atoms: C_1  and  C_2
REMARK    2  A    between atoms: C_5  and  C_6
REMARK    3  A    between atoms: C_10  and  C_12
REMARK    4  A    between atoms: C_15  and  C_16
REMARK    5  A    between atoms: C_22  and  C_23
REMARK    6  A    between atoms: C_25  and  C_26
REMARK    7  A    between atoms: C_31  and  C_32
REMARK                            x       y       z     vdW  Elec       q    Type
REMARK                         _______ _______ _______ _____ _____    ______ ____
ROOT
ATOM      1  C   UNL     1      -0.481  13.817  18.417  0.00  0.00    +0.000 C 
ATOM      2  C   UNL     1      -0.097  12.501  19.051  0.00  0.00    +0.000 A 
ATOM      3  C   UNL     1       1.228  12.395  19.501  0.00  0.00    +0.000 A 
ATOM      4  C   UNL     1       1.683  11.246  20.146  0.00  0.00    +0.000 A 
ATOM      5  C   UNL     1       0.804  10.188  20.384  0.00  0.00    +0.000 A 
ATOM      6  C   UNL     1      -0.510  10.262  19.885  0.00  0.00    +0.000 A 
ATOM      7  C   UNL     1      -0.984  11.403  19.192  0.00  0.00    +0.000 A 
ENDROOT
BRANCH   5   8
ATOM      8  C   UNL     1       1.289   8.949  21.073  0.00  0.00    +0.000 C 
ATOM      9  O   UNL     1       1.725   9.026  22.217  0.00  0.00    +0.000 OA
ATOM     10  N   UNL     1       1.158   7.753  20.385  0.00  0.00    +0.000 N 
ATOM     11  C   UNL     1       1.491   6.440  20.834  0.00  0.00    +0.000 C 
ATOM     12  C   UNL     1       2.327   6.045  19.575  0.00  0.00    +0.000 C 
ATOM     13  F   UNL     1       3.469   5.867  20.333  0.00  0.00    +0.000 F 
ATOM     14  C   UNL     1       1.604   7.463  19.065  0.00  0.00    +0.000 C 
BRANCH  12  15
ATOM     15  C   UNL     1       3.241   5.956  18.249  0.00  0.00    +0.000 A 
ATOM     16  C   UNL     1       4.160   7.009  17.968  0.00  0.00    +0.000 A 
ATOM     17  C   UNL     1       5.223   6.872  17.079  0.00  0.00    +0.000 A 
ATOM     18  C   UNL     1       5.394   5.669  16.406  0.00  0.00    +0.000 A 
ATOM     19  C   UNL     1       4.431   4.663  16.537  0.00  0.00    +0.000 A 
ATOM     20  C   UNL     1       3.361   4.810  17.439  0.00  0.00    +0.000 A 
BRANCH  18  21
ATOM     21  C   UNL     1       6.604   5.440  15.670  0.00  0.00    +0.000 C 
ATOM     22  N   UNL     1       7.608   5.292  15.109  0.00  0.00    +0.000 NA
ENDBRANCH  18  21
ENDBRANCH  12  15
ENDBRANCH   5   8
BRANCH   7  23
ATOM     23  C   UNL     1      -2.348  11.395  18.624  0.00  0.00    +0.000 A 
ATOM     24  N   UNL     1      -3.398  12.102  19.178  0.00  0.00    +0.000 N 
ATOM     25  C   UNL     1      -4.545  11.886  18.456  0.00  0.00    +0.000 A 
ATOM     26  N   UNL     1      -4.269  11.123  17.410  0.00  0.00    +0.000 NA
ATOM     27  C   UNL     1      -2.924  10.832  17.488  0.00  0.00    +0.000 A 
ATOM     28  C   UNL     1      -2.315   9.997  16.422  0.00  0.00    +0.000 C 
ATOM     29  H   UNL     1      -3.344  12.699  19.988  0.00  0.00    +0.000 HD
BRANCH  25  30
ATOM     30  C   UNL     1      -5.846  12.488  18.873  0.00  0.00    +0.000 C 
ATOM     31  F   UNL     1      -5.695  13.812  19.167  0.00  0.00    +0.000 F 
ATOM     32  F   UNL     1      -6.791  12.420  17.902  0.00  0.00    +0.000 F 
ATOM     33  F   UNL     1      -6.365  11.909  19.987  0.00  0.00    +0.000 F 
ENDBRANCH  25  30
ENDBRANCH   7  23
TORSDOF 5
ENDMDL
MODEL 8
REMARK VINA RESULT:      -8.2      2.472     10.582
REMARK  Name = 
REMARK  7 active torsions:
REMARK  status: ('A' for Active; 'I' for Inactive)
REMARK    1  A    between atoms: C_1  and  C_2
REMARK    2  A    between atoms: C_5  and  C_6
REMARK    3  A    between atoms: C_10  and  C_12
REMARK    4  A    between atoms: C_15  and  C_16
REMARK    5  A    between atoms: C_22  and  C_23
REMARK    6  A    between atoms: C_25  and  C_26
REMARK    7  A    between atoms: C_31  and  C_32
REMARK                            x       y       z     vdW  Elec       q    Type
REMARK                         _______ _______ _______ _____ _____    ______ ____
ROOT
ATOM      1  C   UNL     1       1.358  11.474  18.435  0.00  0.00    +0.000 C 
ATOM      2  C   UNL     1       1.499  10.032  18.863  0.00  0.00    +0.000 A 
ATOM      3  C   UNL     1       2.245   9.204  18.011  0.00  0.00    +0.000 A 
ATOM      4  C   UNL     1       2.483   7.868  18.328  0.00  0.00    +0.000 A 
ATOM      5  C   UNL     1       2.003   7.341  19.529  0.00  0.00    +0.000 A 
ATOM      6  C   UNL     1       1.205   8.148  20.361  0.00  0.00    +0.000 A 
ATOM      7  C   UNL     1       0.916   9.497  20.042  0.00  0.00    +0.000 A 
ENDROOT
BRANCH   5   8
ATOM      8  C   UNL     1       2.252   5.904  19.872  0.00  0.00    +0.000 C 
ATOM      9  O   UNL     1       2.280   5.560  21.049  0.00  0.00    +0.000 OA
ATOM     10  N   UNL     1       2.379   5.017  18.814  0.00  0.00    +0.000 N 
ATOM     11  C   UNL     1       2.566   3.603  18.871  0.00  0.00    +0.000 C 
ATOM     12  C   UNL     1       3.781   3.561  17.891  0.00  0.00    +0.000 C 
ATOM     13  F   UNL     1       4.608   3.034  18.865  0.00  0.00    +0.000 F 
ATOM     14  C   UNL     1       3.245   5.131  17.691  0.00  0.00    +0.000 C 
BRANCH  12  15
ATOM     15  C   UNL     1       5.087   3.821  16.980  0.00  0.00    +0.000 A 
ATOM     16  C   UNL     1       5.137   3.272  15.666  0.00  0.00    +0.000 A 
ATOM     17  C   UNL     1       6.023   3.718  14.689  0.00  0.00    +0.000 A 
ATOM     18  C   UNL     1       6.926   4.726  15.002  0.00  0.00    +0.000 A 
ATOM     19  C   UNL     1       7.013   5.189  16.319  0.00  0.00    +0.000 A 
ATOM     20  C   UNL     1       6.112   4.732  17.298  0.00  0.00    +0.000 A 
BRANCH  18  21
ATOM     21  C   UNL     1       7.679   5.348  13.951  0.00  0.00    +0.000 C 
ATOM     22  N   UNL     1       8.336   5.832  13.126  0.00  0.00    +0.000 NA
ENDBRANCH  18  21
ENDBRANCH  12  15
ENDBRANCH   5   8
BRANCH   7  23
ATOM     23  C   UNL     1       0.010  10.274  20.912  0.00  0.00    +0.000 A 
ATOM     24  N   UNL     1      -0.872  11.220  20.426  0.00  0.00    +0.000 N 
ATOM     25  C   UNL     1      -1.562  11.798  21.462  0.00  0.00    +0.000 A 
ATOM     26  N   UNL     1      -1.216  11.216  22.600  0.00  0.00    +0.000 NA
ATOM     27  C   UNL     1      -0.270  10.267  22.276  0.00  0.00    +0.000 A 
ATOM     28  C   UNL     1       0.296   9.429  23.363  0.00  0.00    +0.000 C 
ATOM     29  H   UNL     1      -1.007  11.456  19.456  0.00  0.00    +0.000 HD
BRANCH  25  30
ATOM     30  C   UNL     1      -2.543  12.896  21.220  0.00  0.00    +0.000 C 
ATOM     31  F   UNL     1      -3.294  12.640  20.110  0.00  0.00    +0.000 F 
ATOM     32  F   UNL     1      -3.421  13.052  22.243  0.00  0.00    +0.000 F 
ATOM     33  F   UNL     1      -1.950  14.100  21.007  0.00  0.00    +0.000 F 
ENDBRANCH  25  30
ENDBRANCH   7  23
TORSDOF 5
ENDMDL
MODEL 9
REMARK VINA RESULT:      -8.1      3.162      4.345
REMARK  Name = 
REMARK  7 active torsions:
REMARK  status: ('A' for Active; 'I' for Inactive)
REMARK    1  A    between atoms: C_1  and  C_2
REMARK    2  A    between atoms: C_5  and  C_6
REMARK    3  A    between atoms: C_10  and  C_12
REMARK    4  A    between atoms: C_15  and  C_16
REMARK    5  A    between atoms: C_22  and  C_23
REMARK    6  A    between atoms: C_25  and  C_26
REMARK    7  A    between atoms: C_31  and  C_32
REMARK                            x       y       z     vdW  Elec       q    Type
REMARK                         _______ _______ _______ _____ _____    ______ ____
ROOT
ATOM      1  C   UNL     1       2.573   2.823  18.408  0.00  0.00    +0.000 C 
ATOM      2  C   UNL     1       2.380   4.223  18.942  0.00  0.00    +0.000 A 
ATOM      3  C   UNL     1       1.189   4.458  19.646  0.00  0.00    +0.000 A 
ATOM      4  C   UNL     1       0.924   5.697  20.226  0.00  0.00    +0.000 A 
ATOM      5  C   UNL     1       1.868   6.722  20.139  0.00  0.00    +0.000 A 
ATOM      6  C   UNL     1       3.039   6.514  19.386  0.00  0.00    +0.000 A 
ATOM      7  C   UNL     1       3.313   5.276  18.754  0.00  0.00    +0.000 A 
ENDROOT
BRANCH   5   8
ATOM      8  C   UNL     1       1.586   8.058  20.757  0.00  0.00    +0.000 C 
ATOM      9  O   UNL     1       1.528   8.157  21.978  0.00  0.00    +0.000 OA
ATOM     10  N   UNL     1       1.465   9.136  19.896  0.00  0.00    +0.000 N 
ATOM     11  C   UNL     1       1.251  10.507  20.231  0.00  0.00    +0.000 C 
ATOM     12  C   UNL     1       0.056  10.730  19.250  0.00  0.00    +0.000 C 
ATOM     13  F   UNL     1      -0.801  11.039  20.291  0.00  0.00    +0.000 F 
ATOM     14  C   UNL     1       0.624   9.239  18.752  0.00  0.00    +0.000 C 
BRANCH  12  15
ATOM     15  C   UNL     1      -1.226  10.640  18.275  0.00  0.00    +0.000 A 
ATOM     16  C   UNL     1      -1.508  11.727  17.397  0.00  0.00    +0.000 A 
ATOM     17  C   UNL     1      -2.346  11.612  16.291  0.00  0.00    +0.000 A 
ATOM     18  C   UNL     1      -2.965  10.397  16.032  0.00  0.00    +0.000 A 
ATOM     19  C   UNL     1      -2.837   9.348  16.950  0.00  0.00    +0.000 A 
ATOM     20  C   UNL     1      -1.986   9.473  18.064  0.00  0.00    +0.000 A 
BRANCH  18  21
ATOM     21  C   UNL     1      -3.640  10.202  14.781  0.00  0.00    +0.000 C 
ATOM     22  N   UNL     1      -4.158   9.995  13.764  0.00  0.00    +0.000 NA
ENDBRANCH  18  21
ENDBRANCH  12  15
ENDBRANCH   5   8
BRANCH   7  23
ATOM     23  C   UNL     1       4.519   5.139  17.913  0.00  0.00    +0.000 A 
ATOM     24  N   UNL     1       4.464   4.900  16.553  0.00  0.00    +0.000 N 
ATOM     25  C   UNL     1       5.733   4.792  16.041  0.00  0.00    +0.000 A 
ATOM     26  N   UNL     1       6.615   5.024  17.001  0.00  0.00    +0.000 NA
ATOM     27  C   UNL     1       5.886   5.258  18.148  0.00  0.00    +0.000 A 
ATOM     28  C   UNL     1       6.616   5.571  19.402  0.00  0.00    +0.000 C 
ATOM     29  H   UNL     1       3.624   4.822  16.002  0.00  0.00    +0.000 HD
BRANCH  25  30
ATOM     30  C   UNL     1       5.962   4.478  14.600  0.00  0.00    +0.000 C 
ATOM     31  F   UNL     1       6.853   5.352  14.049  0.00  0.00    +0.000 F 
ATOM     32  F   UNL     1       6.479   3.238  14.408  0.00  0.00    +0.000 F 
ATOM     33  F   UNL     1       4.831   4.567  13.853  0.00  0.00    +0.000 F 
ENDBRANCH  25  30
ENDBRANCH   7  23
TORSDOF 5
ENDMDL
