MODEL 1
REMARK VINA RESULT:      -7.8      0.000      0.000
REMARK  Name = 
REMARK  7 active torsions:
REMARK  status: ('A' for Active; 'I' for Inactive)
REMARK    1  A    between atoms: C_1  and  C_2
REMARK    2  A    between atoms: C_6  and  C_7
REMARK    3  A    between atoms: C_7  and  O_8
REMARK    4  A    between atoms: O_8  and  C_9
REMARK    5  A    between atoms: C_9  and  C_11
REMARK    6  A    between atoms: C_11  and  N_12
REMARK    7  A    between atoms: C_13  and  C_15
REMARK                            x       y       z     vdW  Elec       q    Type
REMARK                         _______ _______ _______ _____ _____    ______ ____
ROOT
ATOM      1  O   UNL     1       1.342   4.362  20.418  0.00  0.00    +0.000 OA
ENDROOT
BRANCH   1   2
ATOM      2  C   UNL     1       1.756   3.137  20.836  0.00  0.00    +0.000 C 
ATOM      3  O   UNL     1       1.845   2.777  22.004  0.00  0.00    +0.000 OA
BRANCH   2   4
ATOM      4  C   UNL     1       2.205   2.300  19.649  0.00  0.00    +0.000 C 
BRANCH   4   5
ATOM      5  N   UNL     1       3.413   2.846  19.058  0.00  0.00    +0.000 N 
ATOM      6  C   UNL     1       3.410   3.303  17.754  0.00  0.00    +0.000 C 
ATOM      7  O   UNL     1       2.426   3.266  17.028  0.00  0.00    +0.000 OA
ATOM      8  H   UNL     1       4.142   3.160  19.685  0.00  0.00    +0.000 HD
BRANCH   6   9
ATOM      9  C   UNL     1       4.688   3.894  17.271  0.00  0.00    +0.000 A 
ATOM     10  C   UNL     1       5.718   4.219  18.163  0.00  0.00    +0.000 A 
ATOM     11  C   UNL     1       6.901   4.784  17.686  0.00  0.00    +0.000 A 
ATOM     12  C   UNL     1       7.063   5.016  16.320  0.00  0.00    +0.000 A 
ATOM     13  C   UNL     1       6.049   4.671  15.426  0.00  0.00    +0.000 A 
ATOM     14  C   UNL     1       4.863   4.104  15.898  0.00  0.00    +0.000 A 
ENDBRANCH   6   9
ENDBRANCH   4   5
ENDBRANCH   2   4
ENDBRANCH   1   2
BRANCH   1  15
ATOM     15  C   UNL     1       1.967   5.490  21.039  0.00  0.00    +0.000 C 
BRANCH  15  21
ATOM     16  C   UNL     1      -0.516  11.779  20.658  0.00  0.00    +0.000 C 
ATOM     17  C   UNL     1       0.126  10.430  20.521  0.00  0.00    +0.000 A 
ATOM     18  C   UNL     1      -0.098   9.417  21.457  0.00  0.00    +0.000 A 
ATOM     19  C   UNL     1       0.521   8.163  21.325  0.00  0.00    +0.000 A 
ATOM     20  C   UNL     1       1.382   7.894  20.252  0.00  0.00    +0.000 A 
ATOM     21  C   UNL     1       2.094   6.621  20.057  0.00  0.00    +0.000 A 
ATOM     22  C   UNL     1       2.874   6.488  18.973  0.00  0.00    +0.000 A 
ATOM     23  C   UNL     1       3.065   7.549  17.971  0.00  0.00    +0.000 A 
ATOM     24  O   UNL     1       3.769   7.358  16.989  0.00  0.00    +0.000 OA
ATOM     25  O   UNL     1       2.417   8.746  18.203  0.00  0.00    +0.000 OA
ATOM     26  C   UNL     1       1.582   8.918  19.324  0.00  0.00    +0.000 A 
ATOM     27  C   UNL     1       0.974  10.171  19.443  0.00  0.00    +0.000 A 
ENDBRANCH  15  21
ENDBRANCH   1  15
TORSDOF 6
ENDMDL
MODEL 2
REMARK VINA RESULT:      -7.7      4.889      7.219
REMARK  Name = 
REMARK  7 active torsions:
REMARK  status: ('A' for Active; 'I' for Inactive)
REMARK    1  A    between atoms: C_1  and  C_2
REMARK    2  A    between atoms: C_6  and  C_7
REMARK    3  A    between atoms: C_7  and  O_8
REMARK    4  A    between atoms: O_8  and  C_9
REMARK    5  A    between atoms: C_9  and  C_11
REMARK    6  A    between atoms: C_11  and  N_12
REMARK    7  A    between atoms: C_13  and  C_15
REMARK                            x       y       z     vdW  Elec       q    Type
REMARK                         _______ _______ _______ _____ _____    ______ ____
ROOT
ATOM      1  O   UNL     1       7.207   6.024  16.934  0.00  0.00    +0.000 OA
ENDROOT
BRANCH   1   2
ATOM      2  C   UNL     1       7.705   6.747  17.971  0.00  0.00    +0.000 C 
ATOM      3  O   UNL     1       8.153   6.281  19.013  0.00  0.00    +0.000 OA
BRANCH   2   4
ATOM      4  C   UNL     1       7.525   8.233  17.711  0.00  0.00    +0.000 C 
BRANCH   4   5
ATOM      5  N   UNL     1       8.607   8.999  18.302  0.00  0.00    +0.000 N 
ATOM      6  C   UNL     1       8.702  10.359  18.088  0.00  0.00    +0.000 C 
ATOM      7  O   UNL     1       7.914  10.990  17.395  0.00  0.00    +0.000 OA
ATOM      8  H   UNL     1       9.092   8.593  19.092  0.00  0.00    +0.000 HD
BRANCH   6   9
ATOM      9  C   UNL     1       9.818  11.051  18.789  0.00  0.00    +0.000 A 
ATOM     10  C   UNL     1       9.735  11.359  20.153  0.00  0.00    +0.000 A 
ATOM     11  C   UNL     1      10.790  12.019  20.784  0.00  0.00    +0.000 A 
ATOM     12  C   UNL     1      11.931  12.364  20.060  0.00  0.00    +0.000 A 
ATOM     13  C   UNL     1      12.027  12.037  18.707  0.00  0.00    +0.000 A 
ATOM     14  C   UNL     1      10.975  11.375  18.071  0.00  0.00    +0.000 A 
ENDBRANCH   6   9
ENDBRANCH   4   5
ENDBRANCH   2   4
ENDBRANCH   1   2
BRANCH   1  15
ATOM     15  C   UNL     1       6.336   4.940  17.274  0.00  0.00    +0.000 C 
BRANCH  15  21
ATOM     16  C   UNL     1       1.565   2.750  21.552  0.00  0.00    +0.000 C 
ATOM     17  C   UNL     1       2.465   3.415  20.553  0.00  0.00    +0.000 A 
ATOM     18  C   UNL     1       3.660   2.820  20.138  0.00  0.00    +0.000 A 
ATOM     19  C   UNL     1       4.501   3.460  19.213  0.00  0.00    +0.000 A 
ATOM     20  C   UNL     1       4.167   4.714  18.684  0.00  0.00    +0.000 A 
ATOM     21  C   UNL     1       5.006   5.466  17.737  0.00  0.00    +0.000 A 
ATOM     22  C   UNL     1       4.558   6.649  17.290  0.00  0.00    +0.000 A 
ATOM     23  C   UNL     1       3.277   7.244  17.703  0.00  0.00    +0.000 A 
ATOM     24  O   UNL     1       2.909   8.315  17.241  0.00  0.00    +0.000 OA
ATOM     25  O   UNL     1       2.531   6.534  18.624  0.00  0.00    +0.000 OA
ATOM     26  C   UNL     1       2.965   5.285  19.106  0.00  0.00    +0.000 A 
ATOM     27  C   UNL     1       2.118   4.660  20.025  0.00  0.00    +0.000 A 
ENDBRANCH  15  21
ENDBRANCH   1  15
TORSDOF 6
ENDMDL
MODEL 3
REMARK VINA RESULT:      -7.6      2.184      7.847
REMARK  Name = 
REMARK  7 active torsions:
REMARK  status: ('A' for Active; 'I' for Inactive)
REMARK    1  A    between atoms: C_1  and  C_2
REMARK    2  A    between atoms: C_6  and  C_7
REMARK    3  A    between atoms: C_7  and  O_8
REMARK    4  A    between atoms: O_8  and  C_9
REMARK    5  A    between atoms: C_9  and  C_11
REMARK    6  A    between atoms: C_11  and  N_12
REMARK    7  A    between atoms: C_13  and  C_15
REMARK                            x       y       z     vdW  Elec       q    Type
REMARK                         _______ _______ _______ _____ _____    ______ ____
ROOT
ATOM      1  O   UNL     1       3.845   4.796  19.370  0.00  0.00    +0.000 OA
ENDROOT
BRANCH   1   2
ATOM      2  C   UNL     1       2.759   5.408  19.911  0.00  0.00    +0.000 C 
ATOM      3  O   UNL     1       1.904   4.862  20.599  0.00  0.00    +0.000 OA
BRANCH   2   4
ATOM      4  C   UNL     1       2.687   6.854  19.450  0.00  0.00    +0.000 C 
BRANCH   4   5
ATOM      5  N   UNL     1       1.932   7.661  20.391  0.00  0.00    +0.000 N 
ATOM      6  C   UNL     1       1.274   8.799  19.969  0.00  0.00    +0.000 C 
ATOM      7  O   UNL     1       1.294   9.200  18.813  0.00  0.00    +0.000 OA
ATOM      8  H   UNL     1       1.651   7.228  21.262  0.00  0.00    +0.000 HD
BRANCH   6   9
ATOM      9  C   UNL     1       0.486   9.517  21.007  0.00  0.00    +0.000 A 
ATOM     10  C   UNL     1      -0.248  10.669  20.691  0.00  0.00    +0.000 A 
ATOM     11  C   UNL     1      -0.969  11.330  21.686  0.00  0.00    +0.000 A 
ATOM     12  C   UNL     1      -0.969  10.841  22.992  0.00  0.00    +0.000 A 
ATOM     13  C   UNL     1      -0.259   9.681  23.304  0.00  0.00    +0.000 A 
ATOM     14  C   UNL     1       0.463   9.013  22.312  0.00  0.00    +0.000 A 
ENDBRANCH   6   9
ENDBRANCH   4   5
ENDBRANCH   2   4
ENDBRANCH   1   2
BRANCH   1  15
ATOM     15  C   UNL     1       3.862   4.675  17.944  0.00  0.00    +0.000 C 
BRANCH  15  21
ATOM     16  C   UNL     1       7.082   4.008  12.024  0.00  0.00    +0.000 C 
ATOM     17  C   UNL     1       6.573   4.265  13.411  0.00  0.00    +0.000 A 
ATOM     18  C   UNL     1       5.356   3.736  13.852  0.00  0.00    +0.000 A 
ATOM     19  C   UNL     1       4.884   3.997  15.149  0.00  0.00    +0.000 A 
ATOM     20  C   UNL     1       5.619   4.796  16.036  0.00  0.00    +0.000 A 
ATOM     21  C   UNL     1       5.181   5.144  17.397  0.00  0.00    +0.000 A 
ATOM     22  C   UNL     1       5.991   5.902  18.152  0.00  0.00    +0.000 A 
ATOM     23  C   UNL     1       7.291   6.415  17.689  0.00  0.00    +0.000 A 
ATOM     24  O   UNL     1       7.998   7.081  18.433  0.00  0.00    +0.000 OA
ATOM     25  O   UNL     1       7.655   6.107  16.393  0.00  0.00    +0.000 OA
ATOM     26  C   UNL     1       6.835   5.305  15.577  0.00  0.00    +0.000 A 
ATOM     27  C   UNL     1       7.317   5.055  14.289  0.00  0.00    +0.000 A 
ENDBRANCH  15  21
ENDBRANCH   1  15
TORSDOF 6
ENDMDL
MODEL 4
REMARK VINA RESULT:      -7.6      0.792      1.226
REMARK  Name = 
REMARK  7 active torsions:
REMARK  status: ('A' for Active; 'I' for Inactive)
REMARK    1  A    between atoms: C_1  and  C_2
REMARK    2  A    between atoms: C_6  and  C_7
REMARK    3  A    between atoms: C_7  and  O_8
REMARK    4  A    between atoms: O_8  and  C_9
REMARK    5  A    between atoms: C_9  and  C_11
REMARK    6  A    between atoms: C_11  and  N_12
REMARK    7  A    between atoms: C_13  and  C_15
REMARK                            x       y       z     vdW  Elec       q    Type
REMARK                         _______ _______ _______ _____ _____    ______ ____
ROOT
ATOM      1  O   UNL     1       2.499   4.019  20.248  0.00  0.00    +0.000 OA
ENDROOT
BRANCH   1   2
ATOM      2  C   UNL     1       2.893   2.986  21.039  0.00  0.00    +0.000 C 
ATOM      3  O   UNL     1       2.511   2.783  22.186  0.00  0.00    +0.000 OA
BRANCH   2   4
ATOM      4  C   UNL     1       3.970   2.171  20.342  0.00  0.00    +0.000 C 
BRANCH   4   5
ATOM      5  N   UNL     1       4.757   3.004  19.451  0.00  0.00    +0.000 N 
ATOM      6  C   UNL     1       4.466   3.058  18.102  0.00  0.00    +0.000 C 
ATOM      7  O   UNL     1       3.565   2.417  17.580  0.00  0.00    +0.000 OA
ATOM      8  H   UNL     1       5.300   3.751  19.865  0.00  0.00    +0.000 HD
BRANCH   6   9
ATOM      9  C   UNL     1       5.301   3.989  17.295  0.00  0.00    +0.000 A 
ATOM     10  C   UNL     1       5.107   4.122  15.914  0.00  0.00    +0.000 A 
ATOM     11  C   UNL     1       5.912   4.992  15.177  0.00  0.00    +0.000 A 
ATOM     12  C   UNL     1       6.903   5.737  15.816  0.00  0.00    +0.000 A 
ATOM     13  C   UNL     1       7.083   5.625  17.196  0.00  0.00    +0.000 A 
ATOM     14  C   UNL     1       6.279   4.756  17.938  0.00  0.00    +0.000 A 
ENDBRANCH   6   9
ENDBRANCH   4   5
ENDBRANCH   2   4
ENDBRANCH   1   2
BRANCH   1  15
ATOM     15  C   UNL     1       2.118   5.225  20.919  0.00  0.00    +0.000 C 
BRANCH  15  21
ATOM     16  C   UNL     1      -0.438  11.495  20.814  0.00  0.00    +0.000 C 
ATOM     17  C   UNL     1       0.218  10.160  20.618  0.00  0.00    +0.000 A 
ATOM     18  C   UNL     1       0.011   9.106  21.512  0.00  0.00    +0.000 A 
ATOM     19  C   UNL     1       0.643   7.866  21.324  0.00  0.00    +0.000 A 
ATOM     20  C   UNL     1       1.501   7.653  20.237  0.00  0.00    +0.000 A 
ATOM     21  C   UNL     1       2.227   6.397  19.985  0.00  0.00    +0.000 A 
ATOM     22  C   UNL     1       3.002   6.318  18.892  0.00  0.00    +0.000 A 
ATOM     23  C   UNL     1       3.175   7.422  17.935  0.00  0.00    +0.000 A 
ATOM     24  O   UNL     1       3.876   7.281  16.942  0.00  0.00    +0.000 OA
ATOM     25  O   UNL     1       2.515   8.601  18.220  0.00  0.00    +0.000 OA
ATOM     26  C   UNL     1       1.685   8.717  19.351  0.00  0.00    +0.000 A 
ATOM     27  C   UNL     1       1.063   9.956  19.526  0.00  0.00    +0.000 A 
ENDBRANCH  15  21
ENDBRANCH   1  15
TORSDOF 6
ENDMDL
MODEL 5
REMARK VINA RESULT:      -7.6      5.064      7.553
REMARK  Name = 
REMARK  7 active torsions:
REMARK  status: ('A' for Active; 'I' for Inactive)
REMARK    1  A    between atoms: C_1  and  C_2
REMARK    2  A    between atoms: C_6  and  C_7
REMARK    3  A    between atoms: C_7  and  O_8
REMARK    4  A    between atoms: O_8  and  C_9
REMARK    5  A    between atoms: C_9  and  C_11
REMARK    6  A    between atoms: C_11  and  N_12
REMARK    7  A    between atoms: C_13  and  C_15
REMARK                            x       y       z     vdW  Elec       q    Type
REMARK                         _______ _______ _______ _____ _____    ______ ____
ROOT
ATOM      1  O   UNL     1       6.996   6.697  16.673  0.00  0.00    +0.000 OA
ENDROOT
BRANCH   1   2
ATOM      2  C   UNL     1       7.618   7.250  17.746  0.00  0.00    +0.000 C 
ATOM      3  O   UNL     1       8.181   6.629  18.641  0.00  0.00    +0.000 OA
BRANCH   2   4
ATOM      4  C   UNL     1       7.424   8.758  17.748  0.00  0.00    +0.000 C 
BRANCH   4   5
ATOM      5  N   UNL     1       8.609   9.434  18.242  0.00  0.00    +0.000 N 
ATOM      6  C   UNL     1       8.822  10.769  17.964  0.00  0.00    +0.000 C 
ATOM      7  O   UNL     1       8.058  11.449  17.292  0.00  0.00    +0.000 OA
ATOM      8  H   UNL     1       9.101   9.011  19.019  0.00  0.00    +0.000 HD
BRANCH   6   9
ATOM      9  C   UNL     1      10.040  11.373  18.569  0.00  0.00    +0.000 A 
ATOM     10  C   UNL     1      10.303  11.253  19.940  0.00  0.00    +0.000 A 
ATOM     11  C   UNL     1      11.446  11.839  20.484  0.00  0.00    +0.000 A 
ATOM     12  C   UNL     1      12.333  12.535  19.663  0.00  0.00    +0.000 A 
ATOM     13  C   UNL     1      12.088  12.634  18.294  0.00  0.00    +0.000 A 
ATOM     14  C   UNL     1      10.945  12.049  17.743  0.00  0.00    +0.000 A 
ENDBRANCH   6   9
ENDBRANCH   4   5
ENDBRANCH   2   4
ENDBRANCH   1   2
BRANCH   1  15
ATOM     15  C   UNL     1       6.259   5.494  16.915  0.00  0.00    +0.000 C 
BRANCH  15  21
ATOM     16  C   UNL     1       0.867   1.858  18.804  0.00  0.00    +0.000 C 
ATOM     17  C   UNL     1       1.909   2.854  18.389  0.00  0.00    +0.000 A 
ATOM     18  C   UNL     1       3.188   2.451  17.993  0.00  0.00    +0.000 A 
ATOM     19  C   UNL     1       4.159   3.394  17.621  0.00  0.00    +0.000 A 
ATOM     20  C   UNL     1       3.874   4.767  17.639  0.00  0.00    +0.000 A 
ATOM     21  C   UNL     1       4.842   5.821  17.296  0.00  0.00    +0.000 A 
ATOM     22  C   UNL     1       4.432   7.098  17.335  0.00  0.00    +0.000 A 
ATOM     23  C   UNL     1       3.069   7.505  17.711  0.00  0.00    +0.000 A 
ATOM     24  O   UNL     1       2.746   8.686  17.703  0.00  0.00    +0.000 OA
ATOM     25  O   UNL     1       2.196   6.497  18.068  0.00  0.00    +0.000 OA
ATOM     26  C   UNL     1       2.588   5.145  18.029  0.00  0.00    +0.000 A 
ATOM     27  C   UNL     1       1.611   4.218  18.402  0.00  0.00    +0.000 A 
ENDBRANCH  15  21
ENDBRANCH   1  15
TORSDOF 6
ENDMDL
MODEL 6
REMARK VINA RESULT:      -7.6      2.097      7.695
REMARK  Name = 
REMARK  7 active torsions:
REMARK  status: ('A' for Active; 'I' for Inactive)
REMARK    1  A    between atoms: C_1  and  C_2
REMARK    2  A    between atoms: C_6  and  C_7
REMARK    3  A    between atoms: C_7  and  O_8
REMARK    4  A    between atoms: O_8  and  C_9
REMARK    5  A    between atoms: C_9  and  C_11
REMARK    6  A    between atoms: C_11  and  N_12
REMARK    7  A    between atoms: C_13  and  C_15
REMARK                            x       y       z     vdW  Elec       q    Type
REMARK                         _______ _______ _______ _____ _____    ______ ____
ROOT
ATOM      1  O   UNL     1       2.634   4.868  17.963  0.00  0.00    +0.000 OA
ENDROOT
BRANCH   1   2
ATOM      2  C   UNL     1       2.176   5.504  19.073  0.00  0.00    +0.000 C 
ATOM      3  O   UNL     1       1.493   4.994  19.954  0.00  0.00    +0.000 OA
BRANCH   2   4
ATOM      4  C   UNL     1       2.532   6.980  19.018  0.00  0.00    +0.000 C 
BRANCH   4   5
ATOM      5  N   UNL     1       1.828   7.723  20.047  0.00  0.00    +0.000 N 
ATOM      6  C   UNL     1       1.271   8.955  19.766  0.00  0.00    +0.000 C 
ATOM      7  O   UNL     1       1.345   9.495  18.670  0.00  0.00    +0.000 OA
ATOM      8  H   UNL     1       1.496   7.208  20.853  0.00  0.00    +0.000 HD
BRANCH   6   9
ATOM      9  C   UNL     1       0.524   9.599  20.879  0.00  0.00    +0.000 A 
ATOM     10  C   UNL     1       0.529   9.049  22.168  0.00  0.00    +0.000 A 
ATOM     11  C   UNL     1      -0.191   9.667  23.192  0.00  0.00    +0.000 A 
ATOM     12  C   UNL     1      -0.907  10.835  22.936  0.00  0.00    +0.000 A 
ATOM     13  C   UNL     1      -0.895  11.399  21.660  0.00  0.00    +0.000 A 
ATOM     14  C   UNL     1      -0.175  10.786  20.631  0.00  0.00    +0.000 A 
ENDBRANCH   6   9
ENDBRANCH   4   5
ENDBRANCH   2   4
ENDBRANCH   1   2
BRANCH   1  15
ATOM     15  C   UNL     1       3.570   3.806  18.179  0.00  0.00    +0.000 C 
BRANCH  15  21
ATOM     16  C   UNL     1       7.632   5.058  12.906  0.00  0.00    +0.000 C 
ATOM     17  C   UNL     1       6.927   4.834  14.211  0.00  0.00    +0.000 A 
ATOM     18  C   UNL     1       5.635   4.301  14.261  0.00  0.00    +0.000 A 
ATOM     19  C   UNL     1       4.980   4.110  15.489  0.00  0.00    +0.000 A 
ATOM     20  C   UNL     1       5.603   4.451  16.698  0.00  0.00    +0.000 A 
ATOM     21  C   UNL     1       4.977   4.313  18.023  0.00  0.00    +0.000 A 
ATOM     22  C   UNL     1       5.693   4.657  19.104  0.00  0.00    +0.000 A 
ATOM     23  C   UNL     1       7.069   5.175  19.039  0.00  0.00    +0.000 A 
ATOM     24  O   UNL     1       7.681   5.448  20.062  0.00  0.00    +0.000 OA
ATOM     25  O   UNL     1       7.614   5.332  17.780  0.00  0.00    +0.000 OA
ATOM     26  C   UNL     1       6.896   4.972  16.624  0.00  0.00    +0.000 A 
ATOM     27  C   UNL     1       7.560   5.168  15.410  0.00  0.00    +0.000 A 
ENDBRANCH  15  21
ENDBRANCH   1  15
TORSDOF 6
ENDMDL
MODEL 7
REMARK VINA RESULT:      -7.5      1.436      1.732
REMARK  Name = 
REMARK  7 active torsions:
REMARK  status: ('A' for Active; 'I' for Inactive)
REMARK    1  A    between atoms: C_1  and  C_2
REMARK    2  A    between atoms: C_6  and  C_7
REMARK    3  A    between atoms: C_7  and  O_8
REMARK    4  A    between atoms: O_8  and  C_9
REMARK    5  A    between atoms: C_9  and  C_11
REMARK    6  A    between atoms: C_11  and  N_12
REMARK    7  A    between atoms: C_13  and  C_15
REMARK                            x       y       z     vdW  Elec       q    Type
REMARK                         _______ _______ _______ _____ _____    ______ ____
ROOT
ATOM      1  O   UNL     1       1.842   4.973  19.792  0.00  0.00    +0.000 OA
ENDROOT
BRANCH   1   2
ATOM      2  C   UNL     1       1.947   3.694  20.240  0.00  0.00    +0.000 C 
ATOM      3  O   UNL     1       1.277   3.198  21.139  0.00  0.00    +0.000 OA
BRANCH   2   4
ATOM      4  C   UNL     1       3.099   2.987  19.547  0.00  0.00    +0.000 C 
BRANCH   4   5
ATOM      5  N   UNL     1       4.240   3.872  19.400  0.00  0.00    +0.000 N 
ATOM      6  C   UNL     1       4.529   4.447  18.179  0.00  0.00    +0.000 C 
ATOM      7  O   UNL     1       3.873   4.245  17.166  0.00  0.00    +0.000 OA
ATOM      8  H   UNL     1       4.621   4.289  20.240  0.00  0.00    +0.000 HD
BRANCH   6   9
ATOM      9  C   UNL     1       5.686   5.382  18.159  0.00  0.00    +0.000 A 
ATOM     10  C   UNL     1       6.774   5.206  19.025  0.00  0.00    +0.000 A 
ATOM     11  C   UNL     1       7.841   6.104  18.995  0.00  0.00    +0.000 A 
ATOM     12  C   UNL     1       7.831   7.172  18.097  0.00  0.00    +0.000 A 
ATOM     13  C   UNL     1       6.761   7.336  17.217  0.00  0.00    +0.000 A 
ATOM     14  C   UNL     1       5.691   6.439  17.241  0.00  0.00    +0.000 A 
ENDBRANCH   6   9
ENDBRANCH   4   5
ENDBRANCH   2   4
ENDBRANCH   1   2
BRANCH   1  15
ATOM     15  C   UNL     1       1.862   6.000  20.789  0.00  0.00    +0.000 C 
BRANCH  15  21
ATOM     16  C   UNL     1      -0.989  11.835  22.710  0.00  0.00    +0.000 C 
ATOM     17  C   UNL     1      -0.327  10.652  22.068  0.00  0.00    +0.000 A 
ATOM     18  C   UNL     1      -0.252   9.416  22.718  0.00  0.00    +0.000 A 
ATOM     19  C   UNL     1       0.384   8.320  22.112  0.00  0.00    +0.000 A 
ATOM     20  C   UNL     1       0.963   8.436  20.841  0.00  0.00    +0.000 A 
ATOM     21  C   UNL     1       1.675   7.348  20.150  0.00  0.00    +0.000 A 
ATOM     22  C   UNL     1       2.166   7.587  18.925  0.00  0.00    +0.000 A 
ATOM     23  C   UNL     1       2.040   8.880  18.234  0.00  0.00    +0.000 A 
ATOM     24  O   UNL     1       2.486   9.029  17.105  0.00  0.00    +0.000 OA
ATOM     25  O   UNL     1       1.404   9.893  18.924  0.00  0.00    +0.000 OA
ATOM     26  C   UNL     1       0.868   9.676  20.208  0.00  0.00    +0.000 A 
ATOM     27  C   UNL     1       0.239  10.776  20.798  0.00  0.00    +0.000 A 
ENDBRANCH  15  21
ENDBRANCH   1  15
TORSDOF 6
ENDMDL
MODEL 8
REMARK VINA RESULT:      -7.5      1.178      1.511
REMARK  Name = 
REMARK  7 active torsions:
REMARK  status: ('A' for Active; 'I' for Inactive)
REMARK    1  A    between atoms: C_1  and  C_2
REMARK    2  A    between atoms: C_6  and  C_7
REMARK    3  A    between atoms: C_7  and  O_8
REMARK    4  A    between atoms: O_8  and  C_9
REMARK    5  A    between atoms: C_9  and  C_11
REMARK    6  A    between atoms: C_11  and  N_12
REMARK    7  A    between atoms: C_13  and  C_15
REMARK                            x       y       z     vdW  Elec       q    Type
REMARK                         _______ _______ _______ _____ _____    ______ ____
ROOT
ATOM      1  O   UNL     1       1.324   5.191  20.721  0.00  0.00    +0.000 OA
ENDROOT
BRANCH   1   2
ATOM      2  C   UNL     1       1.779   3.948  21.024  0.00  0.00    +0.000 C 
ATOM      3  O   UNL     1       2.090   3.558  22.144  0.00  0.00    +0.000 OA
BRANCH   2   4
ATOM      4  C   UNL     1       1.960   3.129  19.756  0.00  0.00    +0.000 C 
BRANCH   4   5
ATOM      5  N   UNL     1       3.091   3.611  18.985  0.00  0.00    +0.000 N 
ATOM      6  C   UNL     1       2.945   3.927  17.649  0.00  0.00    +0.000 C 
ATOM      7  O   UNL     1       1.890   3.812  17.039  0.00  0.00    +0.000 OA
ATOM      8  H   UNL     1       3.879   3.990  19.494  0.00  0.00    +0.000 HD
BRANCH   6   9
ATOM      9  C   UNL     1       4.156   4.465  16.972  0.00  0.00    +0.000 A 
ATOM     10  C   UNL     1       5.035   3.620  16.281  0.00  0.00    +0.000 A 
ATOM     11  C   UNL     1       6.171   4.148  15.666  0.00  0.00    +0.000 A 
ATOM     12  C   UNL     1       6.427   5.517  15.730  0.00  0.00    +0.000 A 
ATOM     13  C   UNL     1       5.542   6.365  16.396  0.00  0.00    +0.000 A 
ATOM     14  C   UNL     1       4.402   5.842  17.013  0.00  0.00    +0.000 A 
ENDBRANCH   6   9
ENDBRANCH   4   5
ENDBRANCH   2   4
ENDBRANCH   1   2
BRANCH   1  15
ATOM     15  C   UNL     1       2.149   6.288  21.130  0.00  0.00    +0.000 C 
BRANCH  15  21
ATOM     16  C   UNL     1      -1.327  11.877  22.724  0.00  0.00    +0.000 C 
ATOM     17  C   UNL     1      -0.551  10.731  22.145  0.00  0.00    +0.000 A 
ATOM     18  C   UNL     1      -0.284   9.579  22.891  0.00  0.00    +0.000 A 
ATOM     19  C   UNL     1       0.455   8.519  22.342  0.00  0.00    +0.000 A 
ATOM     20  C   UNL     1       0.949   8.588  21.032  0.00  0.00    +0.000 A 
ATOM     21  C   UNL     1       1.758   7.538  20.393  0.00  0.00    +0.000 A 
ATOM     22  C   UNL     1       2.150   7.721  19.122  0.00  0.00    +0.000 A 
ATOM     23  C   UNL     1       1.823   8.920  18.334  0.00  0.00    +0.000 A 
ATOM     24  O   UNL     1       2.187   9.018  17.170  0.00  0.00    +0.000 OA
ATOM     25  O   UNL     1       1.098   9.905  18.974  0.00  0.00    +0.000 OA
ATOM     26  C   UNL     1       0.661   9.743  20.302  0.00  0.00    +0.000 A 
ATOM     27  C   UNL     1      -0.073  10.806  20.835  0.00  0.00    +0.000 A 
ENDBRANCH  15  21
ENDBRANCH   1  15
TORSDOF 6
ENDMDL
MODEL 9
REMARK VINA RESULT:      -7.5      1.365      1.719
REMARK  Name = 
REMARK  7 active torsions:
REMARK  status: ('A' for Active; 'I' for Inactive)
REMARK    1  A    between atoms: C_1  and  C_2
REMARK    2  A    between atoms: C_6  and  C_7
REMARK    3  A    between atoms: C_7  and  O_8
REMARK    4  A    between atoms: O_8  and  C_9
REMARK    5  A    between atoms: C_9  and  C_11
REMARK    6  A    between atoms: C_11  and  N_12
REMARK    7  A    between atoms: C_13  and  C_15
REMARK                            x       y       z     vdW  Elec       q    Type
REMARK                         _______ _______ _______ _____ _____    ______ ____
ROOT
ATOM      1  O   UNL     1       1.626   5.517  20.161  0.00  0.00    +0.000 OA
ENDROOT
BRANCH   1   2
ATOM      2  C   UNL     1       1.932   4.273  20.614  0.00  0.00    +0.000 C 
ATOM      3  O   UNL     1       2.151   3.975  21.783  0.00  0.00    +0.000 OA
BRANCH   2   4
ATOM      4  C   UNL     1       2.081   3.310  19.448  0.00  0.00    +0.000 C 
BRANCH   4   5
ATOM      5  N   UNL     1       3.030   3.817  18.474  0.00  0.00    +0.000 N 
ATOM      6  C   UNL     1       4.385   3.609  18.642  0.00  0.00    +0.000 C 
ATOM      7  O   UNL     1       4.863   3.016  19.600  0.00  0.00    +0.000 OA
ATOM      8  H   UNL     1       2.680   4.045  17.552  0.00  0.00    +0.000 HD
BRANCH   6   9
ATOM      9  C   UNL     1       5.260   4.122  17.554  0.00  0.00    +0.000 A 
ATOM     10  C   UNL     1       6.544   4.613  17.829  0.00  0.00    +0.000 A 
ATOM     11  C   UNL     1       7.341   5.100  16.792  0.00  0.00    +0.000 A 
ATOM     12  C   UNL     1       6.865   5.090  15.481  0.00  0.00    +0.000 A 
ATOM     13  C   UNL     1       5.596   4.580  15.201  0.00  0.00    +0.000 A 
ATOM     14  C   UNL     1       4.795   4.089  16.234  0.00  0.00    +0.000 A 
ENDBRANCH   6   9
ENDBRANCH   4   5
ENDBRANCH   2   4
ENDBRANCH   1   2
BRANCH   1  15
ATOM     15  C   UNL     1       1.749   6.586  21.106  0.00  0.00    +0.000 C 
BRANCH  15  21
ATOM     16  C   UNL     1      -1.318  12.336  22.947  0.00  0.00    +0.000 C 
ATOM     17  C   UNL     1      -0.619  11.166  22.320  0.00  0.00    +0.000 A 
ATOM     18  C   UNL     1      -0.468   9.954  23.001  0.00  0.00    +0.000 A 
ATOM     19  C   UNL     1       0.201   8.872  22.407  0.00  0.00    +0.000 A 
ATOM     20  C   UNL     1       0.740   8.978  21.117  0.00  0.00    +0.000 A 
ATOM     21  C   UNL     1       1.482   7.905  20.437  0.00  0.00    +0.000 A 
ATOM     22  C   UNL     1       1.928   8.131  19.191  0.00  0.00    +0.000 A 
ATOM     23  C   UNL     1       1.723   9.397  18.469  0.00  0.00    +0.000 A 
ATOM     24  O   UNL     1       2.130   9.534  17.324  0.00  0.00    +0.000 OA
ATOM     25  O   UNL     1       1.059  10.399  19.149  0.00  0.00    +0.000 OA
ATOM     26  C   UNL     1       0.569  10.194  20.453  0.00  0.00    +0.000 A 
ATOM     27  C   UNL     1      -0.095  11.280  21.031  0.00  0.00    +0.000 A 
ENDBRANCH  15  21
ENDBRANCH   1  15
TORSDOF 6
ENDMDL
