MODEL 1
REMARK VINA RESULT:      -7.3      0.000      0.000
REMARK  Name = 
REMARK  4 active torsions:
REMARK  status: ('A' for Active; 'I' for Inactive)
REMARK    1  A    between atoms: O_1  and  C_2
REMARK    2  A    between atoms: C_6  and  C_7
REMARK    3  A    between atoms: C_7  and  C_8
REMARK    4  A    between atoms: C_8  and  C_9
REMARK                            x       y       z     vdW  Elec       q    Type
REMARK                         _______ _______ _______ _____ _____    ______ ____
ROOT
ATOM      1  C   UNL     1       6.901   4.736  17.184  0.00  0.00    +0.000 A 
ATOM      2  C   UNL     1       6.678   5.381  18.405  0.00  0.00    +0.000 A 
ATOM      3 BR   UNL     1       8.036   5.448  19.727  0.00  0.00    +0.000 Br
ATOM      4  C   UNL     1       5.444   5.982  18.676  0.00  0.00    +0.000 A 
ATOM      5  C   UNL     1       4.413   5.937  17.728  0.00  0.00    +0.000 A 
ATOM      6  C   UNL     1       4.649   5.305  16.497  0.00  0.00    +0.000 A 
ATOM      7  C   UNL     1       5.885   4.707  16.229  0.00  0.00    +0.000 A 
ATOM      8 BR   UNL     1       6.125   3.852  14.552  0.00  0.00    +0.000 Br
ENDROOT
BRANCH   1   9
ATOM      9  O   UNL     1       8.101   4.129  16.916  0.00  0.00    +0.000 OA
ATOM     10  H   UNL     1       7.952   3.167  16.896  0.00  0.00    +0.000 HD
ENDBRANCH   1   9
BRANCH   5  11
ATOM     11  C   UNL     1       3.065   6.549  18.026  0.00  0.00    +0.000 C 
BRANCH  11  12
ATOM     12  C   UNL     1       1.913   5.551  17.864  0.00  0.00    +0.000 C 
BRANCH  12  13
ATOM     13  C   UNL     1       1.873   4.561  19.005  0.00  0.00    +0.000 A 
ATOM     14  C   UNL     1       2.024   4.996  20.330  0.00  0.00    +0.000 A 
ATOM     15  C   UNL     1       2.007   4.076  21.381  0.00  0.00    +0.000 A 
ATOM     16  C   UNL     1       1.845   2.723  21.106  0.00  0.00    +0.000 A 
ATOM     17  F   UNL     1       1.829   1.842  22.115  0.00  0.00    +0.000 F 
ATOM     18  C   UNL     1       1.699   2.271  19.800  0.00  0.00    +0.000 A 
ATOM     19  C   UNL     1       1.716   3.189  18.748  0.00  0.00    +0.000 A 
ENDBRANCH  12  13
ENDBRANCH  11  12
ENDBRANCH   5  11
TORSDOF 4
ENDMDL
MODEL 2
REMARK VINA RESULT:      -7.3      0.094      2.504
REMARK  Name = 
REMARK  4 active torsions:
REMARK  status: ('A' for Active; 'I' for Inactive)
REMARK    1  A    between atoms: O_1  and  C_2
REMARK    2  A    between atoms: C_6  and  C_7
REMARK    3  A    between atoms: C_7  and  C_8
REMARK    4  A    between atoms: C_8  and  C_9
REMARK                            x       y       z     vdW  Elec       q    Type
REMARK                         _______ _______ _______ _____ _____    ______ ____
ROOT
ATOM      1  C   UNL     1       6.910   4.804  17.087  0.00  0.00    +0.000 A 
ATOM      2  C   UNL     1       5.882   4.783  16.139  0.00  0.00    +0.000 A 
ATOM      3 BR   UNL     1       6.155   4.003  14.432  0.00  0.00    +0.000 Br
ATOM      4  C   UNL     1       4.634   5.344  16.430  0.00  0.00    +0.000 A 
ATOM      5  C   UNL     1       4.403   5.944  17.676  0.00  0.00    +0.000 A 
ATOM      6  C   UNL     1       5.432   5.946  18.630  0.00  0.00    +0.000 A 
ATOM      7  C   UNL     1       6.677   5.381  18.336  0.00  0.00    +0.000 A 
ATOM      8 BR   UNL     1       8.029   5.440  19.667  0.00  0.00    +0.000 Br
ENDROOT
BRANCH   1   9
ATOM      9  O   UNL     1       8.141   4.272  16.804  0.00  0.00    +0.000 OA
ATOM     10  H   UNL     1       8.795   4.993  16.841  0.00  0.00    +0.000 HD
ENDBRANCH   1   9
BRANCH   5  11
ATOM     11  C   UNL     1       3.072   6.587  17.987  0.00  0.00    +0.000 C 
BRANCH  11  12
ATOM     12  C   UNL     1       1.899   5.610  17.862  0.00  0.00    +0.000 C 
BRANCH  12  13
ATOM     13  C   UNL     1       1.883   4.614  18.998  0.00  0.00    +0.000 A 
ATOM     14  C   UNL     1       1.692   3.247  18.744  0.00  0.00    +0.000 A 
ATOM     15  C   UNL     1       1.656   2.332  19.798  0.00  0.00    +0.000 A 
ATOM     16  C   UNL     1       1.807   2.783  21.104  0.00  0.00    +0.000 A 
ATOM     17  F   UNL     1       1.773   1.904  22.115  0.00  0.00    +0.000 F 
ATOM     18  C   UNL     1       1.993   4.132  21.378  0.00  0.00    +0.000 A 
ATOM     19  C   UNL     1       2.028   5.050  20.325  0.00  0.00    +0.000 A 
ENDBRANCH  12  13
ENDBRANCH  11  12
ENDBRANCH   5  11
TORSDOF 4
ENDMDL
MODEL 3
REMARK VINA RESULT:      -7.3      0.113      2.230
REMARK  Name = 
REMARK  4 active torsions:
REMARK  status: ('A' for Active; 'I' for Inactive)
REMARK    1  A    between atoms: O_1  and  C_2
REMARK    2  A    between atoms: C_6  and  C_7
REMARK    3  A    between atoms: C_7  and  C_8
REMARK    4  A    between atoms: C_8  and  C_9
REMARK                            x       y       z     vdW  Elec       q    Type
REMARK                         _______ _______ _______ _____ _____    ______ ____
ROOT
ATOM      1  C   UNL     1       6.872   4.820  17.053  0.00  0.00    +0.000 A 
ATOM      2  C   UNL     1       5.826   4.782  16.126  0.00  0.00    +0.000 A 
ATOM      3 BR   UNL     1       6.072   3.990  14.420  0.00  0.00    +0.000 Br
ATOM      4  C   UNL     1       4.581   5.337  16.437  0.00  0.00    +0.000 A 
ATOM      5  C   UNL     1       4.369   5.946  17.682  0.00  0.00    +0.000 A 
ATOM      6  C   UNL     1       5.417   5.964  18.616  0.00  0.00    +0.000 A 
ATOM      7  C   UNL     1       6.660   5.406  18.302  0.00  0.00    +0.000 A 
ATOM      8 BR   UNL     1       8.037   5.486  19.605  0.00  0.00    +0.000 Br
ENDROOT
BRANCH   1   9
ATOM      9  O   UNL     1       8.101   4.294  16.751  0.00  0.00    +0.000 OA
ATOM     10  H   UNL     1       8.056   3.330  16.884  0.00  0.00    +0.000 HD
ENDBRANCH   1   9
BRANCH   5  11
ATOM     11  C   UNL     1       3.040   6.582  18.013  0.00  0.00    +0.000 C 
BRANCH  11  12
ATOM     12  C   UNL     1       1.866   5.608  17.871  0.00  0.00    +0.000 C 
BRANCH  12  13
ATOM     13  C   UNL     1       1.827   4.616  19.011  0.00  0.00    +0.000 A 
ATOM     14  C   UNL     1       2.020   5.044  20.333  0.00  0.00    +0.000 A 
ATOM     15  C   UNL     1       2.006   4.122  21.382  0.00  0.00    +0.000 A 
ATOM     16  C   UNL     1       1.803   2.774  21.109  0.00  0.00    +0.000 A 
ATOM     17  F   UNL     1       1.789   1.891  22.115  0.00  0.00    +0.000 F 
ATOM     18  C   UNL     1       1.615   2.330  19.806  0.00  0.00    +0.000 A 
ATOM     19  C   UNL     1       1.630   3.250  18.755  0.00  0.00    +0.000 A 
ENDBRANCH  12  13
ENDBRANCH  11  12
ENDBRANCH   5  11
TORSDOF 4
ENDMDL
MODEL 4
REMARK VINA RESULT:      -7.0      1.018      1.647
REMARK  Name = 
REMARK  4 active torsions:
REMARK  status: ('A' for Active; 'I' for Inactive)
REMARK    1  A    between atoms: O_1  and  C_2
REMARK    2  A    between atoms: C_6  and  C_7
REMARK    3  A    between atoms: C_7  and  C_8
REMARK    4  A    between atoms: C_8  and  C_9
REMARK                            x       y       z     vdW  Elec       q    Type
REMARK                         _______ _______ _______ _____ _____    ______ ____
ROOT
ATOM      1  C   UNL     1       6.986   4.927  16.981  0.00  0.00    +0.000 A 
ATOM      2  C   UNL     1       6.756   5.650  18.156  0.00  0.00    +0.000 A 
ATOM      3 BR   UNL     1       7.985   5.569  19.599  0.00  0.00    +0.000 Br
ATOM      4  C   UNL     1       5.610   6.440  18.292  0.00  0.00    +0.000 A 
ATOM      5  C   UNL     1       4.672   6.510  17.252  0.00  0.00    +0.000 A 
ATOM      6  C   UNL     1       4.918   5.797  16.068  0.00  0.00    +0.000 A 
ATOM      7  C   UNL     1       6.066   5.010  15.936  0.00  0.00    +0.000 A 
ATOM      8 BR   UNL     1       6.321   4.057  14.314  0.00  0.00    +0.000 Br
ENDROOT
BRANCH   1   9
ATOM      9  O   UNL     1       8.097   4.137  16.846  0.00  0.00    +0.000 OA
ATOM     10  H   UNL     1       8.483   4.008  17.731  0.00  0.00    +0.000 HD
ENDBRANCH   1   9
BRANCH   5  11
ATOM     11  C   UNL     1       3.413   7.329  17.403  0.00  0.00    +0.000 C 
BRANCH  11  12
ATOM     12  C   UNL     1       2.791   7.205  18.798  0.00  0.00    +0.000 C 
BRANCH  12  13
ATOM     13  C   UNL     1       2.211   5.827  19.026  0.00  0.00    +0.000 A 
ATOM     14  C   UNL     1       1.914   4.992  17.939  0.00  0.00    +0.000 A 
ATOM     15  C   UNL     1       1.358   3.728  18.152  0.00  0.00    +0.000 A 
ATOM     16  C   UNL     1       1.096   3.303  19.449  0.00  0.00    +0.000 A 
ATOM     17  F   UNL     1       0.563   2.091  19.652  0.00  0.00    +0.000 F 
ATOM     18  C   UNL     1       1.378   4.118  20.539  0.00  0.00    +0.000 A 
ATOM     19  C   UNL     1       1.933   5.382  20.328  0.00  0.00    +0.000 A 
ENDBRANCH  12  13
ENDBRANCH  11  12
ENDBRANCH   5  11
TORSDOF 4
ENDMDL
MODEL 5
REMARK VINA RESULT:      -7.0      1.021      1.322
REMARK  Name = 
REMARK  4 active torsions:
REMARK  status: ('A' for Active; 'I' for Inactive)
REMARK    1  A    between atoms: O_1  and  C_2
REMARK    2  A    between atoms: C_6  and  C_7
REMARK    3  A    between atoms: C_7  and  C_8
REMARK    4  A    between atoms: C_8  and  C_9
REMARK                            x       y       z     vdW  Elec       q    Type
REMARK                         _______ _______ _______ _____ _____    ______ ____
ROOT
ATOM      1  C   UNL     1       6.983   4.924  16.988  0.00  0.00    +0.000 A 
ATOM      2  C   UNL     1       6.753   5.644  18.165  0.00  0.00    +0.000 A 
ATOM      3 BR   UNL     1       7.975   5.552  19.612  0.00  0.00    +0.000 Br
ATOM      4  C   UNL     1       5.610   6.440  18.299  0.00  0.00    +0.000 A 
ATOM      5  C   UNL     1       4.677   6.519  17.256  0.00  0.00    +0.000 A 
ATOM      6  C   UNL     1       4.923   5.809  16.071  0.00  0.00    +0.000 A 
ATOM      7  C   UNL     1       6.067   5.016  15.939  0.00  0.00    +0.000 A 
ATOM      8 BR   UNL     1       6.323   4.067  14.316  0.00  0.00    +0.000 Br
ENDROOT
BRANCH   1   9
ATOM      9  O   UNL     1       8.090   4.128  16.854  0.00  0.00    +0.000 OA
ATOM     10  H   UNL     1       7.994   3.618  16.030  0.00  0.00    +0.000 HD
ENDBRANCH   1   9
BRANCH   5  11
ATOM     11  C   UNL     1       3.421   7.344  17.406  0.00  0.00    +0.000 C 
BRANCH  11  12
ATOM     12  C   UNL     1       2.792   7.216  18.797  0.00  0.00    +0.000 C 
BRANCH  12  13
ATOM     13  C   UNL     1       2.194   5.844  19.011  0.00  0.00    +0.000 A 
ATOM     14  C   UNL     1       1.953   5.368  20.309  0.00  0.00    +0.000 A 
ATOM     15  C   UNL     1       1.421   4.092  20.504  0.00  0.00    +0.000 A 
ATOM     16  C   UNL     1       1.135   3.292  19.404  0.00  0.00    +0.000 A 
ATOM     17  F   UNL     1       0.625   2.067  19.593  0.00  0.00    +0.000 F 
ATOM     18  C   UNL     1       1.371   3.742  18.111  0.00  0.00    +0.000 A 
ATOM     19  C   UNL     1       1.904   5.018  17.913  0.00  0.00    +0.000 A 
ENDBRANCH  12  13
ENDBRANCH  11  12
ENDBRANCH   5  11
TORSDOF 4
ENDMDL
MODEL 6
REMARK VINA RESULT:      -7.0      0.953      2.718
REMARK  Name = 
REMARK  4 active torsions:
REMARK  status: ('A' for Active; 'I' for Inactive)
REMARK    1  A    between atoms: O_1  and  C_2
REMARK    2  A    between atoms: C_6  and  C_7
REMARK    3  A    between atoms: C_7  and  C_8
REMARK    4  A    between atoms: C_8  and  C_9
REMARK                            x       y       z     vdW  Elec       q    Type
REMARK                         _______ _______ _______ _____ _____    ______ ____
ROOT
ATOM      1  C   UNL     1       6.960   4.884  17.042  0.00  0.00    +0.000 A 
ATOM      2  C   UNL     1       6.004   4.943  16.022  0.00  0.00    +0.000 A 
ATOM      3 BR   UNL     1       6.254   3.984  14.405  0.00  0.00    +0.000 Br
ATOM      4  C   UNL     1       4.850   5.719  16.174  0.00  0.00    +0.000 A 
ATOM      5  C   UNL     1       4.642   6.454  17.349  0.00  0.00    +0.000 A 
ATOM      6  C   UNL     1       5.594   6.376  18.376  0.00  0.00    +0.000 A 
ATOM      7  C   UNL     1       6.746   5.597  18.222  0.00  0.00    +0.000 A 
ATOM      8 BR   UNL     1       8.001   5.557  19.645  0.00  0.00    +0.000 Br
ENDROOT
BRANCH   1   9
ATOM      9  O   UNL     1       8.102   4.141  16.896  0.00  0.00    +0.000 OA
ATOM     10  H   UNL     1       8.404   3.879  17.785  0.00  0.00    +0.000 HD
ENDBRANCH   1   9
BRANCH   5  11
ATOM     11  C   UNL     1       3.418   7.325  17.507  0.00  0.00    +0.000 C 
BRANCH  11  12
ATOM     12  C   UNL     1       2.648   7.035  18.799  0.00  0.00    +0.000 C 
BRANCH  12  13
ATOM     13  C   UNL     1       2.361   5.559  18.955  0.00  0.00    +0.000 A 
ATOM     14  C   UNL     1       1.735   4.843  17.923  0.00  0.00    +0.000 A 
ATOM     15  C   UNL     1       1.451   3.485  18.079  0.00  0.00    +0.000 A 
ATOM     16  C   UNL     1       1.789   2.844  19.265  0.00  0.00    +0.000 A 
ATOM     17  F   UNL     1       1.516   1.541  19.413  0.00  0.00    +0.000 F 
ATOM     18  C   UNL     1       2.404   3.537  20.301  0.00  0.00    +0.000 A 
ATOM     19  C   UNL     1       2.688   4.895  20.148  0.00  0.00    +0.000 A 
ENDBRANCH  12  13
ENDBRANCH  11  12
ENDBRANCH   5  11
TORSDOF 4
ENDMDL
MODEL 7
REMARK VINA RESULT:      -6.9      2.226      3.674
REMARK  Name = 
REMARK  4 active torsions:
REMARK  status: ('A' for Active; 'I' for Inactive)
REMARK    1  A    between atoms: O_1  and  C_2
REMARK    2  A    between atoms: C_6  and  C_7
REMARK    3  A    between atoms: C_7  and  C_8
REMARK    4  A    between atoms: C_8  and  C_9
REMARK                            x       y       z     vdW  Elec       q    Type
REMARK                         _______ _______ _______ _____ _____    ______ ____
ROOT
ATOM      1  C   UNL     1       6.793   5.081  15.612  0.00  0.00    +0.000 A 
ATOM      2  C   UNL     1       5.979   4.151  14.958  0.00  0.00    +0.000 A 
ATOM      3 BR   UNL     1       6.252   3.744  13.126  0.00  0.00    +0.000 Br
ATOM      4  C   UNL     1       4.941   3.510  15.643  0.00  0.00    +0.000 A 
ATOM      5  C   UNL     1       4.701   3.799  16.994  0.00  0.00    +0.000 A 
ATOM      6  C   UNL     1       5.533   4.719  17.649  0.00  0.00    +0.000 A 
ATOM      7  C   UNL     1       6.571   5.357  16.961  0.00  0.00    +0.000 A 
ATOM      8 BR   UNL     1       7.642   6.606  17.907  0.00  0.00    +0.000 Br
ENDROOT
BRANCH   1   9
ATOM      9  O   UNL     1       7.801   5.728  14.945  0.00  0.00    +0.000 OA
ATOM     10  H   UNL     1       8.109   5.144  14.229  0.00  0.00    +0.000 HD
ENDBRANCH   1   9
BRANCH   5  11
ATOM     11  C   UNL     1       3.559   3.141  17.732  0.00  0.00    +0.000 C 
BRANCH  11  12
ATOM     12  C   UNL     1       2.235   3.893  17.565  0.00  0.00    +0.000 C 
BRANCH  12  13
ATOM     13  C   UNL     1       2.152   5.081  18.497  0.00  0.00    +0.000 A 
ATOM     14  C   UNL     1       1.821   4.903  19.849  0.00  0.00    +0.000 A 
ATOM     15  C   UNL     1       1.723   6.004  20.701  0.00  0.00    +0.000 A 
ATOM     16  C   UNL     1       1.951   7.281  20.203  0.00  0.00    +0.000 A 
ATOM     17  F   UNL     1       1.856   8.337  21.022  0.00  0.00    +0.000 F 
ATOM     18  C   UNL     1       2.274   7.479  18.866  0.00  0.00    +0.000 A 
ATOM     19  C   UNL     1       2.372   6.380  18.011  0.00  0.00    +0.000 A 
ENDBRANCH  12  13
ENDBRANCH  11  12
ENDBRANCH   5  11
TORSDOF 4
ENDMDL
MODEL 8
REMARK VINA RESULT:      -6.8      2.250      2.975
REMARK  Name = 
REMARK  4 active torsions:
REMARK  status: ('A' for Active; 'I' for Inactive)
REMARK    1  A    between atoms: O_1  and  C_2
REMARK    2  A    between atoms: C_6  and  C_7
REMARK    3  A    between atoms: C_7  and  C_8
REMARK    4  A    between atoms: C_8  and  C_9
REMARK                            x       y       z     vdW  Elec       q    Type
REMARK                         _______ _______ _______ _____ _____    ______ ____
ROOT
ATOM      1  C   UNL     1       6.831   5.120  15.448  0.00  0.00    +0.000 A 
ATOM      2  C   UNL     1       6.578   5.480  16.776  0.00  0.00    +0.000 A 
ATOM      3 BR   UNL     1       7.645   6.784  17.646  0.00  0.00    +0.000 Br
ATOM      4  C   UNL     1       5.537   4.876  17.489  0.00  0.00    +0.000 A 
ATOM      5  C   UNL     1       4.739   3.896  16.881  0.00  0.00    +0.000 A 
ATOM      6  C   UNL     1       4.986   3.554  15.543  0.00  0.00    +0.000 A 
ATOM      7  C   UNL     1       6.027   4.161  14.833  0.00  0.00    +0.000 A 
ATOM      8 BR   UNL     1       6.316   3.632  13.033  0.00  0.00    +0.000 Br
ENDROOT
BRANCH   1   9
ATOM      9  O   UNL     1       7.860   5.693  14.746  0.00  0.00    +0.000 OA
ATOM     10  H   UNL     1       8.468   6.104  15.387  0.00  0.00    +0.000 HD
ENDBRANCH   1   9
BRANCH   5  11
ATOM     11  C   UNL     1       3.637   3.211  17.654  0.00  0.00    +0.000 C 
BRANCH  11  12
ATOM     12  C   UNL     1       2.288   3.925  17.520  0.00  0.00    +0.000 C 
BRANCH  12  13
ATOM     13  C   UNL     1       2.183   5.094  18.472  0.00  0.00    +0.000 A 
ATOM     14  C   UNL     1       1.849   4.887  19.819  0.00  0.00    +0.000 A 
ATOM     15  C   UNL     1       1.731   5.972  20.691  0.00  0.00    +0.000 A 
ATOM     16  C   UNL     1       1.941   7.261  20.216  0.00  0.00    +0.000 A 
ATOM     17  F   UNL     1       1.827   8.300  21.053  0.00  0.00    +0.000 F 
ATOM     18  C   UNL     1       2.266   7.488  18.884  0.00  0.00    +0.000 A 
ATOM     19  C   UNL     1       2.385   6.405  18.010  0.00  0.00    +0.000 A 
ENDBRANCH  12  13
ENDBRANCH  11  12
ENDBRANCH   5  11
TORSDOF 4
ENDMDL
MODEL 9
REMARK VINA RESULT:      -6.8      2.082      2.880
REMARK  Name = 
REMARK  4 active torsions:
REMARK  status: ('A' for Active; 'I' for Inactive)
REMARK    1  A    between atoms: O_1  and  C_2
REMARK    2  A    between atoms: C_6  and  C_7
REMARK    3  A    between atoms: C_7  and  C_8
REMARK    4  A    between atoms: C_8  and  C_9
REMARK                            x       y       z     vdW  Elec       q    Type
REMARK                         _______ _______ _______ _____ _____    ______ ____
ROOT
ATOM      1  C   UNL     1       6.679   4.917  16.348  0.00  0.00    +0.000 A 
ATOM      2  C   UNL     1       6.496   4.984  17.732  0.00  0.00    +0.000 A 
ATOM      3 BR   UNL     1       7.685   5.984  18.819  0.00  0.00    +0.000 Br
ATOM      4  C   UNL     1       5.435   4.306  18.342  0.00  0.00    +0.000 A 
ATOM      5  C   UNL     1       4.547   3.544  17.571  0.00  0.00    +0.000 A 
ATOM      6  C   UNL     1       4.724   3.496  16.180  0.00  0.00    +0.000 A 
ATOM      7  C   UNL     1       5.784   4.177  15.574  0.00  0.00    +0.000 A 
ATOM      8 BR   UNL     1       5.975   4.049  13.690  0.00  0.00    +0.000 Br
ENDROOT
BRANCH   1   9
ATOM      9  O   UNL     1       7.725   5.564  15.742  0.00  0.00    +0.000 OA
ATOM     10  H   UNL     1       7.401   6.427  15.427  0.00  0.00    +0.000 HD
ENDBRANCH   1   9
BRANCH   5  11
ATOM     11  C   UNL     1       3.421   2.777  18.225  0.00  0.00    +0.000 C 
BRANCH  11  12
ATOM     12  C   UNL     1       2.060   3.456  18.045  0.00  0.00    +0.000 C 
BRANCH  12  13
ATOM     13  C   UNL     1       2.009   4.792  18.751  0.00  0.00    +0.000 A 
ATOM     14  C   UNL     1       2.284   5.977  18.051  0.00  0.00    +0.000 A 
ATOM     15  C   UNL     1       2.257   7.207  18.711  0.00  0.00    +0.000 A 
ATOM     16  C   UNL     1       1.962   7.252  20.068  0.00  0.00    +0.000 A 
ATOM     17  F   UNL     1       1.937   8.434  20.699  0.00  0.00    +0.000 F 
ATOM     18  C   UNL     1       1.693   6.090  20.780  0.00  0.00    +0.000 A 
ATOM     19  C   UNL     1       1.719   4.858  20.123  0.00  0.00    +0.000 A 
ENDBRANCH  12  13
ENDBRANCH  11  12
ENDBRANCH   5  11
TORSDOF 4
ENDMDL
