MODEL 1
REMARK VINA RESULT:      -7.8      0.000      0.000
REMARK  Name = 
REMARK  9 active torsions:
REMARK  status: ('A' for Active; 'I' for Inactive)
REMARK    1  A    between atoms: C_1  and  C_2
REMARK    2  A    between atoms: C_2  and  C_3
REMARK    3  A    between atoms: C_2  and  C_4
REMARK    4  A    between atoms: C_7  and  C_8
REMARK    5  A    between atoms: N_10  and  CA_11
REMARK    6  A    between atoms: CA_11  and  CB_12
REMARK    7  A    between atoms: CA_11  and  C_19
REMARK    8  A    between atoms: CB_12  and  CG_13
REMARK    9  A    between atoms: C_19  and  OXT_21
REMARK                            x       y       z     vdW  Elec       q    Type
REMARK                         _______ _______ _______ _____ _____    ______ ____
ROOT
ATOM      1  C   UNK A   0       3.901   4.916  17.596  0.00  0.00    +0.000 C 
ATOM      2  O   UNK A   0       3.730   3.771  17.182  0.00  0.00    +0.000 OA
ATOM      3  N   PHE A   1       5.111   5.547  17.464  0.00  0.00    +0.000 N 
ATOM      4  H   PHE A   1       5.274   6.454  17.895  0.00  0.00    +0.000 HD
ENDROOT
BRANCH   1   8
ATOM      5  C   UNK A   0       1.881   7.760  20.333  0.00  0.00    +0.000 C 
ATOM      6  C   UNK A   0       1.681   6.241  20.528  0.00  0.00    +0.000 C 
ATOM      7  C   UNK A   0       2.731   5.388  19.804  0.00  0.00    +0.000 C 
ATOM      8  C   UNK A   0       2.815   5.723  18.311  0.00  0.00    +0.000 C 
ATOM      9  C   UNK A   0       3.078   7.221  18.140  0.00  0.00    +0.000 C 
ATOM     10  C   UNK A   0       2.022   8.077  18.831  0.00  0.00    +0.000 C 
BRANCH   5  12
ATOM     11  C   UNK A   0       0.267   9.749  20.068  0.00  0.00    +0.000 C 
ATOM     12  C   UNK A   0       0.728   8.597  20.974  0.00  0.00    +0.000 C 
ATOM     13  C   UNK A   0       1.107   9.190  22.337  0.00  0.00    +0.000 C 
ENDBRANCH   5  12
ENDBRANCH   1   8
BRANCH   3  14
ATOM     14  CA  PHE A   1       6.275   4.875  16.874  0.00  0.00    +0.000 C 
BRANCH  14  15
ATOM     15  C   PHE A   1       7.305   4.607  17.982  0.00  0.00    +0.000 C 
ATOM     16  O   PHE A   1       8.401   4.092  17.783  0.00  0.00    +0.000 OA
BRANCH  15  17
ATOM     17  OXT PHE A   1       6.927   5.020  19.215  0.00  0.00    +0.000 OA
ATOM     18  HXT PHE A   1       6.063   5.470  19.254  0.00  0.00    +0.000 HD
ENDBRANCH  15  17
ENDBRANCH  14  15
BRANCH  14  19
ATOM     19  CB  PHE A   1       6.866   5.649  15.681  0.00  0.00    +0.000 C 
BRANCH  19  20
ATOM     20  CG  PHE A   1       6.653   4.966  14.351  0.00  0.00    +0.000 A 
ATOM     21  CD1 PHE A   1       5.566   4.102  14.156  0.00  0.00    +0.000 A 
ATOM     22  CE1 PHE A   1       5.449   3.370  12.976  0.00  0.00    +0.000 A 
ATOM     23  CZ  PHE A   1       6.401   3.510  11.971  0.00  0.00    +0.000 A 
ATOM     24  CE2 PHE A   1       7.460   4.403  12.134  0.00  0.00    +0.000 A 
ATOM     25  CD2 PHE A   1       7.584   5.129  13.317  0.00  0.00    +0.000 A 
ENDBRANCH  19  20
ENDBRANCH  14  19
ENDBRANCH   3  14
TORSDOF 7
ENDMDL
MODEL 2
REMARK VINA RESULT:      -7.7      2.798      7.083
REMARK  Name = 
REMARK  9 active torsions:
REMARK  status: ('A' for Active; 'I' for Inactive)
REMARK    1  A    between atoms: C_1  and  C_2
REMARK    2  A    between atoms: C_2  and  C_3
REMARK    3  A    between atoms: C_2  and  C_4
REMARK    4  A    between atoms: C_7  and  C_8
REMARK    5  A    between atoms: N_10  and  CA_11
REMARK    6  A    between atoms: CA_11  and  CB_12
REMARK    7  A    between atoms: CA_11  and  C_19
REMARK    8  A    between atoms: CB_12  and  CG_13
REMARK    9  A    between atoms: C_19  and  OXT_21
REMARK                            x       y       z     vdW  Elec       q    Type
REMARK                         _______ _______ _______ _____ _____    ______ ____
ROOT
ATOM      1  C   UNK A   0       6.364   6.069  16.329  0.00  0.00    +0.000 C 
ATOM      2  O   UNK A   0       7.037   7.076  16.540  0.00  0.00    +0.000 OA
ATOM      3  N   PHE A   1       5.823   5.345  17.359  0.00  0.00    +0.000 N 
ATOM      4  H   PHE A   1       5.353   4.460  17.182  0.00  0.00    +0.000 HD
ENDROOT
BRANCH   1   8
ATOM      5  C   UNK A   0       6.142   3.324  12.854  0.00  0.00    +0.000 C 
ATOM      6  C   UNK A   0       7.109   4.527  12.815  0.00  0.00    +0.000 C 
ATOM      7  C   UNK A   0       7.386   5.134  14.196  0.00  0.00    +0.000 C 
ATOM      8  C   UNK A   0       6.095   5.517  14.926  0.00  0.00    +0.000 C 
ATOM      9  C   UNK A   0       5.178   4.295  15.012  0.00  0.00    +0.000 C 
ATOM     10  C   UNK A   0       4.872   3.703  13.641  0.00  0.00    +0.000 C 
BRANCH   5  12
ATOM     11  C   UNK A   0       4.287   2.983  11.100  0.00  0.00    +0.000 C 
ATOM     12  C   UNK A   0       5.779   2.807  11.425  0.00  0.00    +0.000 C 
ATOM     13  C   UNK A   0       6.137   1.331  11.214  0.00  0.00    +0.000 C 
ENDBRANCH   5  12
ENDBRANCH   1   8
BRANCH   3  14
ATOM     14  CA  PHE A   1       6.060   5.700  18.763  0.00  0.00    +0.000 C 
BRANCH  14  15
ATOM     15  C   PHE A   1       7.419   5.127  19.195  0.00  0.00    +0.000 C 
ATOM     16  O   PHE A   1       8.110   4.404  18.484  0.00  0.00    +0.000 OA
BRANCH  15  17
ATOM     17  OXT PHE A   1       7.828   5.513  20.426  0.00  0.00    +0.000 OA
ATOM     18  HXT PHE A   1       7.356   5.094  21.170  0.00  0.00    +0.000 HD
ENDBRANCH  15  17
ENDBRANCH  14  15
BRANCH  14  19
ATOM     19  CB  PHE A   1       4.907   5.268  19.688  0.00  0.00    +0.000 C 
BRANCH  19  20
ATOM     20  CG  PHE A   1       3.978   4.253  19.064  0.00  0.00    +0.000 A 
ATOM     21  CD1 PHE A   1       4.267   2.883  19.131  0.00  0.00    +0.000 A 
ATOM     22  CE1 PHE A   1       3.483   1.962  18.437  0.00  0.00    +0.000 A 
ATOM     23  CZ  PHE A   1       2.391   2.397  17.692  0.00  0.00    +0.000 A 
ATOM     24  CE2 PHE A   1       2.066   3.752  17.658  0.00  0.00    +0.000 A 
ATOM     25  CD2 PHE A   1       2.854   4.677  18.343  0.00  0.00    +0.000 A 
ENDBRANCH  19  20
ENDBRANCH  14  19
ENDBRANCH   3  14
TORSDOF 7
ENDMDL
MODEL 3
REMARK VINA RESULT:      -7.5      2.431      5.043
REMARK  Name = 
REMARK  9 active torsions:
REMARK  status: ('A' for Active; 'I' for Inactive)
REMARK    1  A    between atoms: C_1  and  C_2
REMARK    2  A    between atoms: C_2  and  C_3
REMARK    3  A    between atoms: C_2  and  C_4
REMARK    4  A    between atoms: C_7  and  C_8
REMARK    5  A    between atoms: N_10  and  CA_11
REMARK    6  A    between atoms: CA_11  and  CB_12
REMARK    7  A    between atoms: CA_11  and  C_19
REMARK    8  A    between atoms: CB_12  and  CG_13
REMARK    9  A    between atoms: C_19  and  OXT_21
REMARK                            x       y       z     vdW  Elec       q    Type
REMARK                         _______ _______ _______ _____ _____    ______ ____
ROOT
ATOM      1  C   UNK A   0       3.403   6.054  18.787  0.00  0.00    +0.000 C 
ATOM      2  O   UNK A   0       4.193   5.940  19.722  0.00  0.00    +0.000 OA
ATOM      3  N   PHE A   1       3.477   5.237  17.688  0.00  0.00    +0.000 N 
ATOM      4  H   PHE A   1       2.884   5.401  16.878  0.00  0.00    +0.000 HD
ENDROOT
BRANCH   1   8
ATOM      5  C   UNK A   0       1.264   9.922  19.135  0.00  0.00    +0.000 C 
ATOM      6  C   UNK A   0       0.893   8.757  20.080  0.00  0.00    +0.000 C 
ATOM      7  C   UNK A   0       1.956   7.653  20.135  0.00  0.00    +0.000 C 
ATOM      8  C   UNK A   0       2.301   7.115  18.742  0.00  0.00    +0.000 C 
ATOM      9  C   UNK A   0       2.728   8.275  17.840  0.00  0.00    +0.000 C 
ATOM     10  C   UNK A   0       1.664   9.365  17.755  0.00  0.00    +0.000 C 
BRANCH   5  12
ATOM     11  C   UNK A   0      -0.480  11.367  20.362  0.00  0.00    +0.000 C 
ATOM     12  C   UNK A   0       0.110  10.967  19.001  0.00  0.00    +0.000 C 
ATOM     13  C   UNK A   0      -1.040  10.476  18.113  0.00  0.00    +0.000 C 
ENDBRANCH   5  12
ENDBRANCH   1   8
BRANCH   3  14
ATOM     14  CA  PHE A   1       4.530   4.225  17.546  0.00  0.00    +0.000 C 
BRANCH  14  15
ATOM     15  C   PHE A   1       5.193   4.392  16.170  0.00  0.00    +0.000 C 
ATOM     16  O   PHE A   1       5.113   5.414  15.495  0.00  0.00    +0.000 OA
BRANCH  15  17
ATOM     17  OXT PHE A   1       5.920   3.326  15.761  0.00  0.00    +0.000 OA
ATOM     18  HXT PHE A   1       5.497   2.773  15.078  0.00  0.00    +0.000 HD
ENDBRANCH  15  17
ENDBRANCH  14  15
BRANCH  14  19
ATOM     19  CB  PHE A   1       4.015   2.794  17.792  0.00  0.00    +0.000 C 
BRANCH  19  20
ATOM     20  CG  PHE A   1       3.039   2.691  18.940  0.00  0.00    +0.000 A 
ATOM     21  CD1 PHE A   1       1.657   2.744  18.711  0.00  0.00    +0.000 A 
ATOM     22  CE1 PHE A   1       0.766   2.787  19.782  0.00  0.00    +0.000 A 
ATOM     23  CZ  PHE A   1       1.243   2.753  21.088  0.00  0.00    +0.000 A 
ATOM     24  CE2 PHE A   1       2.613   2.651  21.328  0.00  0.00    +0.000 A 
ATOM     25  CD2 PHE A   1       3.507   2.618  20.259  0.00  0.00    +0.000 A 
ENDBRANCH  19  20
ENDBRANCH  14  19
ENDBRANCH   3  14
TORSDOF 7
ENDMDL
MODEL 4
REMARK VINA RESULT:      -7.5      2.774      7.156
REMARK  Name = 
REMARK  9 active torsions:
REMARK  status: ('A' for Active; 'I' for Inactive)
REMARK    1  A    between atoms: C_1  and  C_2
REMARK    2  A    between atoms: C_2  and  C_3
REMARK    3  A    between atoms: C_2  and  C_4
REMARK    4  A    between atoms: C_7  and  C_8
REMARK    5  A    between atoms: N_10  and  CA_11
REMARK    6  A    between atoms: CA_11  and  CB_12
REMARK    7  A    between atoms: CA_11  and  C_19
REMARK    8  A    between atoms: CB_12  and  CG_13
REMARK    9  A    between atoms: C_19  and  OXT_21
REMARK                            x       y       z     vdW  Elec       q    Type
REMARK                         _______ _______ _______ _____ _____    ______ ____
ROOT
ATOM      1  C   UNK A   0       6.130   6.114  16.311  0.00  0.00    +0.000 C 
ATOM      2  O   UNK A   0       6.650   7.205  16.530  0.00  0.00    +0.000 OA
ATOM      3  N   PHE A   1       5.703   5.310  17.336  0.00  0.00    +0.000 N 
ATOM      4  H   PHE A   1       5.364   4.368  17.152  0.00  0.00    +0.000 HD
ENDROOT
BRANCH   1   8
ATOM      5  C   UNK A   0       6.137   3.327  12.862  0.00  0.00    +0.000 C 
ATOM      6  C   UNK A   0       7.075   4.554  12.853  0.00  0.00    +0.000 C 
ATOM      7  C   UNK A   0       7.273   5.183  14.239  0.00  0.00    +0.000 C 
ATOM      8  C   UNK A   0       5.940   5.540  14.905  0.00  0.00    +0.000 C 
ATOM      9  C   UNK A   0       5.051   4.296  14.963  0.00  0.00    +0.000 C 
ATOM     10  C   UNK A   0       4.824   3.681  13.586  0.00  0.00    +0.000 C 
BRANCH   5  12
ATOM     11  C   UNK A   0       4.373   2.913  11.032  0.00  0.00    +0.000 C 
ATOM     12  C   UNK A   0       5.853   2.786  11.424  0.00  0.00    +0.000 C 
ATOM     13  C   UNK A   0       6.266   1.320  11.245  0.00  0.00    +0.000 C 
ENDBRANCH   5  12
ENDBRANCH   1   8
BRANCH   3  14
ATOM     14  CA  PHE A   1       5.890   5.684  18.743  0.00  0.00    +0.000 C 
BRANCH  14  15
ATOM     15  C   PHE A   1       7.242   5.134  19.225  0.00  0.00    +0.000 C 
ATOM     16  O   PHE A   1       7.729   5.389  20.322  0.00  0.00    +0.000 OA
BRANCH  15  17
ATOM     17  OXT PHE A   1       7.853   4.299  18.352  0.00  0.00    +0.000 OA
ATOM     18  HXT PHE A   1       7.467   3.406  18.292  0.00  0.00    +0.000 HD
ENDBRANCH  15  17
ENDBRANCH  14  15
BRANCH  14  19
ATOM     19  CB  PHE A   1       4.713   5.247  19.635  0.00  0.00    +0.000 C 
BRANCH  19  20
ATOM     20  CG  PHE A   1       3.812   4.221  18.990  0.00  0.00    +0.000 A 
ATOM     21  CD1 PHE A   1       2.635   4.613  18.336  0.00  0.00    +0.000 A 
ATOM     22  CE1 PHE A   1       1.739   3.656  17.862  0.00  0.00    +0.000 A 
ATOM     23  CZ  PHE A   1       2.019   2.302  18.015  0.00  0.00    +0.000 A 
ATOM     24  CE2 PHE A   1       3.210   1.900  18.621  0.00  0.00    +0.000 A 
ATOM     25  CD2 PHE A   1       4.103   2.855  19.104  0.00  0.00    +0.000 A 
ENDBRANCH  19  20
ENDBRANCH  14  19
ENDBRANCH   3  14
TORSDOF 7
ENDMDL
MODEL 5
REMARK VINA RESULT:      -7.4      2.457      4.342
REMARK  Name = 
REMARK  9 active torsions:
REMARK  status: ('A' for Active; 'I' for Inactive)
REMARK    1  A    between atoms: C_1  and  C_2
REMARK    2  A    between atoms: C_2  and  C_3
REMARK    3  A    between atoms: C_2  and  C_4
REMARK    4  A    between atoms: C_7  and  C_8
REMARK    5  A    between atoms: N_10  and  CA_11
REMARK    6  A    between atoms: CA_11  and  CB_12
REMARK    7  A    between atoms: CA_11  and  C_19
REMARK    8  A    between atoms: CB_12  and  CG_13
REMARK    9  A    between atoms: C_19  and  OXT_21
REMARK                            x       y       z     vdW  Elec       q    Type
REMARK                         _______ _______ _______ _____ _____    ______ ____
ROOT
ATOM      1  C   UNK A   0       3.423   6.382  18.696  0.00  0.00    +0.000 C 
ATOM      2  O   UNK A   0       3.976   5.910  19.687  0.00  0.00    +0.000 OA
ATOM      3  N   PHE A   1       3.869   6.104  17.430  0.00  0.00    +0.000 N 
ATOM      4  H   PHE A   1       3.470   6.576  16.622  0.00  0.00    +0.000 HD
ENDROOT
BRANCH   1   8
ATOM      5  C   UNK A   0       0.972  10.027  19.305  0.00  0.00    +0.000 C 
ATOM      6  C   UNK A   0       0.810   8.829  20.267  0.00  0.00    +0.000 C 
ATOM      7  C   UNK A   0       1.974   7.831  20.202  0.00  0.00    +0.000 C 
ATOM      8  C   UNK A   0       2.226   7.334  18.775  0.00  0.00    +0.000 C 
ATOM      9  C   UNK A   0       2.449   8.532  17.850  0.00  0.00    +0.000 C 
ATOM     10  C   UNK A   0       1.283   9.515  17.885  0.00  0.00    +0.000 C 
BRANCH   5  12
ATOM     11  C   UNK A   0      -0.817  11.229  20.715  0.00  0.00    +0.000 C 
ATOM     12  C   UNK A   0      -0.283  10.957  19.300  0.00  0.00    +0.000 C 
ATOM     13  C   UNK A   0      -1.438  10.398  18.459  0.00  0.00    +0.000 C 
ENDBRANCH   5  12
ENDBRANCH   1   8
BRANCH   3  14
ATOM     14  CA  PHE A   1       5.057   5.274  17.193  0.00  0.00    +0.000 C 
BRANCH  14  15
ATOM     15  C   PHE A   1       5.949   5.974  16.155  0.00  0.00    +0.000 C 
ATOM     16  O   PHE A   1       7.169   5.849  16.112  0.00  0.00    +0.000 OA
BRANCH  15  17
ATOM     17  OXT PHE A   1       5.278   6.723  15.249  0.00  0.00    +0.000 OA
ATOM     18  HXT PHE A   1       4.524   6.278  14.820  0.00  0.00    +0.000 HD
ENDBRANCH  15  17
ENDBRANCH  14  15
BRANCH  14  19
ATOM     19  CB  PHE A   1       4.702   3.828  16.799  0.00  0.00    +0.000 C 
BRANCH  19  20
ATOM     20  CG  PHE A   1       3.731   3.164  17.746  0.00  0.00    +0.000 A 
ATOM     21  CD1 PHE A   1       2.374   3.043  17.412  0.00  0.00    +0.000 A 
ATOM     22  CE1 PHE A   1       1.459   2.555  18.343  0.00  0.00    +0.000 A 
ATOM     23  CZ  PHE A   1       1.890   2.162  19.606  0.00  0.00    +0.000 A 
ATOM     24  CE2 PHE A   1       3.244   2.233  19.933  0.00  0.00    +0.000 A 
ATOM     25  CD2 PHE A   1       4.161   2.730  19.007  0.00  0.00    +0.000 A 
ENDBRANCH  19  20
ENDBRANCH  14  19
ENDBRANCH   3  14
TORSDOF 7
ENDMDL
MODEL 6
REMARK VINA RESULT:      -7.3      0.873      1.255
REMARK  Name = 
REMARK  9 active torsions:
REMARK  status: ('A' for Active; 'I' for Inactive)
REMARK    1  A    between atoms: C_1  and  C_2
REMARK    2  A    between atoms: C_2  and  C_3
REMARK    3  A    between atoms: C_2  and  C_4
REMARK    4  A    between atoms: C_7  and  C_8
REMARK    5  A    between atoms: N_10  and  CA_11
REMARK    6  A    between atoms: CA_11  and  CB_12
REMARK    7  A    between atoms: CA_11  and  C_19
REMARK    8  A    between atoms: CB_12  and  CG_13
REMARK    9  A    between atoms: C_19  and  OXT_21
REMARK                            x       y       z     vdW  Elec       q    Type
REMARK                         _______ _______ _______ _____ _____    ______ ____
ROOT
ATOM      1  C   UNK A   0       3.398   5.476  17.707  0.00  0.00    +0.000 C 
ATOM      2  O   UNK A   0       3.084   4.305  17.512  0.00  0.00    +0.000 OA
ATOM      3  N   PHE A   1       4.676   5.918  17.483  0.00  0.00    +0.000 N 
ATOM      4  H   PHE A   1       4.953   6.863  17.741  0.00  0.00    +0.000 HD
ENDROOT
BRANCH   1   8
ATOM      5  C   UNK A   0       1.780   9.103  19.680  0.00  0.00    +0.000 C 
ATOM      6  C   UNK A   0       1.504   7.713  20.294  0.00  0.00    +0.000 C 
ATOM      7  C   UNK A   0       2.439   6.615  19.769  0.00  0.00    +0.000 C 
ATOM      8  C   UNK A   0       2.424   6.530  18.239  0.00  0.00    +0.000 C 
ATOM      9  C   UNK A   0       2.763   7.901  17.650  0.00  0.00    +0.000 C 
ATOM     10  C   UNK A   0       1.821   8.994  18.143  0.00  0.00    +0.000 C 
BRANCH   5  12
ATOM     11  C   UNK A   0       0.308   9.985  21.600  0.00  0.00    +0.000 C 
ATOM     12  C   UNK A   0       0.736  10.171  20.136  0.00  0.00    +0.000 C 
ATOM     13  C   UNK A   0      -0.531  10.175  19.271  0.00  0.00    +0.000 C 
ENDBRANCH   5  12
ENDBRANCH   1   8
BRANCH   3  14
ATOM     14  CA  PHE A   1       5.745   5.009  17.051  0.00  0.00    +0.000 C 
BRANCH  14  15
ATOM     15  C   PHE A   1       6.491   4.498  18.294  0.00  0.00    +0.000 C 
ATOM     16  O   PHE A   1       7.631   4.839  18.592  0.00  0.00    +0.000 OA
BRANCH  15  17
ATOM     17  OXT PHE A   1       5.774   3.654  19.073  0.00  0.00    +0.000 OA
ATOM     18  HXT PHE A   1       6.249   3.303  19.849  0.00  0.00    +0.000 HD
ENDBRANCH  15  17
ENDBRANCH  14  15
BRANCH  14  19
ATOM     19  CB  PHE A   1       6.683   5.648  16.010  0.00  0.00    +0.000 C 
BRANCH  19  20
ATOM     20  CG  PHE A   1       6.569   5.034  14.635  0.00  0.00    +0.000 A 
ATOM     21  CD1 PHE A   1       5.519   4.158  14.328  0.00  0.00    +0.000 A 
ATOM     22  CE1 PHE A   1       5.494   3.488  13.106  0.00  0.00    +0.000 A 
ATOM     23  CZ  PHE A   1       6.502   3.703  12.171  0.00  0.00    +0.000 A 
ATOM     24  CE2 PHE A   1       7.526   4.608  12.447  0.00  0.00    +0.000 A 
ATOM     25  CD2 PHE A   1       7.559   5.273  13.672  0.00  0.00    +0.000 A 
ENDBRANCH  19  20
ENDBRANCH  14  19
ENDBRANCH   3  14
TORSDOF 7
ENDMDL
MODEL 7
REMARK VINA RESULT:      -7.3      2.394      5.079
REMARK  Name = 
REMARK  9 active torsions:
REMARK  status: ('A' for Active; 'I' for Inactive)
REMARK    1  A    between atoms: C_1  and  C_2
REMARK    2  A    between atoms: C_2  and  C_3
REMARK    3  A    between atoms: C_2  and  C_4
REMARK    4  A    between atoms: C_7  and  C_8
REMARK    5  A    between atoms: N_10  and  CA_11
REMARK    6  A    between atoms: CA_11  and  CB_12
REMARK    7  A    between atoms: CA_11  and  C_19
REMARK    8  A    between atoms: CB_12  and  CG_13
REMARK    9  A    between atoms: C_19  and  OXT_21
REMARK                            x       y       z     vdW  Elec       q    Type
REMARK                         _______ _______ _______ _____ _____    ______ ____
ROOT
ATOM      1  C   UNK A   0       4.121   5.876  18.910  0.00  0.00    +0.000 C 
ATOM      2  O   UNK A   0       4.889   5.449  19.769  0.00  0.00    +0.000 OA
ATOM      3  N   PHE A   1       3.894   5.184  17.749  0.00  0.00    +0.000 N 
ATOM      4  H   PHE A   1       3.336   5.590  17.002  0.00  0.00    +0.000 HD
ENDROOT
BRANCH   1   8
ATOM      5  C   UNK A   0       0.912   8.935  18.827  0.00  0.00    +0.000 C 
ATOM      6  C   UNK A   0       2.078   9.025  17.818  0.00  0.00    +0.000 C 
ATOM      7  C   UNK A   0       2.870   7.718  17.681  0.00  0.00    +0.000 C 
ATOM      8  C   UNK A   0       3.379   7.210  19.034  0.00  0.00    +0.000 C 
ATOM      9  C   UNK A   0       2.201   7.066  20.000  0.00  0.00    +0.000 C 
ATOM     10  C   UNK A   0       1.425   8.368  20.165  0.00  0.00    +0.000 C 
BRANCH   5  12
ATOM     11  C   UNK A   0      -1.033  10.479  18.144  0.00  0.00    +0.000 C 
ATOM     12  C   UNK A   0       0.204  10.312  19.040  0.00  0.00    +0.000 C 
ATOM     13  C   UNK A   0       1.133  11.506  18.788  0.00  0.00    +0.000 C 
ENDBRANCH   5  12
ENDBRANCH   1   8
BRANCH   3  14
ATOM     14  CA  PHE A   1       4.594   3.929  17.447  0.00  0.00    +0.000 C 
BRANCH  14  15
ATOM     15  C   PHE A   1       5.261   4.056  16.068  0.00  0.00    +0.000 C 
ATOM     16  O   PHE A   1       5.178   5.055  15.360  0.00  0.00    +0.000 OA
BRANCH  15  17
ATOM     17  OXT PHE A   1       5.994   2.980  15.696  0.00  0.00    +0.000 OA
ATOM     18  HXT PHE A   1       6.682   3.157  15.029  0.00  0.00    +0.000 HD
ENDBRANCH  15  17
ENDBRANCH  14  15
BRANCH  14  19
ATOM     19  CB  PHE A   1       3.677   2.697  17.557  0.00  0.00    +0.000 C 
BRANCH  19  20
ATOM     20  CG  PHE A   1       2.815   2.693  18.797  0.00  0.00    +0.000 A 
ATOM     21  CD1 PHE A   1       1.444   2.976  18.716  0.00  0.00    +0.000 A 
ATOM     22  CE1 PHE A   1       0.681   3.107  19.875  0.00  0.00    +0.000 A 
ATOM     23  CZ  PHE A   1       1.272   2.933  21.123  0.00  0.00    +0.000 A 
ATOM     24  CE2 PHE A   1       2.624   2.604  21.214  0.00  0.00    +0.000 A 
ATOM     25  CD2 PHE A   1       3.392   2.482  20.056  0.00  0.00    +0.000 A 
ENDBRANCH  19  20
ENDBRANCH  14  19
ENDBRANCH   3  14
TORSDOF 7
ENDMDL
MODEL 8
REMARK VINA RESULT:      -7.3      2.432      4.375
REMARK  Name = 
REMARK  9 active torsions:
REMARK  status: ('A' for Active; 'I' for Inactive)
REMARK    1  A    between atoms: C_1  and  C_2
REMARK    2  A    between atoms: C_2  and  C_3
REMARK    3  A    between atoms: C_2  and  C_4
REMARK    4  A    between atoms: C_7  and  C_8
REMARK    5  A    between atoms: N_10  and  CA_11
REMARK    6  A    between atoms: CA_11  and  CB_12
REMARK    7  A    between atoms: CA_11  and  C_19
REMARK    8  A    between atoms: CB_12  and  CG_13
REMARK    9  A    between atoms: C_19  and  OXT_21
REMARK                            x       y       z     vdW  Elec       q    Type
REMARK                         _______ _______ _______ _____ _____    ______ ____
ROOT
ATOM      1  C   UNK A   0       3.426   6.401  18.668  0.00  0.00    +0.000 C 
ATOM      2  O   UNK A   0       4.058   6.002  19.642  0.00  0.00    +0.000 OA
ATOM      3  N   PHE A   1       3.802   6.073  17.391  0.00  0.00    +0.000 N 
ATOM      4  H   PHE A   1       3.334   6.488  16.588  0.00  0.00    +0.000 HD
ENDROOT
BRANCH   1   8
ATOM      5  C   UNK A   0       0.871   9.967  19.320  0.00  0.00    +0.000 C 
ATOM      6  C   UNK A   0       0.782   8.775  20.299  0.00  0.00    +0.000 C 
ATOM      7  C   UNK A   0       1.977   7.817  20.206  0.00  0.00    +0.000 C 
ATOM      8  C   UNK A   0       2.200   7.312  18.776  0.00  0.00    +0.000 C 
ATOM      9  C   UNK A   0       2.350   8.507  17.832  0.00  0.00    +0.000 C 
ATOM     10  C   UNK A   0       1.153   9.450  17.896  0.00  0.00    +0.000 C 
BRANCH   5  12
ATOM     11  C   UNK A   0      -1.323  10.606  18.132  0.00  0.00    +0.000 C 
ATOM     12  C   UNK A   0      -0.415  10.853  19.347  0.00  0.00    +0.000 C 
ATOM     13  C   UNK A   0      -0.104  12.354  19.407  0.00  0.00    +0.000 C 
ENDBRANCH   5  12
ENDBRANCH   1   8
BRANCH   3  14
ATOM     14  CA  PHE A   1       5.003   5.276  17.119  0.00  0.00    +0.000 C 
BRANCH  14  15
ATOM     15  C   PHE A   1       5.826   5.978  16.026  0.00  0.00    +0.000 C 
ATOM     16  O   PHE A   1       5.339   6.719  15.178  0.00  0.00    +0.000 OA
BRANCH  15  17
ATOM     17  OXT PHE A   1       7.158   5.746  16.088  0.00  0.00    +0.000 OA
ATOM     18  HXT PHE A   1       7.679   6.439  16.532  0.00  0.00    +0.000 HD
ENDBRANCH  15  17
ENDBRANCH  14  15
BRANCH  14  19
ATOM     19  CB  PHE A   1       4.678   3.810  16.774  0.00  0.00    +0.000 C 
BRANCH  19  20
ATOM     20  CG  PHE A   1       3.724   3.157  17.746  0.00  0.00    +0.000 A 
ATOM     21  CD1 PHE A   1       2.371   2.991  17.418  0.00  0.00    +0.000 A 
ATOM     22  CE1 PHE A   1       1.468   2.515  18.368  0.00  0.00    +0.000 A 
ATOM     23  CZ  PHE A   1       1.910   2.179  19.643  0.00  0.00    +0.000 A 
ATOM     24  CE2 PHE A   1       3.262   2.295  19.966  0.00  0.00    +0.000 A 
ATOM     25  CD2 PHE A   1       4.165   2.779  19.021  0.00  0.00    +0.000 A 
ENDBRANCH  19  20
ENDBRANCH  14  19
ENDBRANCH   3  14
TORSDOF 7
ENDMDL
MODEL 9
REMARK VINA RESULT:      -7.1      2.462      4.287
REMARK  Name = 
REMARK  9 active torsions:
REMARK  status: ('A' for Active; 'I' for Inactive)
REMARK    1  A    between atoms: C_1  and  C_2
REMARK    2  A    between atoms: C_2  and  C_3
REMARK    3  A    between atoms: C_2  and  C_4
REMARK    4  A    between atoms: C_7  and  C_8
REMARK    5  A    between atoms: N_10  and  CA_11
REMARK    6  A    between atoms: CA_11  and  CB_12
REMARK    7  A    between atoms: CA_11  and  C_19
REMARK    8  A    between atoms: CB_12  and  CG_13
REMARK    9  A    between atoms: C_19  and  OXT_21
REMARK                            x       y       z     vdW  Elec       q    Type
REMARK                         _______ _______ _______ _____ _____    ______ ____
ROOT
ATOM      1  C   UNK A   0       2.558   7.214  18.709  0.00  0.00    +0.000 C 
ATOM      2  O   UNK A   0       3.171   7.318  17.650  0.00  0.00    +0.000 OA
ATOM      3  N   PHE A   1       2.263   5.987  19.245  0.00  0.00    +0.000 N 
ATOM      4  H   PHE A   1       1.671   5.908  20.069  0.00  0.00    +0.000 HD
ENDROOT
BRANCH   1   8
ATOM      5  C   UNK A   0      -0.136  10.013  20.848  0.00  0.00    +0.000 C 
ATOM      6  C   UNK A   0       0.514  10.447  19.516  0.00  0.00    +0.000 C 
ATOM      7  C   UNK A   0       1.069   9.276  18.695  0.00  0.00    +0.000 C 
ATOM      8  C   UNK A   0       2.046   8.418  19.505  0.00  0.00    +0.000 C 
ATOM      9  C   UNK A   0       1.363   7.943  20.790  0.00  0.00    +0.000 C 
ATOM     10  C   UNK A   0       0.834   9.103  21.627  0.00  0.00    +0.000 C 
BRANCH   5  12
ATOM     11  C   UNK A   0      -1.126  10.806  23.089  0.00  0.00    +0.000 C 
ATOM     12  C   UNK A   0      -0.577  11.233  21.719  0.00  0.00    +0.000 C 
ATOM     13  C   UNK A   0      -1.639  12.102  21.034  0.00  0.00    +0.000 C 
ENDBRANCH   5  12
ENDBRANCH   1   8
BRANCH   3  14
ATOM     14  CA  PHE A   1       2.614   4.738  18.559  0.00  0.00    +0.000 C 
BRANCH  14  15
ATOM     15  C   PHE A   1       1.482   3.722  18.773  0.00  0.00    +0.000 C 
ATOM     16  O   PHE A   1       1.235   2.803  17.997  0.00  0.00    +0.000 OA
BRANCH  15  17
ATOM     17  OXT PHE A   1       0.783   3.890  19.920  0.00  0.00    +0.000 OA
ATOM     18  HXT PHE A   1      -0.006   3.325  20.012  0.00  0.00    +0.000 HD
ENDBRANCH  15  17
ENDBRANCH  14  15
BRANCH  14  19
ATOM     19  CB  PHE A   1       3.993   4.196  18.981  0.00  0.00    +0.000 C 
BRANCH  19  20
ATOM     20  CG  PHE A   1       5.027   4.251  17.882  0.00  0.00    +0.000 A 
ATOM     21  CD1 PHE A   1       6.347   4.632  18.159  0.00  0.00    +0.000 A 
ATOM     22  CE1 PHE A   1       7.261   4.814  17.123  0.00  0.00    +0.000 A 
ATOM     23  CZ  PHE A   1       6.875   4.594  15.805  0.00  0.00    +0.000 A 
ATOM     24  CE2 PHE A   1       5.578   4.167  15.520  0.00  0.00    +0.000 A 
ATOM     25  CD2 PHE A   1       4.658   3.994  16.554  0.00  0.00    +0.000 A 
ENDBRANCH  19  20
ENDBRANCH  14  19
ENDBRANCH   3  14
TORSDOF 7
ENDMDL
