MODEL 1
REMARK VINA RESULT:      -8.2      0.000      0.000
REMARK  Name = 
REMARK  9 active torsions:
REMARK  status: ('A' for Active; 'I' for Inactive)
REMARK    1  A    between atoms: C_2  and  C_3
REMARK    2  A    between atoms: C_3  and  N_4
REMARK    3  A    between atoms: C_5  and  C_7
REMARK    4  A    between atoms: C_7  and  C_8
REMARK    5  A    between atoms: N_14  and  C_15
REMARK    6  A    between atoms: C_15  and  C_16
REMARK    7  A    between atoms: N_21  and  C_22
REMARK    8  A    between atoms: C_22  and  C_23
REMARK    9  A    between atoms: C_22  and  C_29
REMARK                            x       y       z     vdW  Elec       q    Type
REMARK                         _______ _______ _______ _____ _____    ______ ____
ROOT
ATOM      1  C   UNL     1       1.228   8.910  19.812  0.00  0.00    +0.000 C 
ATOM      2  O   UNL     1       0.993  10.008  19.298  0.00  0.00    +0.000 OA
ATOM      3  N   UNL     1       1.909   7.910  19.133  0.00  0.00    +0.000 N 
ATOM      4  C   UNL     1       2.490   8.192  17.820  0.00  0.00    +0.000 C 
ATOM      5  C   UNL     1       3.986   7.808  17.787  0.00  0.00    +0.000 C 
ATOM      6  N   UNL     1       4.288   6.412  18.238  0.00  0.00    +0.000 NA
ATOM      7  C   UNL     1       3.686   6.258  19.582  0.00  0.00    +0.000 C 
ATOM      8  C   UNL     1       2.181   6.566  19.649  0.00  0.00    +0.000 C 
ENDROOT
BRANCH   1   9
ATOM      9  C   UNL     1       0.785   8.616  21.253  0.00  0.00    +0.000 C 
BRANCH   9  12
ATOM     10  O   UNL     1       0.482   9.644  23.862  0.00  0.00    +0.000 OA
ATOM     11  C   UNL     1      -0.303   9.997  22.988  0.00  0.00    +0.000 C 
ATOM     12  N   UNL     1      -0.232   9.555  21.687  0.00  0.00    +0.000 N 
ATOM     13  H   UNL     1      -0.761  10.041  20.962  0.00  0.00    +0.000 HD
BRANCH  11  14
ATOM     14  C   UNL     1      -1.424  11.011  23.248  0.00  0.00    +0.000 C 
BRANCH  14  15
ATOM     15  N   UNL     1      -1.752  11.796  22.072  0.00  0.00    +0.000 N 
ATOM     16  C   UNL     1      -2.986  12.393  21.945  0.00  0.00    +0.000 C 
ATOM     17  O   UNL     1      -3.861  12.278  22.801  0.00  0.00    +0.000 OA
ATOM     18  H   UNL     1      -1.131  11.751  21.273  0.00  0.00    +0.000 HD
BRANCH  16  19
ATOM     19  C   UNL     1      -3.177  13.219  20.684  0.00  0.00    +0.000 C 
BRANCH  19  20
ATOM     20  C   UNL     1      -3.914  12.493  19.586  0.00  0.00    +0.000 A 
ATOM     21  C   UNL     1      -5.310  12.583  19.481  0.00  0.00    +0.000 A 
ATOM     22  C   UNL     1      -5.986  11.943  18.441  0.00  0.00    +0.000 A 
ATOM     23  C   UNL     1      -5.277  11.215  17.489  0.00  0.00    +0.000 A 
ATOM     24  C   UNL     1      -3.890  11.123  17.579  0.00  0.00    +0.000 A 
ATOM     25  C   UNL     1      -3.210  11.758  18.621  0.00  0.00    +0.000 A 
ENDBRANCH  19  20
ENDBRANCH  16  19
ENDBRANCH  14  15
ENDBRANCH  11  14
ENDBRANCH   9  12
ENDBRANCH   1   9
BRANCH   6  26
ATOM     26  C   UNL     1       3.842   5.394  17.229  0.00  0.00    +0.000 C 
BRANCH  26  27
ATOM     27  C   UNL     1       4.960   5.164  16.195  0.00  0.00    +0.000 A 
ATOM     28  C   UNL     1       4.699   4.493  14.987  0.00  0.00    +0.000 A 
ATOM     29  C   UNL     1       5.744   4.091  14.154  0.00  0.00    +0.000 A 
ATOM     30  C   UNL     1       7.063   4.360  14.510  0.00  0.00    +0.000 A 
ATOM     31  C   UNL     1       7.338   5.066  15.680  0.00  0.00    +0.000 A 
ATOM     32  C   UNL     1       6.294   5.476  16.512  0.00  0.00    +0.000 A 
ENDBRANCH  26  27
BRANCH  26  33
ATOM     33  C   UNL     1       3.336   4.054  17.795  0.00  0.00    +0.000 A 
ATOM     34  C   UNL     1       4.240   3.193  18.452  0.00  0.00    +0.000 A 
ATOM     35  C   UNL     1       3.813   1.985  19.014  0.00  0.00    +0.000 A 
ATOM     36  C   UNL     1       2.475   1.610  18.928  0.00  0.00    +0.000 A 
ATOM     37  C   UNL     1       1.566   2.442  18.276  0.00  0.00    +0.000 A 
ATOM     38  C   UNL     1       1.991   3.656  17.727  0.00  0.00    +0.000 A 
ENDBRANCH  26  33
ENDBRANCH   6  26
TORSDOF 9
ENDMDL
MODEL 2
REMARK VINA RESULT:      -8.0      2.505      3.446
REMARK  Name = 
REMARK  9 active torsions:
REMARK  status: ('A' for Active; 'I' for Inactive)
REMARK    1  A    between atoms: C_2  and  C_3
REMARK    2  A    between atoms: C_3  and  N_4
REMARK    3  A    between atoms: C_5  and  C_7
REMARK    4  A    between atoms: C_7  and  C_8
REMARK    5  A    between atoms: N_14  and  C_15
REMARK    6  A    between atoms: C_15  and  C_16
REMARK    7  A    between atoms: N_21  and  C_22
REMARK    8  A    between atoms: C_22  and  C_23
REMARK    9  A    between atoms: C_22  and  C_29
REMARK                            x       y       z     vdW  Elec       q    Type
REMARK                         _______ _______ _______ _____ _____    ______ ____
ROOT
ATOM      1  C   UNL     1       1.213   9.124  19.527  0.00  0.00    +0.000 C 
ATOM      2  O   UNL     1       1.041  10.176  18.904  0.00  0.00    +0.000 OA
ATOM      3  N   UNL     1       1.869   8.037  18.968  0.00  0.00    +0.000 N 
ATOM      4  C   UNL     1       2.498   8.168  17.654  0.00  0.00    +0.000 C 
ATOM      5  C   UNL     1       3.977   7.722  17.706  0.00  0.00    +0.000 C 
ATOM      6  N   UNL     1       4.205   6.365  18.296  0.00  0.00    +0.000 NA
ATOM      7  C   UNL     1       3.558   6.364  19.629  0.00  0.00    +0.000 C 
ATOM      8  C   UNL     1       2.067   6.738  19.617  0.00  0.00    +0.000 C 
ENDROOT
BRANCH   1   9
ATOM      9  C   UNL     1       0.718   8.988  20.974  0.00  0.00    +0.000 C 
BRANCH   9  12
ATOM     10  O   UNL     1       0.165   9.807  23.616  0.00  0.00    +0.000 OA
ATOM     11  C   UNL     1      -0.297  10.455  22.683  0.00  0.00    +0.000 C 
ATOM     12  N   UNL     1      -0.078  10.137  21.363  0.00  0.00    +0.000 N 
ATOM     13  H   UNL     1      -0.296  10.823  20.638  0.00  0.00    +0.000 HD
BRANCH  11  14
ATOM     14  C   UNL     1      -1.134  11.722  22.895  0.00  0.00    +0.000 C 
BRANCH  14  15
ATOM     15  N   UNL     1      -1.207  12.550  21.705  0.00  0.00    +0.000 N 
ATOM     16  C   UNL     1      -0.357  13.620  21.537  0.00  0.00    +0.000 C 
ATOM     17  O   UNL     1       0.481  13.930  22.382  0.00  0.00    +0.000 OA
ATOM     18  H   UNL     1      -2.002  12.438  21.088  0.00  0.00    +0.000 HD
BRANCH  16  19
ATOM     19  C   UNL     1      -0.516  14.371  20.226  0.00  0.00    +0.000 C 
BRANCH  19  20
ATOM     20  C   UNL     1       0.775  14.548  19.465  0.00  0.00    +0.000 A 
ATOM     21  C   UNL     1       1.513  13.434  19.041  0.00  0.00    +0.000 A 
ATOM     22  C   UNL     1       2.687  13.599  18.303  0.00  0.00    +0.000 A 
ATOM     23  C   UNL     1       3.130  14.877  17.971  0.00  0.00    +0.000 A 
ATOM     24  C   UNL     1       2.401  15.991  18.381  0.00  0.00    +0.000 A 
ATOM     25  C   UNL     1       1.230  15.830  19.124  0.00  0.00    +0.000 A 
ENDBRANCH  19  20
ENDBRANCH  16  19
ENDBRANCH  14  15
ENDBRANCH  11  14
ENDBRANCH   9  12
ENDBRANCH   1   9
BRANCH   6  26
ATOM     26  C   UNL     1       3.744   5.274  17.373  0.00  0.00    +0.000 C 
BRANCH  26  27
ATOM     27  C   UNL     1       4.909   4.833  16.467  0.00  0.00    +0.000 A 
ATOM     28  C   UNL     1       6.243   4.969  16.889  0.00  0.00    +0.000 A 
ATOM     29  C   UNL     1       7.297   4.778  15.994  0.00  0.00    +0.000 A 
ATOM     30  C   UNL     1       7.035   4.441  14.669  0.00  0.00    +0.000 A 
ATOM     31  C   UNL     1       5.720   4.256  14.245  0.00  0.00    +0.000 A 
ATOM     32  C   UNL     1       4.663   4.439  15.140  0.00  0.00    +0.000 A 
ENDBRANCH  26  27
BRANCH  26  33
ATOM     33  C   UNL     1       3.079   4.056  18.042  0.00  0.00    +0.000 A 
ATOM     34  C   UNL     1       1.682   3.889  17.944  0.00  0.00    +0.000 A 
ATOM     35  C   UNL     1       1.043   2.777  18.504  0.00  0.00    +0.000 A 
ATOM     36  C   UNL     1       1.787   1.811  19.176  0.00  0.00    +0.000 A 
ATOM     37  C   UNL     1       3.167   1.960  19.292  0.00  0.00    +0.000 A 
ATOM     38  C   UNL     1       3.807   3.065  18.720  0.00  0.00    +0.000 A 
ENDBRANCH  26  33
ENDBRANCH   6  26
TORSDOF 9
ENDMDL
MODEL 3
REMARK VINA RESULT:      -8.0      5.972     10.666
REMARK  Name = 
REMARK  9 active torsions:
REMARK  status: ('A' for Active; 'I' for Inactive)
REMARK    1  A    between atoms: C_2  and  C_3
REMARK    2  A    between atoms: C_3  and  N_4
REMARK    3  A    between atoms: C_5  and  C_7
REMARK    4  A    between atoms: C_7  and  C_8
REMARK    5  A    between atoms: N_14  and  C_15
REMARK    6  A    between atoms: C_15  and  C_16
REMARK    7  A    between atoms: N_21  and  C_22
REMARK    8  A    between atoms: C_22  and  C_23
REMARK    9  A    between atoms: C_22  and  C_29
REMARK                            x       y       z     vdW  Elec       q    Type
REMARK                         _______ _______ _______ _____ _____    ______ ____
ROOT
ATOM      1  C   UNL     1       1.687  16.361  19.817  0.00  0.00    +0.000 C 
ATOM      2  O   UNL     1       1.279  17.310  19.141  0.00  0.00    +0.000 OA
ATOM      3  N   UNL     1       1.026  15.141  19.847  0.00  0.00    +0.000 N 
ATOM      4  C   UNL     1      -0.112  14.912  18.957  0.00  0.00    +0.000 C 
ATOM      5  C   UNL     1       0.083  13.616  18.138  0.00  0.00    +0.000 C 
ATOM      6  N   UNL     1       0.405  12.400  18.950  0.00  0.00    +0.000 NA
ATOM      7  C   UNL     1       1.585  12.739  19.778  0.00  0.00    +0.000 C 
ATOM      8  C   UNL     1       1.412  13.985  20.661  0.00  0.00    +0.000 C 
ENDROOT
BRANCH   1   9
ATOM      9  C   UNL     1       2.974  16.492  20.644  0.00  0.00    +0.000 C 
BRANCH   9  12
ATOM     10  O   UNL     1       5.107  18.137  19.808  0.00  0.00    +0.000 OA
ATOM     11  C   UNL     1       5.122  16.947  19.512  0.00  0.00    +0.000 C 
ATOM     12  N   UNL     1       4.131  16.067  19.879  0.00  0.00    +0.000 N 
ATOM     13  H   UNL     1       4.297  15.062  19.800  0.00  0.00    +0.000 HD
BRANCH  11  14
ATOM     14  C   UNL     1       6.278  16.305  18.735  0.00  0.00    +0.000 C 
BRANCH  14  15
ATOM     15  N   UNL     1       6.777  15.099  19.370  0.00  0.00    +0.000 N 
ATOM     16  C   UNL     1       8.060  15.044  19.868  0.00  0.00    +0.000 C 
ATOM     17  O   UNL     1       8.837  15.992  19.784  0.00  0.00    +0.000 OA
ATOM     18  H   UNL     1       6.234  14.249  19.285  0.00  0.00    +0.000 HD
BRANCH  16  19
ATOM     19  C   UNL     1       8.434  13.735  20.544  0.00  0.00    +0.000 C 
BRANCH  19  20
ATOM     20  C   UNL     1       9.538  12.982  19.844  0.00  0.00    +0.000 A 
ATOM     21  C   UNL     1       9.471  12.730  18.466  0.00  0.00    +0.000 A 
ATOM     22  C   UNL     1      10.512  12.068  17.814  0.00  0.00    +0.000 A 
ATOM     23  C   UNL     1      11.636  11.658  18.527  0.00  0.00    +0.000 A 
ATOM     24  C   UNL     1      11.717  11.907  19.895  0.00  0.00    +0.000 A 
ATOM     25  C   UNL     1      10.675  12.565  20.552  0.00  0.00    +0.000 A 
ENDBRANCH  19  20
ENDBRANCH  16  19
ENDBRANCH  14  15
ENDBRANCH  11  14
ENDBRANCH   9  12
ENDBRANCH   1   9
BRANCH   6  26
ATOM     26  C   UNL     1      -0.788  11.918  19.725  0.00  0.00    +0.000 C 
BRANCH  26  27
ATOM     27  C   UNL     1      -1.810  11.284  18.763  0.00  0.00    +0.000 A 
ATOM     28  C   UNL     1      -1.406  10.349  17.795  0.00  0.00    +0.000 A 
ATOM     29  C   UNL     1      -2.282   9.941  16.787  0.00  0.00    +0.000 A 
ATOM     30  C   UNL     1      -3.575  10.456  16.737  0.00  0.00    +0.000 A 
ATOM     31  C   UNL     1      -4.008  11.348  17.716  0.00  0.00    +0.000 A 
ATOM     32  C   UNL     1      -3.136  11.752  18.730  0.00  0.00    +0.000 A 
ENDBRANCH  26  27
BRANCH  26  33
ATOM     33  C   UNL     1      -0.494  10.978  20.909  0.00  0.00    +0.000 A 
ATOM     34  C   UNL     1      -1.063  11.253  22.170  0.00  0.00    +0.000 A 
ATOM     35  C   UNL     1      -0.853  10.403  23.261  0.00  0.00    +0.000 A 
ATOM     36  C   UNL     1      -0.066   9.264  23.117  0.00  0.00    +0.000 A 
ATOM     37  C   UNL     1       0.513   8.978  21.882  0.00  0.00    +0.000 A 
ATOM     38  C   UNL     1       0.290   9.820  20.787  0.00  0.00    +0.000 A 
ENDBRANCH  26  33
ENDBRANCH   6  26
TORSDOF 9
ENDMDL
MODEL 4
REMARK VINA RESULT:      -8.0      6.222     11.010
REMARK  Name = 
REMARK  9 active torsions:
REMARK  status: ('A' for Active; 'I' for Inactive)
REMARK    1  A    between atoms: C_2  and  C_3
REMARK    2  A    between atoms: C_3  and  N_4
REMARK    3  A    between atoms: C_5  and  C_7
REMARK    4  A    between atoms: C_7  and  C_8
REMARK    5  A    between atoms: N_14  and  C_15
REMARK    6  A    between atoms: C_15  and  C_16
REMARK    7  A    between atoms: N_21  and  C_22
REMARK    8  A    between atoms: C_22  and  C_23
REMARK    9  A    between atoms: C_22  and  C_29
REMARK                            x       y       z     vdW  Elec       q    Type
REMARK                         _______ _______ _______ _____ _____    ______ ____
ROOT
ATOM      1  C   UNL     1       3.721  14.708  19.830  0.00  0.00    +0.000 C 
ATOM      2  O   UNL     1       4.377  14.756  20.874  0.00  0.00    +0.000 OA
ATOM      3  N   UNL     1       2.633  13.859  19.684  0.00  0.00    +0.000 N 
ATOM      4  C   UNL     1       2.154  13.091  20.834  0.00  0.00    +0.000 C 
ATOM      5  C   UNL     1       0.641  13.314  21.052  0.00  0.00    +0.000 C 
ATOM      6  N   UNL     1      -0.210  13.086  19.840  0.00  0.00    +0.000 NA
ATOM      7  C   UNL     1       0.346  13.936  18.762  0.00  0.00    +0.000 C 
ATOM      8  C   UNL     1       1.836  13.701  18.465  0.00  0.00    +0.000 C 
ENDROOT
BRANCH   1   9
ATOM      9  C   UNL     1       4.078  15.615  18.644  0.00  0.00    +0.000 C 
BRANCH   9  12
ATOM     10  O   UNL     1       6.531  14.798  17.515  0.00  0.00    +0.000 OA
ATOM     11  C   UNL     1       6.512  15.777  18.254  0.00  0.00    +0.000 C 
ATOM     12  N   UNL     1       5.365  16.253  18.845  0.00  0.00    +0.000 N 
ATOM     13  H   UNL     1       5.366  17.184  19.265  0.00  0.00    +0.000 HD
BRANCH  11  14
ATOM     14  C   UNL     1       7.767  16.603  18.558  0.00  0.00    +0.000 C 
BRANCH  14  15
ATOM     15  N   UNL     1       8.905  15.778  18.920  0.00  0.00    +0.000 N 
ATOM     16  C   UNL     1      10.010  15.703  18.101  0.00  0.00    +0.000 C 
ATOM     17  O   UNL     1      10.077  16.308  17.033  0.00  0.00    +0.000 OA
ATOM     18  H   UNL     1       8.804  15.126  19.688  0.00  0.00    +0.000 HD
BRANCH  16  19
ATOM     19  C   UNL     1      11.143  14.836  18.625  0.00  0.00    +0.000 C 
BRANCH  19  20
ATOM     20  C   UNL     1      10.727  13.424  18.957  0.00  0.00    +0.000 A 
ATOM     21  C   UNL     1      10.707  12.979  20.287  0.00  0.00    +0.000 A 
ATOM     22  C   UNL     1      10.285  11.685  20.595  0.00  0.00    +0.000 A 
ATOM     23  C   UNL     1       9.868  10.825  19.582  0.00  0.00    +0.000 A 
ATOM     24  C   UNL     1       9.878  11.258  18.258  0.00  0.00    +0.000 A 
ATOM     25  C   UNL     1      10.305  12.550  17.945  0.00  0.00    +0.000 A 
ENDBRANCH  19  20
ENDBRANCH  16  19
ENDBRANCH  14  15
ENDBRANCH  11  14
ENDBRANCH   9  12
ENDBRANCH   1   9
BRANCH   6  26
ATOM     26  C   UNL     1      -0.313  11.627  19.500  0.00  0.00    +0.000 C 
BRANCH  26  27
ATOM     27  C   UNL     1      -0.353  10.794  20.795  0.00  0.00    +0.000 A 
ATOM     28  C   UNL     1      -1.129  11.204  21.893  0.00  0.00    +0.000 A 
ATOM     29  C   UNL     1      -0.998  10.576  23.133  0.00  0.00    +0.000 A 
ATOM     30  C   UNL     1      -0.096   9.527  23.292  0.00  0.00    +0.000 A 
ATOM     31  C   UNL     1       0.647   9.077  22.202  0.00  0.00    +0.000 A 
ATOM     32  C   UNL     1       0.512   9.697  20.958  0.00  0.00    +0.000 A 
ENDBRANCH  26  27
BRANCH  26  33
ATOM     33  C   UNL     1      -1.465  11.230  18.557  0.00  0.00    +0.000 A 
ATOM     34  C   UNL     1      -1.263  10.202  17.612  0.00  0.00    +0.000 A 
ATOM     35  C   UNL     1      -2.294   9.784  16.764  0.00  0.00    +0.000 A 
ATOM     36  C   UNL     1      -3.546  10.388  16.839  0.00  0.00    +0.000 A 
ATOM     37  C   UNL     1      -3.765  11.411  17.759  0.00  0.00    +0.000 A 
ATOM     38  C   UNL     1      -2.738  11.818  18.617  0.00  0.00    +0.000 A 
ENDBRANCH  26  33
ENDBRANCH   6  26
TORSDOF 9
ENDMDL
MODEL 5
REMARK VINA RESULT:      -7.9      1.478      2.139
REMARK  Name = 
REMARK  9 active torsions:
REMARK  status: ('A' for Active; 'I' for Inactive)
REMARK    1  A    between atoms: C_2  and  C_3
REMARK    2  A    between atoms: C_3  and  N_4
REMARK    3  A    between atoms: C_5  and  C_7
REMARK    4  A    between atoms: C_7  and  C_8
REMARK    5  A    between atoms: N_14  and  C_15
REMARK    6  A    between atoms: C_15  and  C_16
REMARK    7  A    between atoms: N_21  and  C_22
REMARK    8  A    between atoms: C_22  and  C_23
REMARK    9  A    between atoms: C_22  and  C_29
REMARK                            x       y       z     vdW  Elec       q    Type
REMARK                         _______ _______ _______ _____ _____    ______ ____
ROOT
ATOM      1  C   UNL     1       1.641   9.647  18.655  0.00  0.00    +0.000 C 
ATOM      2  O   UNL     1       1.958  10.652  18.012  0.00  0.00    +0.000 OA
ATOM      3  N   UNL     1       2.137   8.388  18.345  0.00  0.00    +0.000 N 
ATOM      4  C   UNL     1       3.167   8.250  17.315  0.00  0.00    +0.000 C 
ATOM      5  C   UNL     1       4.382   7.462  17.855  0.00  0.00    +0.000 C 
ATOM      6  N   UNL     1       4.048   6.145  18.486  0.00  0.00    +0.000 NA
ATOM      7  C   UNL     1       3.030   6.416  19.527  0.00  0.00    +0.000 C 
ATOM      8  C   UNL     1       1.773   7.141  19.021  0.00  0.00    +0.000 C 
ENDROOT
BRANCH   1   9
ATOM      9  C   UNL     1       0.690   9.759  19.855  0.00  0.00    +0.000 C 
BRANCH   9  12
ATOM     10  O   UNL     1       0.525  11.954  21.619  0.00  0.00    +0.000 OA
ATOM     11  C   UNL     1      -0.205  11.926  20.633  0.00  0.00    +0.000 C 
ATOM     12  N   UNL     1      -0.193  10.902  19.715  0.00  0.00    +0.000 N 
ATOM     13  H   UNL     1      -0.651  11.032  18.812  0.00  0.00    +0.000 HD
BRANCH  11  14
ATOM     14  C   UNL     1      -1.180  13.061  20.298  0.00  0.00    +0.000 C 
BRANCH  14  15
ATOM     15  N   UNL     1      -2.228  12.646  19.383  0.00  0.00    +0.000 N 
ATOM     16  C   UNL     1      -3.498  12.378  19.842  0.00  0.00    +0.000 C 
ATOM     17  O   UNL     1      -3.797  12.461  21.031  0.00  0.00    +0.000 OA
ATOM     18  H   UNL     1      -1.969  12.387  18.439  0.00  0.00    +0.000 HD
BRANCH  16  19
ATOM     19  C   UNL     1      -4.504  11.997  18.769  0.00  0.00    +0.000 C 
BRANCH  19  20
ATOM     20  C   UNL     1      -3.902  11.242  17.610  0.00  0.00    +0.000 A 
ATOM     21  C   UNL     1      -3.087  10.122  17.832  0.00  0.00    +0.000 A 
ATOM     22  C   UNL     1      -2.562   9.402  16.757  0.00  0.00    +0.000 A 
ATOM     23  C   UNL     1      -2.854   9.784  15.450  0.00  0.00    +0.000 A 
ATOM     24  C   UNL     1      -3.667  10.891  15.217  0.00  0.00    +0.000 A 
ATOM     25  C   UNL     1      -4.189  11.617  16.289  0.00  0.00    +0.000 A 
ENDBRANCH  19  20
ENDBRANCH  16  19
ENDBRANCH  14  15
ENDBRANCH  11  14
ENDBRANCH   9  12
ENDBRANCH   1   9
BRANCH   6  26
ATOM     26  C   UNL     1       3.643   5.126  17.461  0.00  0.00    +0.000 C 
BRANCH  26  27
ATOM     27  C   UNL     1       4.864   4.729  16.611  0.00  0.00    +0.000 A 
ATOM     28  C   UNL     1       6.149   4.669  17.179  0.00  0.00    +0.000 A 
ATOM     29  C   UNL     1       7.279   4.526  16.372  0.00  0.00    +0.000 A 
ATOM     30  C   UNL     1       7.142   4.433  14.989  0.00  0.00    +0.000 A 
ATOM     31  C   UNL     1       5.873   4.443  14.413  0.00  0.00    +0.000 A 
ATOM     32  C   UNL     1       4.739   4.578  15.218  0.00  0.00    +0.000 A 
ENDBRANCH  26  27
BRANCH  26  33
ATOM     33  C   UNL     1       2.919   3.876  17.997  0.00  0.00    +0.000 A 
ATOM     34  C   UNL     1       3.678   2.778  18.455  0.00  0.00    +0.000 A 
ATOM     35  C   UNL     1       3.061   1.640  18.984  0.00  0.00    +0.000 A 
ATOM     36  C   UNL     1       1.673   1.572  19.063  0.00  0.00    +0.000 A 
ATOM     37  C   UNL     1       0.903   2.641  18.609  0.00  0.00    +0.000 A 
ATOM     38  C   UNL     1       1.521   3.786  18.093  0.00  0.00    +0.000 A 
ENDBRANCH  26  33
ENDBRANCH   6  26
TORSDOF 9
ENDMDL
MODEL 6
REMARK VINA RESULT:      -7.9      1.253      1.581
REMARK  Name = 
REMARK  9 active torsions:
REMARK  status: ('A' for Active; 'I' for Inactive)
REMARK    1  A    between atoms: C_2  and  C_3
REMARK    2  A    between atoms: C_3  and  N_4
REMARK    3  A    between atoms: C_5  and  C_7
REMARK    4  A    between atoms: C_7  and  C_8
REMARK    5  A    between atoms: N_14  and  C_15
REMARK    6  A    between atoms: C_15  and  C_16
REMARK    7  A    between atoms: N_21  and  C_22
REMARK    8  A    between atoms: C_22  and  C_23
REMARK    9  A    between atoms: C_22  and  C_29
REMARK                            x       y       z     vdW  Elec       q    Type
REMARK                         _______ _______ _______ _____ _____    ______ ____
ROOT
ATOM      1  C   UNL     1       1.219   9.114  19.465  0.00  0.00    +0.000 C 
ATOM      2  O   UNL     1       1.032  10.184  18.879  0.00  0.00    +0.000 OA
ATOM      3  N   UNL     1       1.908   8.063  18.876  0.00  0.00    +0.000 N 
ATOM      4  C   UNL     1       2.552   8.257  17.576  0.00  0.00    +0.000 C 
ATOM      5  C   UNL     1       4.039   7.843  17.633  0.00  0.00    +0.000 C 
ATOM      6  N   UNL     1       4.291   6.470  18.176  0.00  0.00    +0.000 NA
ATOM      7  C   UNL     1       3.626   6.406  19.499  0.00  0.00    +0.000 C 
ATOM      8  C   UNL     1       2.128   6.747  19.480  0.00  0.00    +0.000 C 
ENDROOT
BRANCH   1   9
ATOM      9  C   UNL     1       0.708   8.913  20.899  0.00  0.00    +0.000 C 
BRANCH   9  12
ATOM     10  O   UNL     1       1.359  11.553  21.650  0.00  0.00    +0.000 OA
ATOM     11  C   UNL     1       0.180  11.214  21.624  0.00  0.00    +0.000 C 
ATOM     12  N   UNL     1      -0.235   9.953  21.266  0.00  0.00    +0.000 N 
ATOM     13  H   UNL     1      -1.219   9.790  21.050  0.00  0.00    +0.000 HD
BRANCH  11  14
ATOM     14  C   UNL     1      -0.963  12.185  21.948  0.00  0.00    +0.000 C 
BRANCH  14  15
ATOM     15  N   UNL     1      -2.154  11.928  21.160  0.00  0.00    +0.000 N 
ATOM     16  C   UNL     1      -2.367  12.586  19.969  0.00  0.00    +0.000 C 
ATOM     17  O   UNL     1      -1.579  13.421  19.531  0.00  0.00    +0.000 OA
ATOM     18  H   UNL     1      -2.905  11.395  21.581  0.00  0.00    +0.000 HD
BRANCH  16  19
ATOM     19  C   UNL     1      -3.633  12.187  19.229  0.00  0.00    +0.000 C 
BRANCH  19  20
ATOM     20  C   UNL     1      -3.381  11.365  17.989  0.00  0.00    +0.000 A 
ATOM     21  C   UNL     1      -4.183  11.525  16.850  0.00  0.00    +0.000 A 
ATOM     22  C   UNL     1      -3.924  10.791  15.690  0.00  0.00    +0.000 A 
ATOM     23  C   UNL     1      -2.856   9.898  15.652  0.00  0.00    +0.000 A 
ATOM     24  C   UNL     1      -2.048   9.735  16.776  0.00  0.00    +0.000 A 
ATOM     25  C   UNL     1      -2.308  10.463  17.939  0.00  0.00    +0.000 A 
ENDBRANCH  19  20
ENDBRANCH  16  19
ENDBRANCH  14  15
ENDBRANCH  11  14
ENDBRANCH   9  12
ENDBRANCH   1   9
BRANCH   6  26
ATOM     26  C   UNL     1       3.868   5.404  17.208  0.00  0.00    +0.000 C 
BRANCH  26  27
ATOM     27  C   UNL     1       4.984   5.169  16.174  0.00  0.00    +0.000 A 
ATOM     28  C   UNL     1       4.725   4.476  14.978  0.00  0.00    +0.000 A 
ATOM     29  C   UNL     1       5.772   4.072  14.147  0.00  0.00    +0.000 A 
ATOM     30  C   UNL     1       7.089   4.361  14.494  0.00  0.00    +0.000 A 
ATOM     31  C   UNL     1       7.361   5.088  15.652  0.00  0.00    +0.000 A 
ATOM     32  C   UNL     1       6.316   5.500  16.481  0.00  0.00    +0.000 A 
ENDBRANCH  26  27
BRANCH  26  33
ATOM     33  C   UNL     1       3.405   4.071  17.826  0.00  0.00    +0.000 A 
ATOM     34  C   UNL     1       4.310   3.314  18.598  0.00  0.00    +0.000 A 
ATOM     35  C   UNL     1       3.919   2.118  19.209  0.00  0.00    +0.000 A 
ATOM     36  C   UNL     1       2.616   1.651  19.058  0.00  0.00    +0.000 A 
ATOM     37  C   UNL     1       1.708   2.379  18.293  0.00  0.00    +0.000 A 
ATOM     38  C   UNL     1       2.095   3.583  17.694  0.00  0.00    +0.000 A 
ENDBRANCH  26  33
ENDBRANCH   6  26
TORSDOF 9
ENDMDL
MODEL 7
REMARK VINA RESULT:      -7.7      4.813      7.765
REMARK  Name = 
REMARK  9 active torsions:
REMARK  status: ('A' for Active; 'I' for Inactive)
REMARK    1  A    between atoms: C_2  and  C_3
REMARK    2  A    between atoms: C_3  and  N_4
REMARK    3  A    between atoms: C_5  and  C_7
REMARK    4  A    between atoms: C_7  and  C_8
REMARK    5  A    between atoms: N_14  and  C_15
REMARK    6  A    between atoms: C_15  and  C_16
REMARK    7  A    between atoms: N_21  and  C_22
REMARK    8  A    between atoms: C_22  and  C_23
REMARK    9  A    between atoms: C_22  and  C_29
REMARK                            x       y       z     vdW  Elec       q    Type
REMARK                         _______ _______ _______ _____ _____    ______ ____
ROOT
ATOM      1  C   UNL     1      -3.735  14.082  22.870  0.00  0.00    +0.000 C 
ATOM      2  O   UNL     1      -3.910  15.267  23.168  0.00  0.00    +0.000 OA
ATOM      3  N   UNL     1      -2.615  13.658  22.169  0.00  0.00    +0.000 N 
ATOM      4  C   UNL     1      -1.537  14.606  21.885  0.00  0.00    +0.000 C 
ATOM      5  C   UNL     1      -0.176  14.049  22.362  0.00  0.00    +0.000 C 
ATOM      6  N   UNL     1       0.150  12.674  21.867  0.00  0.00    +0.000 NA
ATOM      7  C   UNL     1      -0.989  11.804  22.241  0.00  0.00    +0.000 C 
ATOM      8  C   UNL     1      -2.357  12.284  21.731  0.00  0.00    +0.000 C 
ENDROOT
BRANCH   1   9
ATOM      9  C   UNL     1      -4.756  13.016  23.289  0.00  0.00    +0.000 C 
BRANCH   9  12
ATOM     10  O   UNL     1      -7.109  14.205  22.284  0.00  0.00    +0.000 OA
ATOM     11  C   UNL     1      -6.668  13.201  21.735  0.00  0.00    +0.000 C 
ATOM     12  N   UNL     1      -5.526  12.555  22.149  0.00  0.00    +0.000 N 
ATOM     13  H   UNL     1      -5.087  11.868  21.534  0.00  0.00    +0.000 HD
BRANCH  11  14
ATOM     14  C   UNL     1      -7.325  12.585  20.493  0.00  0.00    +0.000 C 
BRANCH  14  15
ATOM     15  N   UNL     1      -6.535  12.777  19.290  0.00  0.00    +0.000 N 
ATOM     16  C   UNL     1      -6.359  11.748  18.392  0.00  0.00    +0.000 C 
ATOM     17  O   UNL     1      -6.841  10.631  18.571  0.00  0.00    +0.000 OA
ATOM     18  H   UNL     1      -5.975  13.616  19.210  0.00  0.00    +0.000 HD
BRANCH  16  19
ATOM     19  C   UNL     1      -5.547  12.101  17.157  0.00  0.00    +0.000 C 
BRANCH  19  20
ATOM     20  C   UNL     1      -4.235  11.363  17.059  0.00  0.00    +0.000 A 
ATOM     21  C   UNL     1      -3.362  11.307  18.156  0.00  0.00    +0.000 A 
ATOM     22  C   UNL     1      -2.167  10.591  18.076  0.00  0.00    +0.000 A 
ATOM     23  C   UNL     1      -1.834   9.914  16.905  0.00  0.00    +0.000 A 
ATOM     24  C   UNL     1      -2.696   9.957  15.811  0.00  0.00    +0.000 A 
ATOM     25  C   UNL     1      -3.890  10.677  15.886  0.00  0.00    +0.000 A 
ENDBRANCH  19  20
ENDBRANCH  16  19
ENDBRANCH  14  15
ENDBRANCH  11  14
ENDBRANCH   9  12
ENDBRANCH   1   9
BRANCH   6  26
ATOM     26  C   UNL     1       0.485  12.675  20.403  0.00  0.00    +0.000 C 
BRANCH  26  27
ATOM     27  C   UNL     1       1.519  13.778  20.108  0.00  0.00    +0.000 A 
ATOM     28  C   UNL     1       1.244  14.794  19.176  0.00  0.00    +0.000 A 
ATOM     29  C   UNL     1       2.252  15.659  18.746  0.00  0.00    +0.000 A 
ATOM     30  C   UNL     1       3.544  15.529  19.248  0.00  0.00    +0.000 A 
ATOM     31  C   UNL     1       3.824  14.558  20.208  0.00  0.00    +0.000 A 
ATOM     32  C   UNL     1       2.816  13.695  20.645  0.00  0.00    +0.000 A 
ENDBRANCH  26  27
BRANCH  26  33
ATOM     33  C   UNL     1       0.937  11.328  19.809  0.00  0.00    +0.000 A 
ATOM     34  C   UNL     1       0.797  10.151  20.575  0.00  0.00    +0.000 A 
ATOM     35  C   UNL     1       1.159   8.903  20.058  0.00  0.00    +0.000 A 
ATOM     36  C   UNL     1       1.673   8.804  18.768  0.00  0.00    +0.000 A 
ATOM     37  C   UNL     1       1.827   9.954  17.998  0.00  0.00    +0.000 A 
ATOM     38  C   UNL     1       1.451  11.201  18.509  0.00  0.00    +0.000 A 
ENDBRANCH  26  33
ENDBRANCH   6  26
TORSDOF 9
ENDMDL
MODEL 8
REMARK VINA RESULT:      -7.7      2.749      9.968
REMARK  Name = 
REMARK  9 active torsions:
REMARK  status: ('A' for Active; 'I' for Inactive)
REMARK    1  A    between atoms: C_2  and  C_3
REMARK    2  A    between atoms: C_3  and  N_4
REMARK    3  A    between atoms: C_5  and  C_7
REMARK    4  A    between atoms: C_7  and  C_8
REMARK    5  A    between atoms: N_14  and  C_15
REMARK    6  A    between atoms: C_15  and  C_16
REMARK    7  A    between atoms: N_21  and  C_22
REMARK    8  A    between atoms: C_22  and  C_23
REMARK    9  A    between atoms: C_22  and  C_29
REMARK                            x       y       z     vdW  Elec       q    Type
REMARK                         _______ _______ _______ _____ _____    ______ ____
ROOT
ATOM      1  C   UNL     1       2.681   7.283  19.004  0.00  0.00    +0.000 C 
ATOM      2  O   UNL     1       2.978   6.343  19.747  0.00  0.00    +0.000 OA
ATOM      3  N   UNL     1       1.768   8.258  19.381  0.00  0.00    +0.000 N 
ATOM      4  C   UNL     1       1.233   8.262  20.743  0.00  0.00    +0.000 C 
ATOM      5  C   UNL     1       1.421   9.646  21.403  0.00  0.00    +0.000 C 
ATOM      6  N   UNL     1       0.905  10.802  20.602  0.00  0.00    +0.000 NA
ATOM      7  C   UNL     1       1.539  10.712  19.266  0.00  0.00    +0.000 C 
ATOM      8  C   UNL     1       1.321   9.373  18.542  0.00  0.00    +0.000 C 
ENDROOT
BRANCH   1   9
ATOM      9  C   UNL     1       3.338   7.422  17.624  0.00  0.00    +0.000 C 
BRANCH   9  12
ATOM     10  O   UNL     1       6.080   7.383  16.962  0.00  0.00    +0.000 OA
ATOM     11  C   UNL     1       5.458   6.326  16.984  0.00  0.00    +0.000 C 
ATOM     12  N   UNL     1       4.122   6.244  17.299  0.00  0.00    +0.000 N 
ATOM     13  H   UNL     1       3.712   5.335  17.516  0.00  0.00    +0.000 HD
BRANCH  11  14
ATOM     14  C   UNL     1       6.122   4.973  16.703  0.00  0.00    +0.000 C 
BRANCH  14  15
ATOM     15  N   UNL     1       5.497   3.881  17.427  0.00  0.00    +0.000 N 
ATOM     16  C   UNL     1       5.456   3.882  18.804  0.00  0.00    +0.000 C 
ATOM     17  O   UNL     1       5.953   4.784  19.475  0.00  0.00    +0.000 OA
ATOM     18  H   UNL     1       5.252   3.042  16.917  0.00  0.00    +0.000 HD
BRANCH  16  19
ATOM     19  C   UNL     1       4.733   2.700  19.427  0.00  0.00    +0.000 C 
BRANCH  19  20
ATOM     20  C   UNL     1       3.265   2.945  19.675  0.00  0.00    +0.000 A 
ATOM     21  C   UNL     1       2.373   3.088  18.602  0.00  0.00    +0.000 A 
ATOM     22  C   UNL     1       1.009   3.275  18.833  0.00  0.00    +0.000 A 
ATOM     23  C   UNL     1       0.519   3.312  20.137  0.00  0.00    +0.000 A 
ATOM     24  C   UNL     1       1.394   3.165  21.211  0.00  0.00    +0.000 A 
ATOM     25  C   UNL     1       2.760   2.983  20.983  0.00  0.00    +0.000 A 
ENDBRANCH  19  20
ENDBRANCH  16  19
ENDBRANCH  14  15
ENDBRANCH  11  14
ENDBRANCH   9  12
ENDBRANCH   1   9
BRANCH   6  26
ATOM     26  C   UNL     1      -0.596  10.838  20.584  0.00  0.00    +0.000 C 
BRANCH  26  27
ATOM     27  C   UNL     1      -1.098  11.983  21.485  0.00  0.00    +0.000 A 
ATOM     28  C   UNL     1      -0.255  13.054  21.827  0.00  0.00    +0.000 A 
ATOM     29  C   UNL     1      -0.630  13.971  22.810  0.00  0.00    +0.000 A 
ATOM     30  C   UNL     1      -1.855  13.835  23.460  0.00  0.00    +0.000 A 
ATOM     31  C   UNL     1      -2.723  12.806  23.100  0.00  0.00    +0.000 A 
ATOM     32  C   UNL     1      -2.354  11.892  22.111  0.00  0.00    +0.000 A 
ENDBRANCH  26  27
BRANCH  26  33
ATOM     33  C   UNL     1      -1.257  10.905  19.194  0.00  0.00    +0.000 A 
ATOM     34  C   UNL     1      -1.995   9.799  18.724  0.00  0.00    +0.000 A 
ATOM     35  C   UNL     1      -2.642   9.833  17.485  0.00  0.00    +0.000 A 
ATOM     36  C   UNL     1      -2.563  10.971  16.687  0.00  0.00    +0.000 A 
ATOM     37  C   UNL     1      -1.832  12.072  17.128  0.00  0.00    +0.000 A 
ATOM     38  C   UNL     1      -1.197  12.043  18.374  0.00  0.00    +0.000 A 
ENDBRANCH  26  33
ENDBRANCH   6  26
TORSDOF 9
ENDMDL
MODEL 9
REMARK VINA RESULT:      -7.7      2.493      3.365
REMARK  Name = 
REMARK  9 active torsions:
REMARK  status: ('A' for Active; 'I' for Inactive)
REMARK    1  A    between atoms: C_2  and  C_3
REMARK    2  A    between atoms: C_3  and  N_4
REMARK    3  A    between atoms: C_5  and  C_7
REMARK    4  A    between atoms: C_7  and  C_8
REMARK    5  A    between atoms: N_14  and  C_15
REMARK    6  A    between atoms: C_15  and  C_16
REMARK    7  A    between atoms: N_21  and  C_22
REMARK    8  A    between atoms: C_22  and  C_23
REMARK    9  A    between atoms: C_22  and  C_29
REMARK                            x       y       z     vdW  Elec       q    Type
REMARK                         _______ _______ _______ _____ _____    ______ ____
ROOT
ATOM      1  C   UNL     1       1.215   9.265  19.303  0.00  0.00    +0.000 C 
ATOM      2  O   UNL     1       1.141  10.311  18.652  0.00  0.00    +0.000 OA
ATOM      3  N   UNL     1       1.859   8.138  18.814  0.00  0.00    +0.000 N 
ATOM      4  C   UNL     1       2.590   8.213  17.548  0.00  0.00    +0.000 C 
ATOM      5  C   UNL     1       4.038   7.700  17.719  0.00  0.00    +0.000 C 
ATOM      6  N   UNL     1       4.156   6.346  18.348  0.00  0.00    +0.000 NA
ATOM      7  C   UNL     1       3.413   6.403  19.628  0.00  0.00    +0.000 C 
ATOM      8  C   UNL     1       1.946   6.845  19.498  0.00  0.00    +0.000 C 
ENDROOT
BRANCH   1   9
ATOM      9  C   UNL     1       0.608   9.181  20.711  0.00  0.00    +0.000 C 
BRANCH   9  12
ATOM     10  O   UNL     1       0.098  10.447  23.180  0.00  0.00    +0.000 OA
ATOM     11  C   UNL     1      -0.517  10.814  22.184  0.00  0.00    +0.000 C 
ATOM     12  N   UNL     1      -0.333  10.262  20.938  0.00  0.00    +0.000 N 
ATOM     13  H   UNL     1      -0.699  10.745  20.116  0.00  0.00    +0.000 HD
BRANCH  11  14
ATOM     14  C   UNL     1      -1.527  11.967  22.219  0.00  0.00    +0.000 C 
BRANCH  14  15
ATOM     15  N   UNL     1      -1.016  13.178  21.602  0.00  0.00    +0.000 N 
ATOM     16  C   UNL     1      -1.294  13.469  20.285  0.00  0.00    +0.000 C 
ATOM     17  O   UNL     1      -1.963  12.722  19.575  0.00  0.00    +0.000 OA
ATOM     18  H   UNL     1      -0.312  13.711  22.097  0.00  0.00    +0.000 HD
BRANCH  16  19
ATOM     19  C   UNL     1      -0.732  14.789  19.784  0.00  0.00    +0.000 C 
BRANCH  19  20
ATOM     20  C   UNL     1       0.704  14.705  19.328  0.00  0.00    +0.000 A 
ATOM     21  C   UNL     1       1.157  13.600  18.592  0.00  0.00    +0.000 A 
ATOM     22  C   UNL     1       2.475  13.543  18.136  0.00  0.00    +0.000 A 
ATOM     23  C   UNL     1       3.353  14.592  18.401  0.00  0.00    +0.000 A 
ATOM     24  C   UNL     1       2.913  15.697  19.126  0.00  0.00    +0.000 A 
ATOM     25  C   UNL     1       1.597  15.755  19.588  0.00  0.00    +0.000 A 
ENDBRANCH  19  20
ENDBRANCH  16  19
ENDBRANCH  14  15
ENDBRANCH  11  14
ENDBRANCH   9  12
ENDBRANCH   1   9
BRANCH   6  26
ATOM     26  C   UNL     1       3.714   5.259  17.412  0.00  0.00    +0.000 C 
BRANCH  26  27
ATOM     27  C   UNL     1       4.900   4.812  16.537  0.00  0.00    +0.000 A 
ATOM     28  C   UNL     1       6.220   4.904  17.011  0.00  0.00    +0.000 A 
ATOM     29  C   UNL     1       7.302   4.709  16.150  0.00  0.00    +0.000 A 
ATOM     30  C   UNL     1       7.081   4.411  14.808  0.00  0.00    +0.000 A 
ATOM     31  C   UNL     1       5.778   4.269  14.332  0.00  0.00    +0.000 A 
ATOM     32  C   UNL     1       4.694   4.456  15.192  0.00  0.00    +0.000 A 
ENDBRANCH  26  27
BRANCH  26  33
ATOM     33  C   UNL     1       3.023   4.045  18.060  0.00  0.00    +0.000 A 
ATOM     34  C   UNL     1       3.777   3.169  18.870  0.00  0.00    +0.000 A 
ATOM     35  C   UNL     1       3.180   2.077  19.508  0.00  0.00    +0.000 A 
ATOM     36  C   UNL     1       1.819   1.833  19.348  0.00  0.00    +0.000 A 
ATOM     37  C   UNL     1       1.057   2.680  18.546  0.00  0.00    +0.000 A 
ATOM     38  C   UNL     1       1.651   3.781  17.919  0.00  0.00    +0.000 A 
ENDBRANCH  26  33
ENDBRANCH   6  26
TORSDOF 9
ENDMDL
