MODEL 1
REMARK VINA RESULT:      -8.9      0.000      0.000
REMARK  Name = 
REMARK  4 active torsions:
REMARK  status: ('A' for Active; 'I' for Inactive)
REMARK    1  A    between atoms: C_2  and  C_22
REMARK    2  A    between atoms: N_3  and  C_4
REMARK    3  A    between atoms: C_10  and  C_11
REMARK    4  A    between atoms: C_16  and  C_17
REMARK                            x       y       z     vdW  Elec       q    Type
REMARK                         _______ _______ _______ _____ _____    ______ ____
ROOT
ATOM      1  C   UNL     1       1.098   8.974  19.597  0.00  0.00    +0.000 A 
ATOM      2  C   UNL     1       1.711   9.112  18.355  0.00  0.00    +0.000 A 
ATOM      3  C   UNL     1       2.615   8.151  17.909  0.00  0.00    +0.000 A 
ATOM      4  C   UNL     1       2.877   7.053  18.720  0.00  0.00    +0.000 A 
ATOM      5  N   UNL     1       3.697   6.000  18.202  0.00  0.00    +0.000 N 
ATOM      6  N   UNL     1       4.367   6.152  17.022  0.00  0.00    +0.000 NA
ATOM      7  C   UNL     1       5.068   5.016  16.858  0.00  0.00    +0.000 A 
ATOM      8  C   UNL     1       4.856   4.130  17.947  0.00  0.00    +0.000 A 
ATOM      9  C   UNL     1       3.885   4.728  18.720  0.00  0.00    +0.000 A 
ATOM     10  N   UNL     1       2.353   6.936  19.969  0.00  0.00    +0.000 NA
ATOM     11  C   UNL     1       1.492   7.896  20.379  0.00  0.00    +0.000 A 
ENDROOT
BRANCH   1  14
ATOM     12  O   UNL     1       1.353  10.995  21.674  0.00  0.00    +0.000 OA
ATOM     13  C   UNL     1       0.293  10.778  21.092  0.00  0.00    +0.000 C 
ATOM     14  N   UNL     1       0.105   9.851  20.084  0.00  0.00    +0.000 N 
ATOM     15  H   UNL     1      -0.775   9.868  19.579  0.00  0.00    +0.000 HD
BRANCH  13  16
ATOM     16  C   UNL     1      -0.876  11.612  21.478  0.00  0.00    +0.000 A 
ATOM     17  C   UNL     1      -1.255  12.649  20.607  0.00  0.00    +0.000 A 
ATOM     18  C   UNL     1      -2.310  13.504  20.931  0.00  0.00    +0.000 A 
ATOM     19  C   UNL     1      -2.997  13.328  22.127  0.00  0.00    +0.000 A 
ATOM     20  C   UNL     1      -2.632  12.295  22.984  0.00  0.00    +0.000 A 
ATOM     21  F   UNL     1      -3.302  12.130  24.132  0.00  0.00    +0.000 F 
ATOM     22  C   UNL     1      -1.584  11.437  22.664  0.00  0.00    +0.000 A 
ATOM     23  F   UNL     1      -1.272  10.445  23.515  0.00  0.00    +0.000 F 
ENDBRANCH  13  16
ENDBRANCH   1  14
BRANCH   7  24
ATOM     24  C   UNL     1       5.900   4.742  15.633  0.00  0.00    +0.000 C 
ATOM     25  F   UNL     1       7.119   5.344  15.656  0.00  0.00    +0.000 F 
ATOM     26  F   UNL     1       6.123   3.411  15.457  0.00  0.00    +0.000 F 
ATOM     27  F   UNL     1       5.278   5.178  14.502  0.00  0.00    +0.000 F 
ENDBRANCH   7  24
BRANCH   9  28
ATOM     28  C   UNL     1       3.080   4.076  19.843  0.00  0.00    +0.000 C 
ATOM     29  C   UNL     1       1.739   3.471  19.472  0.00  0.00    +0.000 C 
ATOM     30  C   UNL     1       2.856   2.587  19.917  0.00  0.00    +0.000 C 
ENDBRANCH   9  28
TORSDOF 4
ENDMDL
MODEL 2
REMARK VINA RESULT:      -8.8      1.062      1.195
REMARK  Name = 
REMARK  4 active torsions:
REMARK  status: ('A' for Active; 'I' for Inactive)
REMARK    1  A    between atoms: C_2  and  C_22
REMARK    2  A    between atoms: N_3  and  C_4
REMARK    3  A    between atoms: C_10  and  C_11
REMARK    4  A    between atoms: C_16  and  C_17
REMARK                            x       y       z     vdW  Elec       q    Type
REMARK                         _______ _______ _______ _____ _____    ______ ____
ROOT
ATOM      1  C   UNL     1       0.509   9.388  20.389  0.00  0.00    +0.000 A 
ATOM      2  C   UNL     1       1.106   9.451  19.133  0.00  0.00    +0.000 A 
ATOM      3  C   UNL     1       1.984   8.450  18.723  0.00  0.00    +0.000 A 
ATOM      4  C   UNL     1       2.234   7.388  19.585  0.00  0.00    +0.000 A 
ATOM      5  N   UNL     1       3.025   6.293  19.109  0.00  0.00    +0.000 N 
ATOM      6  N   UNL     1       3.680   6.371  17.914  0.00  0.00    +0.000 NA
ATOM      7  C   UNL     1       4.355   5.214  17.798  0.00  0.00    +0.000 A 
ATOM      8  C   UNL     1       4.142   4.389  18.933  0.00  0.00    +0.000 A 
ATOM      9  C   UNL     1       3.195   5.045  19.689  0.00  0.00    +0.000 A 
ATOM     10  N   UNL     1       1.728   7.345  20.846  0.00  0.00    +0.000 NA
ATOM     11  C   UNL     1       0.893   8.343  21.219  0.00  0.00    +0.000 A 
ENDROOT
BRANCH   1  14
ATOM     12  O   UNL     1       0.946  12.027  21.532  0.00  0.00    +0.000 OA
ATOM     13  C   UNL     1      -0.176  11.545  21.397  0.00  0.00    +0.000 C 
ATOM     14  N   UNL     1      -0.458  10.309  20.845  0.00  0.00    +0.000 N 
ATOM     15  H   UNL     1      -1.429  10.085  20.650  0.00  0.00    +0.000 HD
BRANCH  13  16
ATOM     16  C   UNL     1      -1.329  12.378  21.829  0.00  0.00    +0.000 A 
ATOM     17  C   UNL     1      -1.568  13.576  21.132  0.00  0.00    +0.000 A 
ATOM     18  C   UNL     1      -2.601  14.432  21.516  0.00  0.00    +0.000 A 
ATOM     19  C   UNL     1      -3.406  14.097  22.599  0.00  0.00    +0.000 A 
ATOM     20  C   UNL     1      -3.181  12.908  23.282  0.00  0.00    +0.000 A 
ATOM     21  F   UNL     1      -3.964  12.590  24.321  0.00  0.00    +0.000 F 
ATOM     22  C   UNL     1      -2.155  12.048  22.901  0.00  0.00    +0.000 A 
ATOM     23  F   UNL     1      -1.979  10.902  23.581  0.00  0.00    +0.000 F 
ENDBRANCH  13  16
ENDBRANCH   1  14
BRANCH   7  24
ATOM     24  C   UNL     1       5.162   4.861  16.576  0.00  0.00    +0.000 C 
ATOM     25  F   UNL     1       5.442   5.928  15.781  0.00  0.00    +0.000 F 
ATOM     26  F   UNL     1       6.355   4.292  16.903  0.00  0.00    +0.000 F 
ATOM     27  F   UNL     1       4.509   3.958  15.792  0.00  0.00    +0.000 F 
ENDBRANCH   7  24
BRANCH   9  28
ATOM     28  C   UNL     1       2.394   4.468  20.855  0.00  0.00    +0.000 C 
ATOM     29  C   UNL     1       1.089   3.771  20.520  0.00  0.00    +0.000 C 
ATOM     30  C   UNL     1       2.231   2.985  21.067  0.00  0.00    +0.000 C 
ENDBRANCH   9  28
TORSDOF 4
ENDMDL
MODEL 3
REMARK VINA RESULT:      -8.7      1.648      2.035
REMARK  Name = 
REMARK  4 active torsions:
REMARK  status: ('A' for Active; 'I' for Inactive)
REMARK    1  A    between atoms: C_2  and  C_22
REMARK    2  A    between atoms: N_3  and  C_4
REMARK    3  A    between atoms: C_10  and  C_11
REMARK    4  A    between atoms: C_16  and  C_17
REMARK                            x       y       z     vdW  Elec       q    Type
REMARK                         _______ _______ _______ _____ _____    ______ ____
ROOT
ATOM      1  C   UNL     1       0.297   9.596  20.387  0.00  0.00    +0.000 A 
ATOM      2  C   UNL     1       0.869   9.691  19.122  0.00  0.00    +0.000 A 
ATOM      3  C   UNL     1       1.774   8.725  18.687  0.00  0.00    +0.000 A 
ATOM      4  C   UNL     1       2.077   7.665  19.534  0.00  0.00    +0.000 A 
ATOM      5  N   UNL     1       2.896   6.603  19.033  0.00  0.00    +0.000 N 
ATOM      6  N   UNL     1       3.527   6.715  17.828  0.00  0.00    +0.000 NA
ATOM      7  C   UNL     1       4.240   5.583  17.689  0.00  0.00    +0.000 A 
ATOM      8  C   UNL     1       4.075   4.740  18.819  0.00  0.00    +0.000 A 
ATOM      9  C   UNL     1       3.119   5.356  19.597  0.00  0.00    +0.000 A 
ATOM     10  N   UNL     1       1.594   7.592  20.802  0.00  0.00    +0.000 NA
ATOM     11  C   UNL     1       0.731   8.557  21.200  0.00  0.00    +0.000 A 
ENDROOT
BRANCH   1  14
ATOM     12  O   UNL     1       0.671  12.159  21.712  0.00  0.00    +0.000 OA
ATOM     13  C   UNL     1      -0.441  11.678  21.508  0.00  0.00    +0.000 C 
ATOM     14  N   UNL     1      -0.693  10.478  20.869  0.00  0.00    +0.000 N 
ATOM     15  H   UNL     1      -1.655  10.260  20.627  0.00  0.00    +0.000 HD
BRANCH  13  16
ATOM     16  C   UNL     1      -1.616  12.473  21.954  0.00  0.00    +0.000 A 
ATOM     17  C   UNL     1      -2.327  12.015  23.078  0.00  0.00    +0.000 A 
ATOM     18  C   UNL     1      -3.470  12.682  23.521  0.00  0.00    +0.000 A 
ATOM     19  C   UNL     1      -3.912  13.815  22.846  0.00  0.00    +0.000 A 
ATOM     20  C   UNL     1      -3.204  14.277  21.741  0.00  0.00    +0.000 A 
ATOM     21  F   UNL     1      -3.633  15.371  21.099  0.00  0.00    +0.000 F 
ATOM     22  C   UNL     1      -2.060  13.618  21.299  0.00  0.00    +0.000 A 
ATOM     23  F   UNL     1      -1.399  14.106  20.234  0.00  0.00    +0.000 F 
ENDBRANCH  13  16
ENDBRANCH   1  14
BRANCH   7  24
ATOM     24  C   UNL     1       5.038   5.270  16.450  0.00  0.00    +0.000 C 
ATOM     25  F   UNL     1       4.971   6.240  15.499  0.00  0.00    +0.000 F 
ATOM     26  F   UNL     1       6.357   5.085  16.730  0.00  0.00    +0.000 F 
ATOM     27  F   UNL     1       4.606   4.122  15.857  0.00  0.00    +0.000 F 
ENDBRANCH   7  24
BRANCH   9  28
ATOM     28  C   UNL     1       2.359   4.740  20.770  0.00  0.00    +0.000 C 
ATOM     29  C   UNL     1       1.080   3.991  20.449  0.00  0.00    +0.000 C 
ATOM     30  C   UNL     1       2.262   3.250  20.977  0.00  0.00    +0.000 C 
ENDBRANCH   9  28
TORSDOF 4
ENDMDL
MODEL 4
REMARK VINA RESULT:      -8.6      1.191      1.471
REMARK  Name = 
REMARK  4 active torsions:
REMARK  status: ('A' for Active; 'I' for Inactive)
REMARK    1  A    between atoms: C_2  and  C_22
REMARK    2  A    between atoms: N_3  and  C_4
REMARK    3  A    between atoms: C_10  and  C_11
REMARK    4  A    between atoms: C_16  and  C_17
REMARK                            x       y       z     vdW  Elec       q    Type
REMARK                         _______ _______ _______ _____ _____    ______ ____
ROOT
ATOM      1  C   UNL     1       0.990   8.901  19.731  0.00  0.00    +0.000 A 
ATOM      2  C   UNL     1       1.592   9.083  18.490  0.00  0.00    +0.000 A 
ATOM      3  C   UNL     1       2.534   8.168  18.026  0.00  0.00    +0.000 A 
ATOM      4  C   UNL     1       2.844   7.069  18.820  0.00  0.00    +0.000 A 
ATOM      5  N   UNL     1       3.706   6.059  18.283  0.00  0.00    +0.000 N 
ATOM      6  N   UNL     1       4.364   6.257  17.104  0.00  0.00    +0.000 NA
ATOM      7  C   UNL     1       5.111   5.153  16.921  0.00  0.00    +0.000 A 
ATOM      8  C   UNL     1       4.941   4.244  17.996  0.00  0.00    +0.000 A 
ATOM      9  C   UNL     1       3.948   4.788  18.782  0.00  0.00    +0.000 A 
ATOM     10  N   UNL     1       2.330   6.912  20.068  0.00  0.00    +0.000 NA
ATOM     11  C   UNL     1       1.431   7.829  20.496  0.00  0.00    +0.000 A 
ENDROOT
BRANCH   1  14
ATOM     12  O   UNL     1       1.239  11.175  21.529  0.00  0.00    +0.000 OA
ATOM     13  C   UNL     1       0.153  10.785  21.105  0.00  0.00    +0.000 C 
ATOM     14  N   UNL     1      -0.037   9.728  20.234  0.00  0.00    +0.000 N 
ATOM     15  H   UNL     1      -0.963   9.597  19.839  0.00  0.00    +0.000 HD
BRANCH  13  16
ATOM     16  C   UNL     1      -1.053  11.541  21.534  0.00  0.00    +0.000 A 
ATOM     17  C   UNL     1      -1.417  11.475  22.891  0.00  0.00    +0.000 A 
ATOM     18  C   UNL     1      -2.567  12.117  23.354  0.00  0.00    +0.000 A 
ATOM     19  C   UNL     1      -3.362  12.832  22.465  0.00  0.00    +0.000 A 
ATOM     20  C   UNL     1      -2.998  12.909  21.125  0.00  0.00    +0.000 A 
ATOM     21  F   UNL     1      -3.767  13.604  20.276  0.00  0.00    +0.000 F 
ATOM     22  C   UNL     1      -1.850  12.275  20.659  0.00  0.00    +0.000 A 
ATOM     23  F   UNL     1      -1.528  12.385  19.358  0.00  0.00    +0.000 F 
ENDBRANCH  13  16
ENDBRANCH   1  14
BRANCH   7  24
ATOM     24  C   UNL     1       5.950   4.933  15.689  0.00  0.00    +0.000 C 
ATOM     25  F   UNL     1       7.160   5.550  15.736  0.00  0.00    +0.000 F 
ATOM     26  F   UNL     1       6.191   3.612  15.468  0.00  0.00    +0.000 F 
ATOM     27  F   UNL     1       5.324   5.400  14.572  0.00  0.00    +0.000 F 
ENDBRANCH   7  24
BRANCH   9  28
ATOM     28  C   UNL     1       3.175   4.087  19.897  0.00  0.00    +0.000 C 
ATOM     29  C   UNL     1       1.844   3.459  19.527  0.00  0.00    +0.000 C 
ATOM     30  C   UNL     1       2.988   2.592  19.933  0.00  0.00    +0.000 C 
ENDBRANCH   9  28
TORSDOF 4
ENDMDL
MODEL 5
REMARK VINA RESULT:      -8.4      1.846      2.093
REMARK  Name = 
REMARK  4 active torsions:
REMARK  status: ('A' for Active; 'I' for Inactive)
REMARK    1  A    between atoms: C_2  and  C_22
REMARK    2  A    between atoms: N_3  and  C_4
REMARK    3  A    between atoms: C_10  and  C_11
REMARK    4  A    between atoms: C_16  and  C_17
REMARK                            x       y       z     vdW  Elec       q    Type
REMARK                         _______ _______ _______ _____ _____    ______ ____
ROOT
ATOM      1  C   UNL     1       0.803   9.628  19.649  0.00  0.00    +0.000 A 
ATOM      2  C   UNL     1       1.447   9.484  18.424  0.00  0.00    +0.000 A 
ATOM      3  C   UNL     1       2.266   8.382  18.187  0.00  0.00    +0.000 A 
ATOM      4  C   UNL     1       2.409   7.429  19.189  0.00  0.00    +0.000 A 
ATOM      5  N   UNL     1       3.136   6.231  18.894  0.00  0.00    +0.000 N 
ATOM      6  N   UNL     1       3.837   6.107  17.729  0.00  0.00    +0.000 NA
ATOM      7  C   UNL     1       4.431   4.902  17.794  0.00  0.00    +0.000 A 
ATOM      8  C   UNL     1       4.119   4.250  19.016  0.00  0.00    +0.000 A 
ATOM      9  C   UNL     1       3.195   5.062  19.637  0.00  0.00    +0.000 A 
ATOM     10  N   UNL     1       1.855   7.587  20.420  0.00  0.00    +0.000 NA
ATOM     11  C   UNL     1       1.081   8.678  20.624  0.00  0.00    +0.000 A 
ENDROOT
BRANCH   1  14
ATOM     12  O   UNL     1       1.258  12.033  21.221  0.00  0.00    +0.000 OA
ATOM     13  C   UNL     1       0.170  11.774  20.712  0.00  0.00    +0.000 C 
ATOM     14  N   UNL     1      -0.111  10.663  19.939  0.00  0.00    +0.000 N 
ATOM     15  H   UNL     1      -1.001  10.634  19.451  0.00  0.00    +0.000 HD
BRANCH  13  16
ATOM     16  C   UNL     1      -0.926  12.759  20.915  0.00  0.00    +0.000 A 
ATOM     17  C   UNL     1      -2.054  12.341  21.643  0.00  0.00    +0.000 A 
ATOM     18  C   UNL     1      -3.142  13.195  21.827  0.00  0.00    +0.000 A 
ATOM     19  C   UNL     1      -3.111  14.477  21.287  0.00  0.00    +0.000 A 
ATOM     20  C   UNL     1      -1.991  14.897  20.577  0.00  0.00    +0.000 A 
ATOM     21  F   UNL     1      -1.967  16.134  20.064  0.00  0.00    +0.000 F 
ATOM     22  C   UNL     1      -0.901  14.051  20.395  0.00  0.00    +0.000 A 
ATOM     23  F   UNL     1       0.166  14.501  19.713  0.00  0.00    +0.000 F 
ENDBRANCH  13  16
ENDBRANCH   1  14
BRANCH   7  24
ATOM     24  C   UNL     1       5.254   4.339  16.666  0.00  0.00    +0.000 C 
ATOM     25  F   UNL     1       6.592   4.344  16.911  0.00  0.00    +0.000 F 
ATOM     26  F   UNL     1       4.913   3.052  16.381  0.00  0.00    +0.000 F 
ATOM     27  F   UNL     1       5.072   5.047  15.516  0.00  0.00    +0.000 F 
ENDBRANCH   7  24
BRANCH   9  28
ATOM     28  C   UNL     1       2.313   4.698  20.831  0.00  0.00    +0.000 C 
ATOM     29  C   UNL     1       1.061   3.890  20.545  0.00  0.00    +0.000 C 
ATOM     30  C   UNL     1       2.174   3.283  21.330  0.00  0.00    +0.000 C 
ENDBRANCH   9  28
TORSDOF 4
ENDMDL
MODEL 6
REMARK VINA RESULT:      -8.3      1.798      2.461
REMARK  Name = 
REMARK  4 active torsions:
REMARK  status: ('A' for Active; 'I' for Inactive)
REMARK    1  A    between atoms: C_2  and  C_22
REMARK    2  A    between atoms: N_3  and  C_4
REMARK    3  A    between atoms: C_10  and  C_11
REMARK    4  A    between atoms: C_16  and  C_17
REMARK                            x       y       z     vdW  Elec       q    Type
REMARK                         _______ _______ _______ _____ _____    ______ ____
ROOT
ATOM      1  C   UNL     1      -0.141  10.015  20.501  0.00  0.00    +0.000 A 
ATOM      2  C   UNL     1       0.512  10.195  19.286  0.00  0.00    +0.000 A 
ATOM      3  C   UNL     1       1.458   9.269  18.854  0.00  0.00    +0.000 A 
ATOM      4  C   UNL     1       1.719   8.160  19.652  0.00  0.00    +0.000 A 
ATOM      5  N   UNL     1       2.586   7.140  19.142  0.00  0.00    +0.000 N 
ATOM      6  N   UNL     1       3.294   7.335  17.992  0.00  0.00    +0.000 NA
ATOM      7  C   UNL     1       4.031   6.221  17.831  0.00  0.00    +0.000 A 
ATOM      8  C   UNL     1       3.804   5.308  18.893  0.00  0.00    +0.000 A 
ATOM      9  C   UNL     1       2.789   5.863  19.642  0.00  0.00    +0.000 A 
ATOM     10  N   UNL     1       1.154   8.003  20.877  0.00  0.00    +0.000 NA
ATOM     11  C   UNL     1       0.253   8.931  21.275  0.00  0.00    +0.000 A 
ENDROOT
BRANCH   1  14
ATOM     12  O   UNL     1      -0.034  11.953  22.668  0.00  0.00    +0.000 OA
ATOM     13  C   UNL     1      -1.057  11.743  22.021  0.00  0.00    +0.000 C 
ATOM     14  N   UNL     1      -1.174  10.855  20.968  0.00  0.00    +0.000 N 
ATOM     15  H   UNL     1      -2.027  10.879  20.417  0.00  0.00    +0.000 HD
BRANCH  13  16
ATOM     16  C   UNL     1      -2.260  12.542  22.377  0.00  0.00    +0.000 A 
ATOM     17  C   UNL     1      -3.004  12.138  23.499  0.00  0.00    +0.000 A 
ATOM     18  C   UNL     1      -4.173  12.810  23.861  0.00  0.00    +0.000 A 
ATOM     19  C   UNL     1      -4.607  13.893  23.105  0.00  0.00    +0.000 A 
ATOM     20  C   UNL     1      -3.866  14.303  22.001  0.00  0.00    +0.000 A 
ATOM     21  F   UNL     1      -4.288  15.350  21.281  0.00  0.00    +0.000 F 
ATOM     22  C   UNL     1      -2.697  13.639  21.639  0.00  0.00    +0.000 A 
ATOM     23  F   UNL     1      -2.005  14.076  20.573  0.00  0.00    +0.000 F 
ENDBRANCH  13  16
ENDBRANCH   1  14
BRANCH   7  24
ATOM     24  C   UNL     1       4.914   5.996  16.632  0.00  0.00    +0.000 C 
ATOM     25  F   UNL     1       4.746   4.777  16.052  0.00  0.00    +0.000 F 
ATOM     26  F   UNL     1       4.700   6.926  15.661  0.00  0.00    +0.000 F 
ATOM     27  F   UNL     1       6.233   6.084  16.963  0.00  0.00    +0.000 F 
ENDBRANCH   7  24
BRANCH   9  28
ATOM     28  C   UNL     1       1.961   5.166  20.721  0.00  0.00    +0.000 C 
ATOM     29  C   UNL     1       1.027   4.060  20.269  0.00  0.00    +0.000 C 
ATOM     30  C   UNL     1       2.204   3.735  21.126  0.00  0.00    +0.000 C 
ENDBRANCH   9  28
TORSDOF 4
ENDMDL
MODEL 7
REMARK VINA RESULT:      -8.2      1.400      1.725
REMARK  Name = 
REMARK  4 active torsions:
REMARK  status: ('A' for Active; 'I' for Inactive)
REMARK    1  A    between atoms: C_2  and  C_22
REMARK    2  A    between atoms: N_3  and  C_4
REMARK    3  A    between atoms: C_10  and  C_11
REMARK    4  A    between atoms: C_16  and  C_17
REMARK                            x       y       z     vdW  Elec       q    Type
REMARK                         _______ _______ _______ _____ _____    ______ ____
ROOT
ATOM      1  C   UNL     1       0.385   9.730  20.048  0.00  0.00    +0.000 A 
ATOM      2  C   UNL     1       1.024   9.726  18.812  0.00  0.00    +0.000 A 
ATOM      3  C   UNL     1       1.933   8.720  18.495  0.00  0.00    +0.000 A 
ATOM      4  C   UNL     1       2.174   7.719  19.430  0.00  0.00    +0.000 A 
ATOM      5  N   UNL     1       3.000   6.613  19.051  0.00  0.00    +0.000 N 
ATOM      6  N   UNL     1       3.694   6.630  17.876  0.00  0.00    +0.000 NA
ATOM      7  C   UNL     1       4.393   5.481  17.855  0.00  0.00    +0.000 A 
ATOM      8  C   UNL     1       4.156   4.725  19.032  0.00  0.00    +0.000 A 
ATOM      9  C   UNL     1       3.172   5.407  19.713  0.00  0.00    +0.000 A 
ATOM     10  N   UNL     1       1.625   7.745  20.673  0.00  0.00    +0.000 NA
ATOM     11  C   UNL     1       0.759   8.747  20.955  0.00  0.00    +0.000 A 
ENDROOT
BRANCH   1  14
ATOM     12  O   UNL     1       0.669  12.119  21.684  0.00  0.00    +0.000 OA
ATOM     13  C   UNL     1      -0.410  11.767  21.213  0.00  0.00    +0.000 C 
ATOM     14  N   UNL     1      -0.613  10.658  20.413  0.00  0.00    +0.000 N 
ATOM     15  H   UNL     1      -1.517  10.555  19.963  0.00  0.00    +0.000 HD
BRANCH  13  16
ATOM     16  C   UNL     1      -1.588  12.629  21.497  0.00  0.00    +0.000 A 
ATOM     17  C   UNL     1      -2.642  12.621  20.566  0.00  0.00    +0.000 A 
ATOM     18  C   UNL     1      -3.756  13.444  20.742  0.00  0.00    +0.000 A 
ATOM     19  C   UNL     1      -3.826  14.281  21.851  0.00  0.00    +0.000 A 
ATOM     20  C   UNL     1      -2.790  14.281  22.779  0.00  0.00    +0.000 A 
ATOM     21  F   UNL     1      -2.868  15.086  23.847  0.00  0.00    +0.000 F 
ATOM     22  C   UNL     1      -1.680  13.459  22.612  0.00  0.00    +0.000 A 
ATOM     23  F   UNL     1      -0.707  13.481  23.539  0.00  0.00    +0.000 F 
ENDBRANCH  13  16
ENDBRANCH   1  14
BRANCH   7  24
ATOM     24  C   UNL     1       5.249   5.069  16.686  0.00  0.00    +0.000 C 
ATOM     25  F   UNL     1       5.013   3.801  16.257  0.00  0.00    +0.000 F 
ATOM     26  F   UNL     1       5.069   5.887  15.612  0.00  0.00    +0.000 F 
ATOM     27  F   UNL     1       6.575   5.130  16.995  0.00  0.00    +0.000 F 
ENDBRANCH   7  24
BRANCH   9  28
ATOM     28  C   UNL     1       2.342   4.887  20.886  0.00  0.00    +0.000 C 
ATOM     29  C   UNL     1       1.064   4.142  20.552  0.00  0.00    +0.000 C 
ATOM     30  C   UNL     1       2.202   3.418  21.188  0.00  0.00    +0.000 C 
ENDBRANCH   9  28
TORSDOF 4
ENDMDL
MODEL 8
REMARK VINA RESULT:      -8.2      2.070      2.259
REMARK  Name = 
REMARK  4 active torsions:
REMARK  status: ('A' for Active; 'I' for Inactive)
REMARK    1  A    between atoms: C_2  and  C_22
REMARK    2  A    between atoms: N_3  and  C_4
REMARK    3  A    between atoms: C_10  and  C_11
REMARK    4  A    between atoms: C_16  and  C_17
REMARK                            x       y       z     vdW  Elec       q    Type
REMARK                         _______ _______ _______ _____ _____    ______ ____
ROOT
ATOM      1  C   UNL     1       0.679   9.612  19.746  0.00  0.00    +0.000 A 
ATOM      2  C   UNL     1       1.325   9.500  18.518  0.00  0.00    +0.000 A 
ATOM      3  C   UNL     1       2.171   8.423  18.266  0.00  0.00    +0.000 A 
ATOM      4  C   UNL     1       2.340   7.461  19.256  0.00  0.00    +0.000 A 
ATOM      5  N   UNL     1       3.097   6.286  18.945  0.00  0.00    +0.000 N 
ATOM      6  N   UNL     1       3.799   6.195  17.778  0.00  0.00    +0.000 NA
ATOM      7  C   UNL     1       4.424   5.005  17.827  0.00  0.00    +0.000 A 
ATOM      8  C   UNL     1       4.131   4.330  19.041  0.00  0.00    +0.000 A 
ATOM      9  C   UNL     1       3.188   5.110  19.673  0.00  0.00    +0.000 A 
ATOM     10  N   UNL     1       1.785   7.589  20.490  0.00  0.00    +0.000 NA
ATOM     11  C   UNL     1       0.984   8.658  20.708  0.00  0.00    +0.000 A 
ENDROOT
BRANCH   1  14
ATOM     12  O   UNL     1      -1.708  10.343  18.255  0.00  0.00    +0.000 OA
ATOM     13  C   UNL     1      -1.368  10.926  19.281  0.00  0.00    +0.000 C 
ATOM     14  N   UNL     1      -0.261  10.619  20.050  0.00  0.00    +0.000 N 
ATOM     15  H   UNL     1      -0.168  11.072  20.954  0.00  0.00    +0.000 HD
BRANCH  13  16
ATOM     16  C   UNL     1      -2.245  12.029  19.758  0.00  0.00    +0.000 A 
ATOM     17  C   UNL     1      -1.664  13.023  20.565  0.00  0.00    +0.000 A 
ATOM     18  C   UNL     1      -2.438  14.059  21.090  0.00  0.00    +0.000 A 
ATOM     19  C   UNL     1      -3.799  14.112  20.811  0.00  0.00    +0.000 A 
ATOM     20  C   UNL     1      -4.374  13.137  20.003  0.00  0.00    +0.000 A 
ATOM     21  F   UNL     1      -5.685  13.197  19.735  0.00  0.00    +0.000 F 
ATOM     22  C   UNL     1      -3.606  12.104  19.472  0.00  0.00    +0.000 A 
ATOM     23  F   UNL     1      -4.199  11.189  18.686  0.00  0.00    +0.000 F 
ENDBRANCH  13  16
ENDBRANCH   1  14
BRANCH   7  24
ATOM     24  C   UNL     1       5.260   4.477  16.691  0.00  0.00    +0.000 C 
ATOM     25  F   UNL     1       6.595   4.480  16.948  0.00  0.00    +0.000 F 
ATOM     26  F   UNL     1       4.926   3.198  16.366  0.00  0.00    +0.000 F 
ATOM     27  F   UNL     1       5.086   5.217  15.560  0.00  0.00    +0.000 F 
ENDBRANCH   7  24
BRANCH   9  28
ATOM     28  C   UNL     1       2.318   4.708  20.864  0.00  0.00    +0.000 C 
ATOM     29  C   UNL     1       1.070   3.900  20.567  0.00  0.00    +0.000 C 
ATOM     30  C   UNL     1       2.193   3.280  21.327  0.00  0.00    +0.000 C 
ENDBRANCH   9  28
TORSDOF 4
ENDMDL
MODEL 9
REMARK VINA RESULT:      -8.2      1.799      1.950
REMARK  Name = 
REMARK  4 active torsions:
REMARK  status: ('A' for Active; 'I' for Inactive)
REMARK    1  A    between atoms: C_2  and  C_22
REMARK    2  A    between atoms: N_3  and  C_4
REMARK    3  A    between atoms: C_10  and  C_11
REMARK    4  A    between atoms: C_16  and  C_17
REMARK                            x       y       z     vdW  Elec       q    Type
REMARK                         _______ _______ _______ _____ _____    ______ ____
ROOT
ATOM      1  C   UNL     1       1.286   9.210  19.373  0.00  0.00    +0.000 A 
ATOM      2  C   UNL     1       1.991   9.285  18.175  0.00  0.00    +0.000 A 
ATOM      3  C   UNL     1       2.789   8.220  17.763  0.00  0.00    +0.000 A 
ATOM      4  C   UNL     1       2.850   7.084  18.561  0.00  0.00    +0.000 A 
ATOM      5  N   UNL     1       3.557   5.940  18.069  0.00  0.00    +0.000 N 
ATOM      6  N   UNL     1       4.316   6.021  16.938  0.00  0.00    +0.000 NA
ATOM      7  C   UNL     1       4.871   4.804  16.790  0.00  0.00    +0.000 A 
ATOM      8  C   UNL     1       4.475   3.938  17.842  0.00  0.00    +0.000 A 
ATOM      9  C   UNL     1       3.543   4.646  18.567  0.00  0.00    +0.000 A 
ATOM     10  N   UNL     1       2.236   7.017  19.772  0.00  0.00    +0.000 NA
ATOM     11  C   UNL     1       1.484   8.077  20.151  0.00  0.00    +0.000 A 
ENDROOT
BRANCH   1  14
ATOM     12  O   UNL     1      -1.204  10.060  18.133  0.00  0.00    +0.000 OA
ATOM     13  C   UNL     1      -0.774  10.569  19.165  0.00  0.00    +0.000 C 
ATOM     14  N   UNL     1       0.388  10.202  19.819  0.00  0.00    +0.000 N 
ATOM     15  H   UNL     1       0.560  10.593  20.740  0.00  0.00    +0.000 HD
BRANCH  13  16
ATOM     16  C   UNL     1      -1.594  11.645  19.784  0.00  0.00    +0.000 A 
ATOM     17  C   UNL     1      -1.013  12.393  20.824  0.00  0.00    +0.000 A 
ATOM     18  C   UNL     1      -1.742  13.383  21.484  0.00  0.00    +0.000 A 
ATOM     19  C   UNL     1      -3.058  13.635  21.110  0.00  0.00    +0.000 A 
ATOM     20  C   UNL     1      -3.630  12.906  20.074  0.00  0.00    +0.000 A 
ATOM     21  F   UNL     1      -4.896  13.158  19.716  0.00  0.00    +0.000 F 
ATOM     22  C   UNL     1      -2.906  11.921  19.408  0.00  0.00    +0.000 A 
ATOM     23  F   UNL     1      -3.494  11.247  18.404  0.00  0.00    +0.000 F 
ENDBRANCH  13  16
ENDBRANCH   1  14
BRANCH   7  24
ATOM     24  C   UNL     1       5.738   4.443  15.612  0.00  0.00    +0.000 C 
ATOM     25  F   UNL     1       6.969   5.019  15.644  0.00  0.00    +0.000 F 
ATOM     26  F   UNL     1       5.935   3.099  15.521  0.00  0.00    +0.000 F 
ATOM     27  F   UNL     1       5.165   4.826  14.437  0.00  0.00    +0.000 F 
ENDBRANCH   7  24
BRANCH   9  28
ATOM     28  C   UNL     1       2.588   4.089  19.622  0.00  0.00    +0.000 C 
ATOM     29  C   UNL     1       1.253   3.558  19.135  0.00  0.00    +0.000 C 
ATOM     30  C   UNL     1       2.257   2.622  19.717  0.00  0.00    +0.000 C 
ENDBRANCH   9  28
TORSDOF 4
ENDMDL
