MODEL 1
REMARK VINA RESULT:      -8.6      0.000      0.000
REMARK  Name = 
REMARK  10 active torsions:
REMARK  status: ('A' for Active; 'I' for Inactive)
REMARK    1  A    between atoms: C_1  and  C_2
REMARK    2  A    between atoms: C_2  and  C_3
REMARK    3  A    between atoms: N_5  and  C_6
REMARK    4  A    between atoms: C_9  and  N_10
REMARK    5  A    between atoms: N_13  and  C_14
REMARK    6  A    between atoms: C_14  and  C_15
REMARK    7  A    between atoms: C_15  and  O_16
REMARK    8  A    between atoms: C_15  and  C_17
REMARK    9  A    between atoms: C_15  and  C_23
REMARK   10  A    between atoms: C_17  and  N_18
REMARK                            x       y       z     vdW  Elec       q    Type
REMARK                         _______ _______ _______ _____ _____    ______ ____
ROOT
ATOM      1  N   UNL     1       1.901   8.623  19.634  0.00  0.00    +0.000 N 
ATOM      2  C   UNL     1       1.820   7.645  20.734  0.00  0.00    +0.000 C 
ATOM      3  C   UNL     1       1.626   6.180  20.265  0.00  0.00    +0.000 C 
ATOM      4  N   UNL     1       2.436   5.747  19.097  0.00  0.00    +0.000 NA
ATOM      5  C   UNL     1       2.222   6.743  18.029  0.00  0.00    +0.000 C 
ATOM      6  C   UNL     1       2.641   8.169  18.433  0.00  0.00    +0.000 C 
ENDROOT
BRANCH   1  10
ATOM      7  C   UNL     1      -1.488  10.885  18.538  0.00  0.00    +0.000 A 
ATOM      8  C   UNL     1      -0.717  10.200  17.606  0.00  0.00    +0.000 A 
ATOM      9  C   UNL     1       0.429   9.519  17.996  0.00  0.00    +0.000 A 
ATOM     10  C   UNL     1       0.857   9.495  19.330  0.00  0.00    +0.000 A 
ATOM     11  C   UNL     1       0.148  10.300  20.233  0.00  0.00    +0.000 A 
ATOM     12  F   UNL     1       0.516  10.363  21.524  0.00  0.00    +0.000 F 
ATOM     13  C   UNL     1      -1.011  10.998  19.849  0.00  0.00    +0.000 A 
BRANCH   7  16
ATOM     14  C   UNL     1      -3.834  10.672  17.801  0.00  0.00    +0.000 C 
ATOM     15  O   UNL     1      -3.878   9.444  17.802  0.00  0.00    +0.000 OA
ATOM     16  N   UNL     1      -2.741  11.439  18.188  0.00  0.00    +0.000 N 
ATOM     17  H   UNL     1      -2.908  12.409  18.429  0.00  0.00    +0.000 HD
BRANCH  14  19
ATOM     18  C   UNL     1      -6.270  11.056  18.167  0.00  0.00    +0.000 C 
ATOM     19  C   UNL     1      -5.037  11.493  17.384  0.00  0.00    +0.000 C 
ENDBRANCH  14  19
ENDBRANCH   7  16
ENDBRANCH   1  10
BRANCH   4  20
ATOM     20  C   UNL     1       3.863   5.516  19.457  0.00  0.00    +0.000 C 
BRANCH  20  21
ATOM     21  C   UNL     1       4.575   4.272  18.783  0.00  0.00    +0.000 C 
BRANCH  21  22
ATOM     22  C   UNL     1       5.258   4.566  17.444  0.00  0.00    +0.000 A 
ATOM     23  C   UNL     1       4.775   3.991  16.249  0.00  0.00    +0.000 A 
ATOM     24  C   UNL     1       5.427   4.201  15.030  0.00  0.00    +0.000 A 
ATOM     25  C   UNL     1       6.571   4.985  14.990  0.00  0.00    +0.000 A 
ATOM     26  F   UNL     1       7.206   5.170  13.825  0.00  0.00    +0.000 F 
ATOM     27  C   UNL     1       7.058   5.585  16.138  0.00  0.00    +0.000 A 
ATOM     28  C   UNL     1       6.393   5.388  17.345  0.00  0.00    +0.000 A 
ATOM     29  F   UNL     1       6.867   6.030  18.420  0.00  0.00    +0.000 F 
ENDBRANCH  21  22
BRANCH  21  30
ATOM     30  O   UNL     1       5.621   3.820  19.699  0.00  0.00    +0.000 OA
ATOM     31  H   UNL     1       5.883   2.923  19.430  0.00  0.00    +0.000 HD
ENDBRANCH  21  30
BRANCH  21  32
ATOM     32  C   UNL     1       3.651   3.033  18.694  0.00  0.00    +0.000 C 
BRANCH  32  33
ATOM     33  N   UNL     1       2.852   2.677  19.835  0.00  0.00    +0.000 N 
ATOM     34  C   UNL     1       3.247   2.686  21.138  0.00  0.00    +0.000 A 
ATOM     35  N   UNL     1       2.194   2.618  21.917  0.00  0.00    +0.000 NA
ATOM     36  C   UNL     1       1.157   2.595  21.030  0.00  0.00    +0.000 A 
ATOM     37  N   UNL     1       1.509   2.653  19.742  0.00  0.00    +0.000 NA
ENDBRANCH  32  33
ENDBRANCH  21  32
ENDBRANCH  20  21
ENDBRANCH   4  20
TORSDOF 9
ENDMDL
MODEL 2
REMARK VINA RESULT:      -8.2      0.954      1.309
REMARK  Name = 
REMARK  10 active torsions:
REMARK  status: ('A' for Active; 'I' for Inactive)
REMARK    1  A    between atoms: C_1  and  C_2
REMARK    2  A    between atoms: C_2  and  C_3
REMARK    3  A    between atoms: N_5  and  C_6
REMARK    4  A    between atoms: C_9  and  N_10
REMARK    5  A    between atoms: N_13  and  C_14
REMARK    6  A    between atoms: C_14  and  C_15
REMARK    7  A    between atoms: C_15  and  O_16
REMARK    8  A    between atoms: C_15  and  C_17
REMARK    9  A    between atoms: C_15  and  C_23
REMARK   10  A    between atoms: C_17  and  N_18
REMARK                            x       y       z     vdW  Elec       q    Type
REMARK                         _______ _______ _______ _____ _____    ______ ____
ROOT
ATOM      1  N   UNL     1       1.979   8.737  19.428  0.00  0.00    +0.000 N 
ATOM      2  C   UNL     1       1.915   7.741  20.513  0.00  0.00    +0.000 C 
ATOM      3  C   UNL     1       1.768   6.278  20.019  0.00  0.00    +0.000 C 
ATOM      4  N   UNL     1       2.600   5.886  18.853  0.00  0.00    +0.000 NA
ATOM      5  C   UNL     1       2.369   6.893  17.799  0.00  0.00    +0.000 C 
ATOM      6  C   UNL     1       2.742   8.324  18.229  0.00  0.00    +0.000 C 
ENDROOT
BRANCH   1  10
ATOM      7  C   UNL     1      -1.496  10.908  18.417  0.00  0.00    +0.000 A 
ATOM      8  C   UNL     1      -0.835  10.094  17.505  0.00  0.00    +0.000 A 
ATOM      9  C   UNL     1       0.343   9.446  17.855  0.00  0.00    +0.000 A 
ATOM     10  C   UNL     1       0.913   9.584  19.127  0.00  0.00    +0.000 A 
ATOM     11  C   UNL     1       0.311  10.512  19.989  0.00  0.00    +0.000 A 
ATOM     12  F   UNL     1       0.817  10.734  21.214  0.00  0.00    +0.000 F 
ATOM     13  C   UNL     1      -0.879  11.179  19.644  0.00  0.00    +0.000 A 
BRANCH   7  16
ATOM     14  C   UNL     1      -3.884  10.648  17.852  0.00  0.00    +0.000 C 
ATOM     15  O   UNL     1      -3.914   9.421  17.901  0.00  0.00    +0.000 OA
ATOM     16  N   UNL     1      -2.776  11.438  18.135  0.00  0.00    +0.000 N 
ATOM     17  H   UNL     1      -2.937  12.414  18.351  0.00  0.00    +0.000 HD
BRANCH  14  19
ATOM     18  C   UNL     1      -6.338  10.885  18.220  0.00  0.00    +0.000 C 
ATOM     19  C   UNL     1      -5.122  11.442  17.489  0.00  0.00    +0.000 C 
ENDBRANCH  14  19
ENDBRANCH   7  16
ENDBRANCH   1  10
BRANCH   4  20
ATOM     20  C   UNL     1       4.030   5.691  19.224  0.00  0.00    +0.000 C 
BRANCH  20  21
ATOM     21  C   UNL     1       4.711   4.343  18.745  0.00  0.00    +0.000 C 
BRANCH  21  22
ATOM     22  C   UNL     1       5.401   4.419  17.380  0.00  0.00    +0.000 A 
ATOM     23  C   UNL     1       6.772   4.739  17.283  0.00  0.00    +0.000 A 
ATOM     24  C   UNL     1       7.399   4.874  16.040  0.00  0.00    +0.000 A 
ATOM     25  C   UNL     1       6.662   4.693  14.878  0.00  0.00    +0.000 A 
ATOM     26  F   UNL     1       7.259   4.840  13.688  0.00  0.00    +0.000 F 
ATOM     27  C   UNL     1       5.322   4.353  14.935  0.00  0.00    +0.000 A 
ATOM     28  C   UNL     1       4.710   4.202  16.176  0.00  0.00    +0.000 A 
ATOM     29  F   UNL     1       3.426   3.820  16.185  0.00  0.00    +0.000 F 
ENDBRANCH  21  22
BRANCH  21  30
ATOM     30  O   UNL     1       5.747   4.008  19.721  0.00  0.00    +0.000 OA
ATOM     31  H   UNL     1       6.324   3.336  19.321  0.00  0.00    +0.000 HD
ENDBRANCH  21  30
BRANCH  21  32
ATOM     32  C   UNL     1       3.757   3.127  18.838  0.00  0.00    +0.000 C 
BRANCH  32  33
ATOM     33  N   UNL     1       2.865   3.027  19.961  0.00  0.00    +0.000 N 
ATOM     34  C   UNL     1       1.526   2.780  19.915  0.00  0.00    +0.000 A 
ATOM     35  N   UNL     1       1.101   2.445  21.110  0.00  0.00    +0.000 NA
ATOM     36  C   UNL     1       2.240   2.475  21.861  0.00  0.00    +0.000 A 
ATOM     37  N   UNL     1       3.351   2.804  21.196  0.00  0.00    +0.000 NA
ENDBRANCH  32  33
ENDBRANCH  21  32
ENDBRANCH  20  21
ENDBRANCH   4  20
TORSDOF 9
ENDMDL
MODEL 3
REMARK VINA RESULT:      -8.0      1.094      1.227
REMARK  Name = 
REMARK  10 active torsions:
REMARK  status: ('A' for Active; 'I' for Inactive)
REMARK    1  A    between atoms: C_1  and  C_2
REMARK    2  A    between atoms: C_2  and  C_3
REMARK    3  A    between atoms: N_5  and  C_6
REMARK    4  A    between atoms: C_9  and  N_10
REMARK    5  A    between atoms: N_13  and  C_14
REMARK    6  A    between atoms: C_14  and  C_15
REMARK    7  A    between atoms: C_15  and  O_16
REMARK    8  A    between atoms: C_15  and  C_17
REMARK    9  A    between atoms: C_15  and  C_23
REMARK   10  A    between atoms: C_17  and  N_18
REMARK                            x       y       z     vdW  Elec       q    Type
REMARK                         _______ _______ _______ _____ _____    ______ ____
ROOT
ATOM      1  N   UNL     1       1.488   9.552  18.962  0.00  0.00    +0.000 N 
ATOM      2  C   UNL     1       1.627   8.795  20.220  0.00  0.00    +0.000 C 
ATOM      3  C   UNL     1       1.477   7.261  20.055  0.00  0.00    +0.000 C 
ATOM      4  N   UNL     1       2.148   6.653  18.877  0.00  0.00    +0.000 NA
ATOM      5  C   UNL     1       1.721   7.421  17.691  0.00  0.00    +0.000 C 
ATOM      6  C   UNL     1       2.087   8.915  17.767  0.00  0.00    +0.000 C 
ENDROOT
BRANCH   1  10
ATOM      7  C   UNL     1      -2.202  11.470  18.244  0.00  0.00    +0.000 A 
ATOM      8  C   UNL     1      -1.873  10.248  17.668  0.00  0.00    +0.000 A 
ATOM      9  C   UNL     1      -0.623   9.679  17.876  0.00  0.00    +0.000 A 
ATOM     10  C   UNL     1       0.352  10.304  18.664  0.00  0.00    +0.000 A 
ATOM     11  C   UNL     1       0.056  11.594  19.125  0.00  0.00    +0.000 A 
ATOM     12  F   UNL     1       0.952  12.279  19.857  0.00  0.00    +0.000 F 
ATOM     13  C   UNL     1      -1.204  12.184  18.917  0.00  0.00    +0.000 A 
BRANCH   7  16
ATOM     14  C   UNL     1      -4.411  11.667  17.162  0.00  0.00    +0.000 C 
ATOM     15  O   UNL     1      -4.206  10.857  16.261  0.00  0.00    +0.000 OA
ATOM     16  N   UNL     1      -3.519  11.980  18.181  0.00  0.00    +0.000 N 
ATOM     17  H   UNL     1      -3.892  12.419  19.014  0.00  0.00    +0.000 HD
BRANCH  14  19
ATOM     18  C   UNL     1      -6.760  11.554  17.990  0.00  0.00    +0.000 C 
ATOM     19  C   UNL     1      -5.729  12.406  17.258  0.00  0.00    +0.000 C 
ENDBRANCH  14  19
ENDBRANCH   7  16
ENDBRANCH   1  10
BRANCH   4  20
ATOM     20  C   UNL     1       3.624   6.559  19.059  0.00  0.00    +0.000 C 
BRANCH  20  21
ATOM     21  C   UNL     1       4.296   5.168  18.710  0.00  0.00    +0.000 C 
BRANCH  21  22
ATOM     22  C   UNL     1       5.142   5.162  17.433  0.00  0.00    +0.000 A 
ATOM     23  C   UNL     1       4.710   4.458  16.288  0.00  0.00    +0.000 A 
ATOM     24  C   UNL     1       5.503   4.392  15.137  0.00  0.00    +0.000 A 
ATOM     25  C   UNL     1       6.736   5.027  15.117  0.00  0.00    +0.000 A 
ATOM     26  F   UNL     1       7.502   4.947  14.021  0.00  0.00    +0.000 F 
ATOM     27  C   UNL     1       7.180   5.747  16.212  0.00  0.00    +0.000 A 
ATOM     28  C   UNL     1       6.377   5.824  17.347  0.00  0.00    +0.000 A 
ATOM     29  F   UNL     1       6.821   6.576  18.363  0.00  0.00    +0.000 F 
ENDBRANCH  21  22
BRANCH  21  30
ATOM     30  O   UNL     1       5.196   4.830  19.812  0.00  0.00    +0.000 OA
ATOM     31  H   UNL     1       5.261   3.861  19.855  0.00  0.00    +0.000 HD
ENDBRANCH  21  30
BRANCH  21  32
ATOM     32  C   UNL     1       3.286   3.995  18.732  0.00  0.00    +0.000 C 
BRANCH  32  33
ATOM     33  N   UNL     1       2.740   3.571  19.993  0.00  0.00    +0.000 N 
ATOM     34  C   UNL     1       1.433   3.628  20.373  0.00  0.00    +0.000 A 
ATOM     35  N   UNL     1       1.252   2.878  21.434  0.00  0.00    +0.000 NA
ATOM     36  C   UNL     1       2.492   2.353  21.655  0.00  0.00    +0.000 A 
ATOM     37  N   UNL     1       3.433   2.730  20.784  0.00  0.00    +0.000 NA
ENDBRANCH  32  33
ENDBRANCH  21  32
ENDBRANCH  20  21
ENDBRANCH   4  20
TORSDOF 9
ENDMDL
MODEL 4
REMARK VINA RESULT:      -7.8      3.505      5.383
REMARK  Name = 
REMARK  10 active torsions:
REMARK  status: ('A' for Active; 'I' for Inactive)
REMARK    1  A    between atoms: C_1  and  C_2
REMARK    2  A    between atoms: C_2  and  C_3
REMARK    3  A    between atoms: N_5  and  C_6
REMARK    4  A    between atoms: C_9  and  N_10
REMARK    5  A    between atoms: N_13  and  C_14
REMARK    6  A    between atoms: C_14  and  C_15
REMARK    7  A    between atoms: C_15  and  O_16
REMARK    8  A    between atoms: C_15  and  C_17
REMARK    9  A    between atoms: C_15  and  C_23
REMARK   10  A    between atoms: C_17  and  N_18
REMARK                            x       y       z     vdW  Elec       q    Type
REMARK                         _______ _______ _______ _____ _____    ______ ____
ROOT
ATOM      1  N   UNL     1       0.184   9.182  19.978  0.00  0.00    +0.000 N 
ATOM      2  C   UNL     1       0.438   9.510  18.564  0.00  0.00    +0.000 C 
ATOM      3  C   UNL     1       1.923   9.369  18.139  0.00  0.00    +0.000 C 
ATOM      4  N   UNL     1       2.646   8.175  18.649  0.00  0.00    +0.000 NA
ATOM      5  C   UNL     1       2.442   8.136  20.109  0.00  0.00    +0.000 C 
ATOM      6  C   UNL     1       0.959   8.041  20.516  0.00  0.00    +0.000 C 
ENDROOT
BRANCH   1  10
ATOM      7  C   UNL     1      -0.896  12.340  22.560  0.00  0.00    +0.000 A 
ATOM      8  C   UNL     1      -0.253  12.557  21.347  0.00  0.00    +0.000 A 
ATOM      9  C   UNL     1       0.145  11.489  20.554  0.00  0.00    +0.000 A 
ATOM     10  C   UNL     1      -0.078  10.160  20.938  0.00  0.00    +0.000 A 
ATOM     11  C   UNL     1      -0.603   9.955  22.221  0.00  0.00    +0.000 A 
ATOM     12  F   UNL     1      -0.812   8.710  22.682  0.00  0.00    +0.000 F 
ATOM     13  C   UNL     1      -1.005  11.029  23.036  0.00  0.00    +0.000 A 
BRANCH   7  16
ATOM     14  C   UNL     1      -2.824  13.612  23.432  0.00  0.00    +0.000 C 
ATOM     15  O   UNL     1      -3.699  12.855  23.018  0.00  0.00    +0.000 OA
ATOM     16  N   UNL     1      -1.455  13.411  23.296  0.00  0.00    +0.000 N 
ATOM     17  H   UNL     1      -0.840  13.924  23.916  0.00  0.00    +0.000 HD
BRANCH  14  19
ATOM     18  C   UNL     1      -4.625  15.273  23.895  0.00  0.00    +0.000 C 
ATOM     19  C   UNL     1      -3.181  14.876  24.185  0.00  0.00    +0.000 C 
ENDBRANCH  14  19
ENDBRANCH   7  16
ENDBRANCH   1  10
BRANCH   4  20
ATOM     20  C   UNL     1       2.250   6.930  17.931  0.00  0.00    +0.000 C 
BRANCH  20  21
ATOM     21  C   UNL     1       3.068   5.619  18.278  0.00  0.00    +0.000 C 
BRANCH  21  22
ATOM     22  C   UNL     1       2.421   4.715  19.332  0.00  0.00    +0.000 A 
ATOM     23  C   UNL     1       2.906   4.697  20.658  0.00  0.00    +0.000 A 
ATOM     24  C   UNL     1       2.366   3.830  21.614  0.00  0.00    +0.000 A 
ATOM     25  C   UNL     1       1.337   2.970  21.257  0.00  0.00    +0.000 A 
ATOM     26  F   UNL     1       0.834   2.128  22.169  0.00  0.00    +0.000 F 
ATOM     27  C   UNL     1       0.820   2.980  19.974  0.00  0.00    +0.000 A 
ATOM     28  C   UNL     1       1.349   3.858  19.032  0.00  0.00    +0.000 A 
ATOM     29  F   UNL     1       0.784   3.872  17.819  0.00  0.00    +0.000 F 
ENDBRANCH  21  22
BRANCH  21  30
ATOM     30  O   UNL     1       3.166   4.829  17.051  0.00  0.00    +0.000 OA
ATOM     31  H   UNL     1       3.704   5.333  16.417  0.00  0.00    +0.000 HD
ENDBRANCH  21  30
BRANCH  21  32
ATOM     32  C   UNL     1       4.552   5.911  18.607  0.00  0.00    +0.000 C 
BRANCH  32  33
ATOM     33  N   UNL     1       5.546   5.692  17.592  0.00  0.00    +0.000 N 
ATOM     34  C   UNL     1       6.351   6.635  17.028  0.00  0.00    +0.000 A 
ATOM     35  N   UNL     1       7.334   6.046  16.388  0.00  0.00    +0.000 NA
ATOM     36  C   UNL     1       7.098   4.721  16.615  0.00  0.00    +0.000 A 
ATOM     37  N   UNL     1       6.026   4.455  17.367  0.00  0.00    +0.000 NA
ENDBRANCH  32  33
ENDBRANCH  21  32
ENDBRANCH  20  21
ENDBRANCH   4  20
TORSDOF 9
ENDMDL
MODEL 5
REMARK VINA RESULT:      -7.7      2.688      4.162
REMARK  Name = 
REMARK  10 active torsions:
REMARK  status: ('A' for Active; 'I' for Inactive)
REMARK    1  A    between atoms: C_1  and  C_2
REMARK    2  A    between atoms: C_2  and  C_3
REMARK    3  A    between atoms: N_5  and  C_6
REMARK    4  A    between atoms: C_9  and  N_10
REMARK    5  A    between atoms: N_13  and  C_14
REMARK    6  A    between atoms: C_14  and  C_15
REMARK    7  A    between atoms: C_15  and  O_16
REMARK    8  A    between atoms: C_15  and  C_17
REMARK    9  A    between atoms: C_15  and  C_23
REMARK   10  A    between atoms: C_17  and  N_18
REMARK                            x       y       z     vdW  Elec       q    Type
REMARK                         _______ _______ _______ _____ _____    ______ ____
ROOT
ATOM      1  N   UNL     1       2.517   7.530  19.451  0.00  0.00    +0.000 N 
ATOM      2  C   UNL     1       2.236   6.137  19.844  0.00  0.00    +0.000 C 
ATOM      3  C   UNL     1       2.186   5.143  18.655  0.00  0.00    +0.000 C 
ATOM      4  N   UNL     1       3.233   5.304  17.613  0.00  0.00    +0.000 NA
ATOM      5  C   UNL     1       3.219   6.720  17.201  0.00  0.00    +0.000 C 
ATOM      6  C   UNL     1       3.503   7.696  18.359  0.00  0.00    +0.000 C 
ENDROOT
BRANCH   1  10
ATOM      7  C   UNL     1      -0.658  10.286  19.089  0.00  0.00    +0.000 A 
ATOM      8  C   UNL     1       0.238  10.043  18.055  0.00  0.00    +0.000 A 
ATOM      9  C   UNL     1       1.310   9.177  18.233  0.00  0.00    +0.000 A 
ATOM     10  C   UNL     1       1.534   8.520  19.450  0.00  0.00    +0.000 A 
ATOM     11  C   UNL     1       0.704   8.877  20.521  0.00  0.00    +0.000 A 
ATOM     12  F   UNL     1       0.876   8.321  21.733  0.00  0.00    +0.000 F 
ATOM     13  C   UNL     1      -0.381   9.757  20.355  0.00  0.00    +0.000 A 
BRANCH   7  16
ATOM     14  C   UNL     1      -2.889  10.583  18.076  0.00  0.00    +0.000 C 
ATOM     15  O   UNL     1      -2.958   9.478  17.544  0.00  0.00    +0.000 OA
ATOM     16  N   UNL     1      -1.842  11.029  18.874  0.00  0.00    +0.000 N 
ATOM     17  H   UNL     1      -2.020  11.815  19.488  0.00  0.00    +0.000 HD
BRANCH  14  19
ATOM     18  C   UNL     1      -5.353  10.937  18.217  0.00  0.00    +0.000 C 
ATOM     19  C   UNL     1      -4.009  11.591  17.921  0.00  0.00    +0.000 C 
ENDBRANCH  14  19
ENDBRANCH   7  16
ENDBRANCH   1  10
BRANCH   4  20
ATOM     20  C   UNL     1       4.560   4.801  18.070  0.00  0.00    +0.000 C 
BRANCH  20  21
ATOM     21  C   UNL     1       5.803   5.140  17.149  0.00  0.00    +0.000 C 
BRANCH  21  22
ATOM     22  C   UNL     1       6.722   6.242  17.685  0.00  0.00    +0.000 A 
ATOM     23  C   UNL     1       6.791   7.497  17.041  0.00  0.00    +0.000 A 
ATOM     24  C   UNL     1       7.672   8.489  17.482  0.00  0.00    +0.000 A 
ATOM     25  C   UNL     1       8.496   8.240  18.570  0.00  0.00    +0.000 A 
ATOM     26  F   UNL     1       9.353   9.185  18.980  0.00  0.00    +0.000 F 
ATOM     27  C   UNL     1       8.437   7.031  19.241  0.00  0.00    +0.000 A 
ATOM     28  C   UNL     1       7.544   6.055  18.808  0.00  0.00    +0.000 A 
ATOM     29  F   UNL     1       7.481   4.922  19.519  0.00  0.00    +0.000 F 
ENDBRANCH  21  22
BRANCH  21  30
ATOM     30  O   UNL     1       6.615   3.927  17.049  0.00  0.00    +0.000 OA
ATOM     31  H   UNL     1       6.426   3.380  17.831  0.00  0.00    +0.000 HD
ENDBRANCH  21  30
BRANCH  21  32
ATOM     32  C   UNL     1       5.402   5.396  15.675  0.00  0.00    +0.000 C 
BRANCH  32  33
ATOM     33  N   UNL     1       6.190   4.806  14.628  0.00  0.00    +0.000 N 
ATOM     34  C   UNL     1       5.755   3.929  13.679  0.00  0.00    +0.000 A 
ATOM     35  N   UNL     1       6.642   3.852  12.715  0.00  0.00    +0.000 NA
ATOM     36  C   UNL     1       7.605   4.733  13.112  0.00  0.00    +0.000 A 
ATOM     37  N   UNL     1       7.363   5.360  14.266  0.00  0.00    +0.000 NA
ENDBRANCH  32  33
ENDBRANCH  21  32
ENDBRANCH  20  21
ENDBRANCH   4  20
TORSDOF 9
ENDMDL
MODEL 6
REMARK VINA RESULT:      -7.6      1.877      2.098
REMARK  Name = 
REMARK  10 active torsions:
REMARK  status: ('A' for Active; 'I' for Inactive)
REMARK    1  A    between atoms: C_1  and  C_2
REMARK    2  A    between atoms: C_2  and  C_3
REMARK    3  A    between atoms: N_5  and  C_6
REMARK    4  A    between atoms: C_9  and  N_10
REMARK    5  A    between atoms: N_13  and  C_14
REMARK    6  A    between atoms: C_14  and  C_15
REMARK    7  A    between atoms: C_15  and  O_16
REMARK    8  A    between atoms: C_15  and  C_17
REMARK    9  A    between atoms: C_15  and  C_23
REMARK   10  A    between atoms: C_17  and  N_18
REMARK                            x       y       z     vdW  Elec       q    Type
REMARK                         _______ _______ _______ _____ _____    ______ ____
ROOT
ATOM      1  N   UNL     1       1.355  10.187  19.459  0.00  0.00    +0.000 N 
ATOM      2  C   UNL     1       1.560   9.149  20.486  0.00  0.00    +0.000 C 
ATOM      3  C   UNL     1       1.361   7.701  19.971  0.00  0.00    +0.000 C 
ATOM      4  N   UNL     1       1.937   7.388  18.637  0.00  0.00    +0.000 NA
ATOM      5  C   UNL     1       1.450   8.421  17.703  0.00  0.00    +0.000 C 
ATOM      6  C   UNL     1       1.858   9.851  18.107  0.00  0.00    +0.000 C 
ENDROOT
BRANCH   1  10
ATOM      7  C   UNL     1      -2.318  12.262  19.529  0.00  0.00    +0.000 A 
ATOM      8  C   UNL     1      -2.110  11.143  18.730  0.00  0.00    +0.000 A 
ATOM      9  C   UNL     1      -0.867  10.525  18.685  0.00  0.00    +0.000 A 
ATOM     10  C   UNL     1       0.221  10.997  19.430  0.00  0.00    +0.000 A 
ATOM     11  C   UNL     1       0.034  12.201  20.124  0.00  0.00    +0.000 A 
ATOM     12  F   UNL     1       1.039  12.743  20.833  0.00  0.00    +0.000 F 
ATOM     13  C   UNL     1      -1.218  12.840  20.173  0.00  0.00    +0.000 A 
BRANCH   7  16
ATOM     14  C   UNL     1      -4.309  12.715  20.917  0.00  0.00    +0.000 C 
ATOM     15  O   UNL     1      -3.865  12.256  21.966  0.00  0.00    +0.000 OA
ATOM     16  N   UNL     1      -3.613  12.799  19.716  0.00  0.00    +0.000 N 
ATOM     17  H   UNL     1      -3.957  13.447  19.018  0.00  0.00    +0.000 HD
BRANCH  14  19
ATOM     18  C   UNL     1      -5.709  14.614  20.111  0.00  0.00    +0.000 C 
ATOM     19  C   UNL     1      -5.713  13.279  20.847  0.00  0.00    +0.000 C 
ENDBRANCH  14  19
ENDBRANCH   7  16
ENDBRANCH   1  10
BRANCH   4  20
ATOM     20  C   UNL     1       3.419   7.241  18.686  0.00  0.00    +0.000 C 
BRANCH  20  21
ATOM     21  C   UNL     1       3.989   5.764  18.640  0.00  0.00    +0.000 C 
BRANCH  21  22
ATOM     22  C   UNL     1       4.863   5.447  17.423  0.00  0.00    +0.000 A 
ATOM     23  C   UNL     1       4.530   4.384  16.556  0.00  0.00    +0.000 A 
ATOM     24  C   UNL     1       5.354   4.044  15.478  0.00  0.00    +0.000 A 
ATOM     25  C   UNL     1       6.521   4.761  15.254  0.00  0.00    +0.000 A 
ATOM     26  F   UNL     1       7.318   4.422  14.232  0.00  0.00    +0.000 F 
ATOM     27  C   UNL     1       6.865   5.826  16.068  0.00  0.00    +0.000 A 
ATOM     28  C   UNL     1       6.031   6.170  17.128  0.00  0.00    +0.000 A 
ATOM     29  F   UNL     1       6.374   7.239  17.857  0.00  0.00    +0.000 F 
ENDBRANCH  21  22
BRANCH  21  30
ATOM     30  O   UNL     1       4.832   5.586  19.821  0.00  0.00    +0.000 OA
ATOM     31  H   UNL     1       5.086   6.468  20.140  0.00  0.00    +0.000 HD
ENDBRANCH  21  30
BRANCH  21  32
ATOM     32  C   UNL     1       2.890   4.694  18.849  0.00  0.00    +0.000 C 
BRANCH  32  33
ATOM     33  N   UNL     1       2.821   4.004  20.108  0.00  0.00    +0.000 N 
ATOM     34  C   UNL     1       1.894   4.193  21.088  0.00  0.00    +0.000 A 
ATOM     35  N   UNL     1       1.943   3.193  21.937  0.00  0.00    +0.000 NA
ATOM     36  C   UNL     1       2.913   2.392  21.411  0.00  0.00    +0.000 A 
ATOM     37  N   UNL     1       3.465   2.835  20.278  0.00  0.00    +0.000 NA
ENDBRANCH  32  33
ENDBRANCH  21  32
ENDBRANCH  20  21
ENDBRANCH   4  20
TORSDOF 9
ENDMDL
MODEL 7
REMARK VINA RESULT:      -7.6      3.609      5.621
REMARK  Name = 
REMARK  10 active torsions:
REMARK  status: ('A' for Active; 'I' for Inactive)
REMARK    1  A    between atoms: C_1  and  C_2
REMARK    2  A    between atoms: C_2  and  C_3
REMARK    3  A    between atoms: N_5  and  C_6
REMARK    4  A    between atoms: C_9  and  N_10
REMARK    5  A    between atoms: N_13  and  C_14
REMARK    6  A    between atoms: C_14  and  C_15
REMARK    7  A    between atoms: C_15  and  O_16
REMARK    8  A    between atoms: C_15  and  C_17
REMARK    9  A    between atoms: C_15  and  C_23
REMARK   10  A    between atoms: C_17  and  N_18
REMARK                            x       y       z     vdW  Elec       q    Type
REMARK                         _______ _______ _______ _____ _____    ______ ____
ROOT
ATOM      1  N   UNL     1       0.027   9.532  19.409  0.00  0.00    +0.000 N 
ATOM      2  C   UNL     1       0.534   9.689  18.034  0.00  0.00    +0.000 C 
ATOM      3  C   UNL     1       2.050   9.403  17.882  0.00  0.00    +0.000 C 
ATOM      4  N   UNL     1       2.577   8.224  18.616  0.00  0.00    +0.000 NA
ATOM      5  C   UNL     1       2.137   8.354  20.018  0.00  0.00    +0.000 C 
ATOM      6  C   UNL     1       0.605   8.404  20.175  0.00  0.00    +0.000 C 
ENDROOT
BRANCH   1  10
ATOM      7  C   UNL     1      -0.610  12.697  22.127  0.00  0.00    +0.000 A 
ATOM      8  C   UNL     1      -0.708  11.362  22.502  0.00  0.00    +0.000 A 
ATOM      9  C   UNL     1      -0.555  10.348  21.565  0.00  0.00    +0.000 A 
ATOM     10  C   UNL     1      -0.303  10.621  20.215  0.00  0.00    +0.000 A 
ATOM     11  C   UNL     1      -0.341  11.968  19.827  0.00  0.00    +0.000 A 
ATOM     12  F   UNL     1      -0.146  12.314  18.543  0.00  0.00    +0.000 F 
ATOM     13  C   UNL     1      -0.500  13.004  20.766  0.00  0.00    +0.000 A 
BRANCH   7  16
ATOM     14  C   UNL     1      -1.747  14.271  23.650  0.00  0.00    +0.000 C 
ATOM     15  O   UNL     1      -2.891  13.868  23.451  0.00  0.00    +0.000 OA
ATOM     16  N   UNL     1      -0.595  13.730  23.091  0.00  0.00    +0.000 N 
ATOM     17  H   UNL     1       0.288  13.938  23.543  0.00  0.00    +0.000 HD
BRANCH  14  19
ATOM     18  C   UNL     1      -2.030  16.723  23.996  0.00  0.00    +0.000 C 
ATOM     19  C   UNL     1      -1.484  15.429  24.589  0.00  0.00    +0.000 C 
ENDBRANCH  14  19
ENDBRANCH   7  16
ENDBRANCH   1  10
BRANCH   4  20
ATOM     20  C   UNL     1       2.198   6.940  17.960  0.00  0.00    +0.000 C 
BRANCH  20  21
ATOM     21  C   UNL     1       3.055   5.665  18.347  0.00  0.00    +0.000 C 
BRANCH  21  22
ATOM     22  C   UNL     1       2.415   4.752  19.397  0.00  0.00    +0.000 A 
ATOM     23  C   UNL     1       2.876   4.758  20.732  0.00  0.00    +0.000 A 
ATOM     24  C   UNL     1       2.344   3.884  21.685  0.00  0.00    +0.000 A 
ATOM     25  C   UNL     1       1.346   2.992  21.317  0.00  0.00    +0.000 A 
ATOM     26  F   UNL     1       0.851   2.143  22.226  0.00  0.00    +0.000 F 
ATOM     27  C   UNL     1       0.853   2.976  20.024  0.00  0.00    +0.000 A 
ATOM     28  C   UNL     1       1.374   3.862  19.085  0.00  0.00    +0.000 A 
ATOM     29  F   UNL     1       0.830   3.850  17.861  0.00  0.00    +0.000 F 
ENDBRANCH  21  22
BRANCH  21  30
ATOM     30  O   UNL     1       3.214   4.864  17.134  0.00  0.00    +0.000 OA
ATOM     31  H   UNL     1       3.799   4.117  17.347  0.00  0.00    +0.000 HD
ENDBRANCH  21  30
BRANCH  21  32
ATOM     32  C   UNL     1       4.518   6.017  18.710  0.00  0.00    +0.000 C 
BRANCH  32  33
ATOM     33  N   UNL     1       5.551   5.785  17.737  0.00  0.00    +0.000 N 
ATOM     34  C   UNL     1       6.289   6.733  17.095  0.00  0.00    +0.000 A 
ATOM     35  N   UNL     1       7.333   6.169  16.533  0.00  0.00    +0.000 NA
ATOM     36  C   UNL     1       7.202   4.858  16.887  0.00  0.00    +0.000 A 
ATOM     37  N   UNL     1       6.138   4.577  17.645  0.00  0.00    +0.000 NA
ENDBRANCH  32  33
ENDBRANCH  21  32
ENDBRANCH  20  21
ENDBRANCH   4  20
TORSDOF 9
ENDMDL
MODEL 8
REMARK VINA RESULT:      -7.6      2.728      3.429
REMARK  Name = 
REMARK  10 active torsions:
REMARK  status: ('A' for Active; 'I' for Inactive)
REMARK    1  A    between atoms: C_1  and  C_2
REMARK    2  A    between atoms: C_2  and  C_3
REMARK    3  A    between atoms: N_5  and  C_6
REMARK    4  A    between atoms: C_9  and  N_10
REMARK    5  A    between atoms: N_13  and  C_14
REMARK    6  A    between atoms: C_14  and  C_15
REMARK    7  A    between atoms: C_15  and  O_16
REMARK    8  A    between atoms: C_15  and  C_17
REMARK    9  A    between atoms: C_15  and  C_23
REMARK   10  A    between atoms: C_17  and  N_18
REMARK                            x       y       z     vdW  Elec       q    Type
REMARK                         _______ _______ _______ _____ _____    ______ ____
ROOT
ATOM      1  N   UNL     1      -0.205   9.530  19.769  0.00  0.00    +0.000 N 
ATOM      2  C   UNL     1       0.339   9.780  18.422  0.00  0.00    +0.000 C 
ATOM      3  C   UNL     1       1.860   9.506  18.294  0.00  0.00    +0.000 C 
ATOM      4  N   UNL     1       2.369   8.280  18.961  0.00  0.00    +0.000 NA
ATOM      5  C   UNL     1       1.890   8.315  20.356  0.00  0.00    +0.000 C 
ATOM      6  C   UNL     1       0.354   8.353  20.473  0.00  0.00    +0.000 C 
ENDROOT
BRANCH   1  10
ATOM      7  C   UNL     1      -1.707  12.641  22.192  0.00  0.00    +0.000 A 
ATOM      8  C   UNL     1      -1.635  12.745  20.808  0.00  0.00    +0.000 A 
ATOM      9  C   UNL     1      -1.074  11.726  20.048  0.00  0.00    +0.000 A 
ATOM     10  C   UNL     1      -0.560  10.563  20.636  0.00  0.00    +0.000 A 
ATOM     11  C   UNL     1      -0.516  10.532  22.037  0.00  0.00    +0.000 A 
ATOM     12  F   UNL     1      -0.004   9.469  22.680  0.00  0.00    +0.000 F 
ATOM     13  C   UNL     1      -1.076  11.560  22.817  0.00  0.00    +0.000 A 
BRANCH   7  16
ATOM     14  C   UNL     1      -3.758  13.436  23.311  0.00  0.00    +0.000 C 
ATOM     15  O   UNL     1      -4.446  12.444  23.081  0.00  0.00    +0.000 OA
ATOM     16  N   UNL     1      -2.422  13.588  22.962  0.00  0.00    +0.000 N 
ATOM     17  H   UNL     1      -1.886  14.296  23.450  0.00  0.00    +0.000 HD
BRANCH  14  19
ATOM     18  C   UNL     1      -3.289  15.204  25.004  0.00  0.00    +0.000 C 
ATOM     19  C   UNL     1      -4.332  14.622  24.057  0.00  0.00    +0.000 C 
ENDBRANCH  14  19
ENDBRANCH   7  16
ENDBRANCH   1  10
BRANCH   4  20
ATOM     20  C   UNL     1       2.012   7.043  18.210  0.00  0.00    +0.000 C 
BRANCH  20  21
ATOM     21  C   UNL     1       2.869   5.748  18.523  0.00  0.00    +0.000 C 
BRANCH  21  22
ATOM     22  C   UNL     1       3.932   5.409  17.473  0.00  0.00    +0.000 A 
ATOM     23  C   UNL     1       3.986   4.122  16.894  0.00  0.00    +0.000 A 
ATOM     24  C   UNL     1       4.989   3.780  15.982  0.00  0.00    +0.000 A 
ATOM     25  C   UNL     1       5.952   4.718  15.638  0.00  0.00    +0.000 A 
ATOM     26  F   UNL     1       6.923   4.383  14.779  0.00  0.00    +0.000 F 
ATOM     27  C   UNL     1       5.915   5.997  16.166  0.00  0.00    +0.000 A 
ATOM     28  C   UNL     1       4.902   6.336  17.059  0.00  0.00    +0.000 A 
ATOM     29  F   UNL     1       4.873   7.599  17.504  0.00  0.00    +0.000 F 
ENDBRANCH  21  22
BRANCH  21  30
ATOM     30  O   UNL     1       3.580   5.990  19.778  0.00  0.00    +0.000 OA
ATOM     31  H   UNL     1       4.469   5.604  19.694  0.00  0.00    +0.000 HD
ENDBRANCH  21  30
BRANCH  21  32
ATOM     32  C   UNL     1       1.992   4.520  18.867  0.00  0.00    +0.000 C 
BRANCH  32  33
ATOM     33  N   UNL     1       2.199   3.846  20.120  0.00  0.00    +0.000 N 
ATOM     34  C   UNL     1       1.265   3.619  21.085  0.00  0.00    +0.000 A 
ATOM     35  N   UNL     1       1.713   2.718  21.926  0.00  0.00    +0.000 NA
ATOM     36  C   UNL     1       2.936   2.399  21.412  0.00  0.00    +0.000 A 
ATOM     37  N   UNL     1       3.269   3.047  20.292  0.00  0.00    +0.000 NA
ENDBRANCH  32  33
ENDBRANCH  21  32
ENDBRANCH  20  21
ENDBRANCH   4  20
TORSDOF 9
ENDMDL
MODEL 9
REMARK VINA RESULT:      -7.5      1.937      2.188
REMARK  Name = 
REMARK  10 active torsions:
REMARK  status: ('A' for Active; 'I' for Inactive)
REMARK    1  A    between atoms: C_1  and  C_2
REMARK    2  A    between atoms: C_2  and  C_3
REMARK    3  A    between atoms: N_5  and  C_6
REMARK    4  A    between atoms: C_9  and  N_10
REMARK    5  A    between atoms: N_13  and  C_14
REMARK    6  A    between atoms: C_14  and  C_15
REMARK    7  A    between atoms: C_15  and  O_16
REMARK    8  A    between atoms: C_15  and  C_17
REMARK    9  A    between atoms: C_15  and  C_23
REMARK   10  A    between atoms: C_17  and  N_18
REMARK                            x       y       z     vdW  Elec       q    Type
REMARK                         _______ _______ _______ _____ _____    ______ ____
ROOT
ATOM      1  N   UNL     1       1.339   9.996  19.562  0.00  0.00    +0.000 N 
ATOM      2  C   UNL     1       1.350   8.844  20.482  0.00  0.00    +0.000 C 
ATOM      3  C   UNL     1       1.161   7.474  19.783  0.00  0.00    +0.000 C 
ATOM      4  N   UNL     1       1.905   7.271  18.513  0.00  0.00    +0.000 NA
ATOM      5  C   UNL     1       1.602   8.425  17.645  0.00  0.00    +0.000 C 
ATOM      6  C   UNL     1       2.012   9.776  18.261  0.00  0.00    +0.000 C 
ENDROOT
BRANCH   1  10
ATOM      7  C   UNL     1      -2.199  12.293  19.465  0.00  0.00    +0.000 A 
ATOM      8  C   UNL     1      -2.053  11.120  18.734  0.00  0.00    +0.000 A 
ATOM      9  C   UNL     1      -0.850  10.425  18.740  0.00  0.00    +0.000 A 
ATOM     10  C   UNL     1       0.258  10.871  19.472  0.00  0.00    +0.000 A 
ATOM     11  C   UNL     1       0.139  12.123  20.093  0.00  0.00    +0.000 A 
ATOM     12  F   UNL     1       1.169  12.642  20.783  0.00  0.00    +0.000 F 
ATOM     13  C   UNL     1      -1.071  12.839  20.090  0.00  0.00    +0.000 A 
BRANCH   7  16
ATOM     14  C   UNL     1      -4.183  12.925  20.791  0.00  0.00    +0.000 C 
ATOM     15  O   UNL     1      -3.790  12.479  21.866  0.00  0.00    +0.000 OA
ATOM     16  N   UNL     1      -3.460  12.919  19.604  0.00  0.00    +0.000 N 
ATOM     17  H   UNL     1      -3.747  13.561  18.875  0.00  0.00    +0.000 HD
BRANCH  14  19
ATOM     18  C   UNL     1      -6.541  12.602  20.050  0.00  0.00    +0.000 C 
ATOM     19  C   UNL     1      -5.545  13.575  20.671  0.00  0.00    +0.000 C 
ENDBRANCH  14  19
ENDBRANCH   7  16
ENDBRANCH   1  10
BRANCH   4  20
ATOM     20  C   UNL     1       3.358   7.031  18.746  0.00  0.00    +0.000 C 
BRANCH  20  21
ATOM     21  C   UNL     1       3.873   5.545  18.551  0.00  0.00    +0.000 C 
BRANCH  21  22
ATOM     22  C   UNL     1       4.631   5.292  17.245  0.00  0.00    +0.000 A 
ATOM     23  C   UNL     1       4.960   6.362  16.384  0.00  0.00    +0.000 A 
ATOM     24  C   UNL     1       5.595   6.136  15.159  0.00  0.00    +0.000 A 
ATOM     25  C   UNL     1       5.908   4.839  14.777  0.00  0.00    +0.000 A 
ATOM     26  F   UNL     1       6.500   4.623  13.595  0.00  0.00    +0.000 F 
ATOM     27  C   UNL     1       5.624   3.769  15.607  0.00  0.00    +0.000 A 
ATOM     28  C   UNL     1       5.009   4.003  16.833  0.00  0.00    +0.000 A 
ATOM     29  F   UNL     1       4.801   2.945  17.628  0.00  0.00    +0.000 F 
ENDBRANCH  21  22
BRANCH  21  30
ATOM     30  O   UNL     1       4.805   5.262  19.641  0.00  0.00    +0.000 OA
ATOM     31  H   UNL     1       4.412   5.600  20.463  0.00  0.00    +0.000 HD
ENDBRANCH  21  30
BRANCH  21  32
ATOM     32  C   UNL     1       2.760   4.494  18.780  0.00  0.00    +0.000 C 
BRANCH  32  33
ATOM     33  N   UNL     1       2.621   3.900  20.082  0.00  0.00    +0.000 N 
ATOM     34  C   UNL     1       1.546   4.006  20.912  0.00  0.00    +0.000 A 
ATOM     35  N   UNL     1       1.629   3.096  21.855  0.00  0.00    +0.000 NA
ATOM     36  C   UNL     1       2.778   2.431  21.539  0.00  0.00    +0.000 A 
ATOM     37  N   UNL     1       3.409   2.872  20.447  0.00  0.00    +0.000 NA
ENDBRANCH  32  33
ENDBRANCH  21  32
ENDBRANCH  20  21
ENDBRANCH   4  20
TORSDOF 9
ENDMDL
