MODEL 1
REMARK VINA RESULT:      -9.2      0.000      0.000
REMARK  Name = 
REMARK  5 active torsions:
REMARK  status: ('A' for Active; 'I' for Inactive)
REMARK    1  A    between atoms: C_2  and  C_22
REMARK    2  A    between atoms: N_3  and  C_4
REMARK    3  A    between atoms: N_7  and  C_8
REMARK    4  A    between atoms: C_13  and  C_14
REMARK    5  A    between atoms: C_24  and  C_25
REMARK                            x       y       z     vdW  Elec       q    Type
REMARK                         _______ _______ _______ _____ _____    ______ ____
ROOT
ATOM      1  C   UNL     1       7.950   8.105  17.927  0.00  0.00    +0.000 A 
ATOM      2  C   UNL     1       8.296   7.335  19.059  0.00  0.00    +0.000 A 
ATOM      3  N   UNL     1       8.153   6.026  18.852  0.00  0.00    +0.000 NA
ATOM      4  N   UNL     1       7.665   5.951  17.595  0.00  0.00    +0.000 N 
ATOM      5  C   UNL     1       7.530   7.183  17.000  0.00  0.00    +0.000 A 
ENDROOT
BRANCH   4   6
ATOM      6  C   UNL     1       7.126   4.679  17.152  0.00  0.00    +0.000 C 
ATOM      7  C   UNL     1       6.933   4.503  15.631  0.00  0.00    +0.000 C 
ATOM      8  C   UNL     1       5.730   3.556  15.468  0.00  0.00    +0.000 C 
ATOM      9  C   UNL     1       4.916   3.901  16.678  0.00  0.00    +0.000 A 
ATOM     10  C   UNL     1       3.568   3.684  16.910  0.00  0.00    +0.000 A 
ATOM     11  C   UNL     1       3.010   4.116  18.129  0.00  0.00    +0.000 A 
ATOM     12  C   UNL     1       3.836   4.711  19.108  0.00  0.00    +0.000 A 
ATOM     13  C   UNL     1       5.197   4.885  18.881  0.00  0.00    +0.000 A 
ATOM     14  C   UNL     1       5.715   4.506  17.652  0.00  0.00    +0.000 A 
BRANCH  11  15
ATOM     15  C   UNL     1       1.538   3.969  18.418  0.00  0.00    +0.000 C 
ATOM     16  F   UNL     1       1.143   4.580  19.571  0.00  0.00    +0.000 F 
ATOM     17  F   UNL     1       0.760   4.494  17.431  0.00  0.00    +0.000 F 
ATOM     18  F   UNL     1       1.160   2.666  18.538  0.00  0.00    +0.000 F 
ENDBRANCH  11  15
ENDBRANCH   4   6
BRANCH   1  21
ATOM     19  O   UNL     1       9.633   9.858  19.327  0.00  0.00    +0.000 OA
ATOM     20  C   UNL     1       8.863  10.271  18.455  0.00  0.00    +0.000 C 
ATOM     21  N   UNL     1       8.001   9.470  17.734  0.00  0.00    +0.000 N 
ATOM     22  H   UNL     1       7.486   9.887  16.962  0.00  0.00    +0.000 HD
BRANCH  20  23
ATOM     23  C   UNL     1       8.880  11.679  18.093  0.00  0.00    +0.000 A 
ATOM     24  C   UNL     1       9.933  12.579  18.387  0.00  0.00    +0.000 A 
ATOM     25  C   UNL     1       9.531  13.776  17.860  0.00  0.00    +0.000 A 
ATOM     26  O   UNL     1       8.299  13.614  17.296  0.00  0.00    +0.000 OA
ATOM     27  N   UNL     1       7.890  12.292  17.424  0.00  0.00    +0.000 NA
BRANCH  25  28
ATOM     28  C   UNL     1      10.141  15.084  17.755  0.00  0.00    +0.000 A 
ATOM     29  C   UNL     1       9.412  16.265  17.842  0.00  0.00    +0.000 A 
ATOM     30  N   UNL     1       9.968  17.486  17.656  0.00  0.00    +0.000 NA
ATOM     31  C   UNL     1      11.291  17.481  17.376  0.00  0.00    +0.000 A 
ATOM     32  C   UNL     1      12.029  16.312  17.306  0.00  0.00    +0.000 A 
ATOM     33  N   UNL     1      11.475  15.091  17.498  0.00  0.00    +0.000 NA
ENDBRANCH  25  28
ENDBRANCH  20  23
ENDBRANCH   1  21
TORSDOF 5
ENDMDL
MODEL 2
REMARK VINA RESULT:      -8.7      8.465     10.331
REMARK  Name = 
REMARK  5 active torsions:
REMARK  status: ('A' for Active; 'I' for Inactive)
REMARK    1  A    between atoms: C_2  and  C_22
REMARK    2  A    between atoms: N_3  and  C_4
REMARK    3  A    between atoms: N_7  and  C_8
REMARK    4  A    between atoms: C_13  and  C_14
REMARK    5  A    between atoms: C_24  and  C_25
REMARK                            x       y       z     vdW  Elec       q    Type
REMARK                         _______ _______ _______ _____ _____    ______ ____
ROOT
ATOM      1  C   UNL     1       0.073  10.116  19.753  0.00  0.00    +0.000 A 
ATOM      2  C   UNL     1       0.240  10.167  18.352  0.00  0.00    +0.000 A 
ATOM      3  N   UNL     1       1.135   9.284  17.909  0.00  0.00    +0.000 NA
ATOM      4  N   UNL     1       1.585   8.691  19.036  0.00  0.00    +0.000 N 
ATOM      5  C   UNL     1       0.967   9.162  20.171  0.00  0.00    +0.000 A 
ENDROOT
BRANCH   4   6
ATOM      6  C   UNL     1       2.778   7.871  18.941  0.00  0.00    +0.000 C 
ATOM      7  C   UNL     1       3.439   7.774  17.550  0.00  0.00    +0.000 C 
ATOM      8  C   UNL     1       4.090   6.380  17.491  0.00  0.00    +0.000 C 
ATOM      9  C   UNL     1       3.163   5.585  18.359  0.00  0.00    +0.000 A 
ATOM     10  C   UNL     1       2.977   4.213  18.406  0.00  0.00    +0.000 A 
ATOM     11  C   UNL     1       2.025   3.686  19.300  0.00  0.00    +0.000 A 
ATOM     12  C   UNL     1       1.318   4.551  20.164  0.00  0.00    +0.000 A 
ATOM     13  C   UNL     1       1.543   5.922  20.138  0.00  0.00    +0.000 A 
ATOM     14  C   UNL     1       2.442   6.427  19.211  0.00  0.00    +0.000 A 
BRANCH  11  15
ATOM     15  C   UNL     1       1.728   2.209  19.354  0.00  0.00    +0.000 C 
ATOM     16  F   UNL     1       0.631   1.845  18.630  0.00  0.00    +0.000 F 
ATOM     17  F   UNL     1       2.756   1.453  18.879  0.00  0.00    +0.000 F 
ATOM     18  F   UNL     1       1.499   1.771  20.623  0.00  0.00    +0.000 F 
ENDBRANCH  11  15
ENDBRANCH   4   6
BRANCH   1  21
ATOM     19  O   UNL     1       0.833  12.311  21.326  0.00  0.00    +0.000 OA
ATOM     20  C   UNL     1      -0.333  11.910  21.311  0.00  0.00    +0.000 C 
ATOM     21  N   UNL     1      -0.777  10.832  20.571  0.00  0.00    +0.000 N 
ATOM     22  H   UNL     1      -1.777  10.647  20.539  0.00  0.00    +0.000 HD
BRANCH  20  23
ATOM     23  C   UNL     1      -1.348  12.630  22.061  0.00  0.00    +0.000 A 
ATOM     24  C   UNL     1      -2.743  12.539  21.833  0.00  0.00    +0.000 A 
ATOM     25  C   UNL     1      -3.308  13.369  22.763  0.00  0.00    +0.000 A 
ATOM     26  O   UNL     1      -2.312  13.942  23.499  0.00  0.00    +0.000 OA
ATOM     27  N   UNL     1      -1.076  13.469  23.074  0.00  0.00    +0.000 NA
BRANCH  25  28
ATOM     28  C   UNL     1      -4.670  13.699  23.120  0.00  0.00    +0.000 A 
ATOM     29  C   UNL     1      -5.065  14.982  23.483  0.00  0.00    +0.000 A 
ATOM     30  N   UNL     1      -6.319  15.273  23.901  0.00  0.00    +0.000 NA
ATOM     31  C   UNL     1      -7.171  14.225  23.945  0.00  0.00    +0.000 A 
ATOM     32  C   UNL     1      -6.794  12.947  23.568  0.00  0.00    +0.000 A 
ATOM     33  N   UNL     1      -5.541  12.656  23.143  0.00  0.00    +0.000 NA
ENDBRANCH  25  28
ENDBRANCH  20  23
ENDBRANCH   1  21
TORSDOF 5
ENDMDL
MODEL 3
REMARK VINA RESULT:      -8.7      1.478      1.893
REMARK  Name = 
REMARK  5 active torsions:
REMARK  status: ('A' for Active; 'I' for Inactive)
REMARK    1  A    between atoms: C_2  and  C_22
REMARK    2  A    between atoms: N_3  and  C_4
REMARK    3  A    between atoms: N_7  and  C_8
REMARK    4  A    between atoms: C_13  and  C_14
REMARK    5  A    between atoms: C_24  and  C_25
REMARK                            x       y       z     vdW  Elec       q    Type
REMARK                         _______ _______ _______ _____ _____    ______ ____
ROOT
ATOM      1  C   UNL     1       8.098   6.866  18.718  0.00  0.00    +0.000 A 
ATOM      2  C   UNL     1       7.908   5.821  19.648  0.00  0.00    +0.000 A 
ATOM      3  N   UNL     1       7.313   4.757  19.109  0.00  0.00    +0.000 NA
ATOM      4  N   UNL     1       7.074   5.134  17.835  0.00  0.00    +0.000 N 
ATOM      5  C   UNL     1       7.535   6.399  17.556  0.00  0.00    +0.000 A 
ENDROOT
BRANCH   4   6
ATOM      6  C   UNL     1       6.180   4.312  17.042  0.00  0.00    +0.000 C 
ATOM      7  C   UNL     1       5.526   4.986  15.817  0.00  0.00    +0.000 C 
ATOM      8  C   UNL     1       4.158   4.302  15.642  0.00  0.00    +0.000 C 
ATOM      9  C   UNL     1       3.816   3.959  17.060  0.00  0.00    +0.000 A 
ATOM     10  C   UNL     1       2.576   3.681  17.613  0.00  0.00    +0.000 A 
ATOM     11  C   UNL     1       2.494   3.401  18.991  0.00  0.00    +0.000 A 
ATOM     12  C   UNL     1       3.671   3.358  19.771  0.00  0.00    +0.000 A 
ATOM     13  C   UNL     1       4.914   3.597  19.196  0.00  0.00    +0.000 A 
ATOM     14  C   UNL     1       4.967   3.928  17.850  0.00  0.00    +0.000 A 
BRANCH  11  15
ATOM     15  C   UNL     1       1.169   3.154  19.666  0.00  0.00    +0.000 C 
ATOM     16  F   UNL     1       0.551   4.293  20.091  0.00  0.00    +0.000 F 
ATOM     17  F   UNL     1       0.278   2.527  18.851  0.00  0.00    +0.000 F 
ATOM     18  F   UNL     1       1.288   2.362  20.768  0.00  0.00    +0.000 F 
ENDBRANCH  11  15
ENDBRANCH   4   6
BRANCH   1  21
ATOM     19  O   UNL     1       7.306   9.225  17.423  0.00  0.00    +0.000 OA
ATOM     20  C   UNL     1       8.253   9.217  18.213  0.00  0.00    +0.000 C 
ATOM     21  N   UNL     1       8.704   8.095  18.878  0.00  0.00    +0.000 N 
ATOM     22  H   UNL     1       9.420   8.212  19.593  0.00  0.00    +0.000 HD
BRANCH  20  23
ATOM     23  C   UNL     1       8.924  10.465  18.538  0.00  0.00    +0.000 A 
ATOM     24  C   UNL     1       8.788  11.672  17.811  0.00  0.00    +0.000 A 
ATOM     25  C   UNL     1       9.581  12.573  18.469  0.00  0.00    +0.000 A 
ATOM     26  O   UNL     1      10.176  11.941  19.523  0.00  0.00    +0.000 OA
ATOM     27  N   UNL     1       9.754  10.619  19.583  0.00  0.00    +0.000 NA
BRANCH  25  28
ATOM     28  C   UNL     1       9.857  13.982  18.299  0.00  0.00    +0.000 A 
ATOM     29  C   UNL     1      11.115  14.535  18.510  0.00  0.00    +0.000 A 
ATOM     30  N   UNL     1      11.354  15.866  18.437  0.00  0.00    +0.000 NA
ATOM     31  C   UNL     1      10.278  16.630  18.143  0.00  0.00    +0.000 A 
ATOM     32  C   UNL     1       9.026  16.088  17.912  0.00  0.00    +0.000 A 
ATOM     33  N   UNL     1       8.787  14.756  17.979  0.00  0.00    +0.000 NA
ENDBRANCH  25  28
ENDBRANCH  20  23
ENDBRANCH   1  21
TORSDOF 5
ENDMDL
MODEL 4
REMARK VINA RESULT:      -8.7      1.491      1.777
REMARK  Name = 
REMARK  5 active torsions:
REMARK  status: ('A' for Active; 'I' for Inactive)
REMARK    1  A    between atoms: C_2  and  C_22
REMARK    2  A    between atoms: N_3  and  C_4
REMARK    3  A    between atoms: N_7  and  C_8
REMARK    4  A    between atoms: C_13  and  C_14
REMARK    5  A    between atoms: C_24  and  C_25
REMARK                            x       y       z     vdW  Elec       q    Type
REMARK                         _______ _______ _______ _____ _____    ______ ____
ROOT
ATOM      1  C   UNL     1       8.125   6.811  18.705  0.00  0.00    +0.000 A 
ATOM      2  C   UNL     1       8.216   5.628  19.472  0.00  0.00    +0.000 A 
ATOM      3  N   UNL     1       7.619   4.590  18.886  0.00  0.00    +0.000 NA
ATOM      4  N   UNL     1       7.097   5.115  17.757  0.00  0.00    +0.000 N 
ATOM      5  C   UNL     1       7.382   6.452  17.607  0.00  0.00    +0.000 A 
ENDROOT
BRANCH   4   6
ATOM      6  C   UNL     1       6.136   4.317  17.020  0.00  0.00    +0.000 C 
ATOM      7  C   UNL     1       5.444   5.002  15.822  0.00  0.00    +0.000 C 
ATOM      8  C   UNL     1       4.046   4.364  15.725  0.00  0.00    +0.000 C 
ATOM      9  C   UNL     1       3.765   4.047  17.162  0.00  0.00    +0.000 A 
ATOM     10  C   UNL     1       2.547   3.817  17.781  0.00  0.00    +0.000 A 
ATOM     11  C   UNL     1       2.526   3.554  19.164  0.00  0.00    +0.000 A 
ATOM     12  C   UNL     1       3.739   3.478  19.884  0.00  0.00    +0.000 A 
ATOM     13  C   UNL     1       4.958   3.668  19.244  0.00  0.00    +0.000 A 
ATOM     14  C   UNL     1       4.954   3.983  17.893  0.00  0.00    +0.000 A 
BRANCH  11  15
ATOM     15  C   UNL     1       1.230   3.360  19.909  0.00  0.00    +0.000 C 
ATOM     16  F   UNL     1       1.369   2.669  21.077  0.00  0.00    +0.000 F 
ATOM     17  F   UNL     1       0.639   4.541  20.242  0.00  0.00    +0.000 F 
ATOM     18  F   UNL     1       0.308   2.674  19.178  0.00  0.00    +0.000 F 
ENDBRANCH  11  15
ENDBRANCH   4   6
BRANCH   1  21
ATOM     19  O   UNL     1       7.592   9.090  17.160  0.00  0.00    +0.000 OA
ATOM     20  C   UNL     1       8.328   9.146  18.149  0.00  0.00    +0.000 C 
ATOM     21  N   UNL     1       8.643   8.066  18.948  0.00  0.00    +0.000 N 
ATOM     22  H   UNL     1       9.168   8.235  19.803  0.00  0.00    +0.000 HD
BRANCH  20  23
ATOM     23  C   UNL     1       8.870  10.429  18.566  0.00  0.00    +0.000 A 
ATOM     24  C   UNL     1       8.809  11.622  17.806  0.00  0.00    +0.000 A 
ATOM     25  C   UNL     1       9.428  12.566  18.579  0.00  0.00    +0.000 A 
ATOM     26  O   UNL     1       9.855  11.974  19.732  0.00  0.00    +0.000 OA
ATOM     27  N   UNL     1       9.493  10.632  19.739  0.00  0.00    +0.000 NA
BRANCH  25  28
ATOM     28  C   UNL     1       9.662  13.986  18.437  0.00  0.00    +0.000 A 
ATOM     29  C   UNL     1       8.645  14.895  18.167  0.00  0.00    +0.000 A 
ATOM     30  N   UNL     1       8.875  16.211  17.947  0.00  0.00    +0.000 NA
ATOM     31  C   UNL     1      10.173  16.587  18.006  0.00  0.00    +0.000 A 
ATOM     32  C   UNL     1      11.191  15.694  18.293  0.00  0.00    +0.000 A 
ATOM     33  N   UNL     1      10.961  14.379  18.519  0.00  0.00    +0.000 NA
ENDBRANCH  25  28
ENDBRANCH  20  23
ENDBRANCH   1  21
TORSDOF 5
ENDMDL
MODEL 5
REMARK VINA RESULT:      -8.7      8.842     10.822
REMARK  Name = 
REMARK  5 active torsions:
REMARK  status: ('A' for Active; 'I' for Inactive)
REMARK    1  A    between atoms: C_2  and  C_22
REMARK    2  A    between atoms: N_3  and  C_4
REMARK    3  A    between atoms: N_7  and  C_8
REMARK    4  A    between atoms: C_13  and  C_14
REMARK    5  A    between atoms: C_24  and  C_25
REMARK                            x       y       z     vdW  Elec       q    Type
REMARK                         _______ _______ _______ _____ _____    ______ ____
ROOT
ATOM      1  C   UNL     1      -0.269  10.233  20.206  0.00  0.00    +0.000 A 
ATOM      2  C   UNL     1      -0.165  10.366  18.804  0.00  0.00    +0.000 A 
ATOM      3  N   UNL     1       0.745   9.547  18.277  0.00  0.00    +0.000 NA
ATOM      4  N   UNL     1       1.267   8.915  19.350  0.00  0.00    +0.000 N 
ATOM      5  C   UNL     1       0.681   9.297  20.533  0.00  0.00    +0.000 A 
ENDROOT
BRANCH   4   6
ATOM      6  C   UNL     1       2.487   8.154  19.160  0.00  0.00    +0.000 C 
ATOM      7  C   UNL     1       3.039   8.081  17.721  0.00  0.00    +0.000 C 
ATOM      8  C   UNL     1       3.750   6.720  17.613  0.00  0.00    +0.000 C 
ATOM      9  C   UNL     1       2.936   5.885  18.554  0.00  0.00    +0.000 A 
ATOM     10  C   UNL     1       2.822   4.506  18.618  0.00  0.00    +0.000 A 
ATOM     11  C   UNL     1       1.972   3.938  19.587  0.00  0.00    +0.000 A 
ATOM     12  C   UNL     1       1.294   4.773  20.503  0.00  0.00    +0.000 A 
ATOM     13  C   UNL     1       1.450   6.153  20.457  0.00  0.00    +0.000 A 
ATOM     14  C   UNL     1       2.246   6.696  19.459  0.00  0.00    +0.000 A 
BRANCH  11  15
ATOM     15  C   UNL     1       1.753   2.449  19.667  0.00  0.00    +0.000 C 
ATOM     16  F   UNL     1       2.836   1.716  19.281  0.00  0.00    +0.000 F 
ATOM     17  F   UNL     1       1.451   2.035  20.928  0.00  0.00    +0.000 F 
ATOM     18  F   UNL     1       0.722   2.033  18.880  0.00  0.00    +0.000 F 
ENDBRANCH  11  15
ENDBRANCH   4   6
BRANCH   1  21
ATOM     19  O   UNL     1       0.112  12.827  21.202  0.00  0.00    +0.000 OA
ATOM     20  C   UNL     1      -0.865  12.151  21.537  0.00  0.00    +0.000 C 
ATOM     21  N   UNL     1      -1.112  10.867  21.096  0.00  0.00    +0.000 N 
ATOM     22  H   UNL     1      -2.000  10.434  21.341  0.00  0.00    +0.000 HD
BRANCH  20  23
ATOM     23  C   UNL     1      -1.877  12.734  22.403  0.00  0.00    +0.000 A 
ATOM     24  C   UNL     1      -3.271  12.695  22.161  0.00  0.00    +0.000 A 
ATOM     25  C   UNL     1      -3.832  13.350  23.224  0.00  0.00    +0.000 A 
ATOM     26  O   UNL     1      -2.833  13.776  24.051  0.00  0.00    +0.000 OA
ATOM     27  N   UNL     1      -1.600  13.377  23.549  0.00  0.00    +0.000 NA
BRANCH  25  28
ATOM     28  C   UNL     1      -5.192  13.621  23.633  0.00  0.00    +0.000 A 
ATOM     29  C   UNL     1      -6.073  12.623  24.033  0.00  0.00    +0.000 A 
ATOM     30  N   UNL     1      -7.372  12.865  24.332  0.00  0.00    +0.000 NA
ATOM     31  C   UNL     1      -7.760  14.154  24.214  0.00  0.00    +0.000 A 
ATOM     32  C   UNL     1      -6.886  15.160  23.836  0.00  0.00    +0.000 A 
ATOM     33  N   UNL     1      -5.586  14.919  23.543  0.00  0.00    +0.000 NA
ENDBRANCH  25  28
ENDBRANCH  20  23
ENDBRANCH   1  21
TORSDOF 5
ENDMDL
MODEL 6
REMARK VINA RESULT:      -8.6      7.324     10.576
REMARK  Name = 
REMARK  5 active torsions:
REMARK  status: ('A' for Active; 'I' for Inactive)
REMARK    1  A    between atoms: C_2  and  C_22
REMARK    2  A    between atoms: N_3  and  C_4
REMARK    3  A    between atoms: N_7  and  C_8
REMARK    4  A    between atoms: C_13  and  C_14
REMARK    5  A    between atoms: C_24  and  C_25
REMARK                            x       y       z     vdW  Elec       q    Type
REMARK                         _______ _______ _______ _____ _____    ______ ____
ROOT
ATOM      1  C   UNL     1       1.467   8.772  20.787  0.00  0.00    +0.000 A 
ATOM      2  C   UNL     1       1.223   8.968  22.164  0.00  0.00    +0.000 A 
ATOM      3  N   UNL     1       0.341   9.940  22.396  0.00  0.00    +0.000 NA
ATOM      4  N   UNL     1       0.049  10.408  21.164  0.00  0.00    +0.000 N 
ATOM      5  C   UNL     1       0.704   9.729  20.164  0.00  0.00    +0.000 A 
ENDROOT
BRANCH   4   6
ATOM      6  C   UNL     1      -0.670  11.664  21.069  0.00  0.00    +0.000 C 
ATOM      7  C   UNL     1      -1.564  12.040  22.270  0.00  0.00    +0.000 C 
ATOM      8  C   UNL     1      -2.727  12.862  21.686  0.00  0.00    +0.000 C 
ATOM      9  C   UNL     1      -2.864  12.255  20.323  0.00  0.00    +0.000 A 
ATOM     10  C   UNL     1      -3.948  12.284  19.461  0.00  0.00    +0.000 A 
ATOM     11  C   UNL     1      -3.851  11.618  18.224  0.00  0.00    +0.000 A 
ATOM     12  C   UNL     1      -2.645  10.980  17.862  0.00  0.00    +0.000 A 
ATOM     13  C   UNL     1      -1.549  10.994  18.716  0.00  0.00    +0.000 A 
ATOM     14  C   UNL     1      -1.683  11.605  19.954  0.00  0.00    +0.000 A 
BRANCH  11  15
ATOM     15  C   UNL     1      -5.016  11.557  17.270  0.00  0.00    +0.000 C 
ATOM     16  F   UNL     1      -6.059  10.806  17.727  0.00  0.00    +0.000 F 
ATOM     17  F   UNL     1      -5.533  12.788  16.999  0.00  0.00    +0.000 F 
ATOM     18  F   UNL     1      -4.673  11.023  16.065  0.00  0.00    +0.000 F 
ENDBRANCH  11  15
ENDBRANCH   4   6
BRANCH   1  21
ATOM     19  O   UNL     1       1.145   5.990  20.943  0.00  0.00    +0.000 OA
ATOM     20  C   UNL     1       2.047   6.491  20.268  0.00  0.00    +0.000 C 
ATOM     21  N   UNL     1       2.272   7.848  20.152  0.00  0.00    +0.000 N 
ATOM     22  H   UNL     1       2.970   8.167  19.485  0.00  0.00    +0.000 HD
BRANCH  20  23
ATOM     23  C   UNL     1       2.913   5.632  19.478  0.00  0.00    +0.000 A 
ATOM     24  C   UNL     1       3.722   6.066  18.399  0.00  0.00    +0.000 A 
ATOM     25  C   UNL     1       4.363   4.939  17.963  0.00  0.00    +0.000 A 
ATOM     26  O   UNL     1       3.952   3.881  18.721  0.00  0.00    +0.000 OA
ATOM     27  N   UNL     1       3.052   4.312  19.689  0.00  0.00    +0.000 NA
BRANCH  25  28
ATOM     28  C   UNL     1       5.359   4.678  16.947  0.00  0.00    +0.000 A 
ATOM     29  C   UNL     1       6.723   4.817  17.176  0.00  0.00    +0.000 A 
ATOM     30  N   UNL     1       7.651   4.659  16.202  0.00  0.00    +0.000 NA
ATOM     31  C   UNL     1       7.159   4.355  14.980  0.00  0.00    +0.000 A 
ATOM     32  C   UNL     1       5.804   4.196  14.746  0.00  0.00    +0.000 A 
ATOM     33  N   UNL     1       4.875   4.348  15.721  0.00  0.00    +0.000 NA
ENDBRANCH  25  28
ENDBRANCH  20  23
ENDBRANCH   1  21
TORSDOF 5
ENDMDL
MODEL 7
REMARK VINA RESULT:      -8.5      6.836      8.486
REMARK  Name = 
REMARK  5 active torsions:
REMARK  status: ('A' for Active; 'I' for Inactive)
REMARK    1  A    between atoms: C_2  and  C_22
REMARK    2  A    between atoms: N_3  and  C_4
REMARK    3  A    between atoms: N_7  and  C_8
REMARK    4  A    between atoms: C_13  and  C_14
REMARK    5  A    between atoms: C_24  and  C_25
REMARK                            x       y       z     vdW  Elec       q    Type
REMARK                         _______ _______ _______ _____ _____    ______ ____
ROOT
ATOM      1  C   UNL     1       2.525   6.716  19.407  0.00  0.00    +0.000 A 
ATOM      2  C   UNL     1       2.233   5.452  19.964  0.00  0.00    +0.000 A 
ATOM      3  N   UNL     1       3.301   4.657  20.019  0.00  0.00    +0.000 NA
ATOM      4  N   UNL     1       4.279   5.394  19.450  0.00  0.00    +0.000 N 
ATOM      5  C   UNL     1       3.854   6.645  19.069  0.00  0.00    +0.000 A 
ENDROOT
BRANCH   4   6
ATOM      6  C   UNL     1       5.513   4.721  19.091  0.00  0.00    +0.000 C 
ATOM      7  C   UNL     1       6.814   5.536  19.245  0.00  0.00    +0.000 C 
ATOM      8  C   UNL     1       7.771   5.008  18.161  0.00  0.00    +0.000 C 
ATOM      9  C   UNL     1       6.808   4.612  17.084  0.00  0.00    +0.000 A 
ATOM     10  C   UNL     1       7.042   4.427  15.731  0.00  0.00    +0.000 A 
ATOM     11  C   UNL     1       5.965   4.069  14.897  0.00  0.00    +0.000 A 
ATOM     12  C   UNL     1       4.685   3.856  15.455  0.00  0.00    +0.000 A 
ATOM     13  C   UNL     1       4.471   4.002  16.821  0.00  0.00    +0.000 A 
ATOM     14  C   UNL     1       5.531   4.412  17.616  0.00  0.00    +0.000 A 
BRANCH  11  15
ATOM     15  C   UNL     1       6.139   3.917  13.408  0.00  0.00    +0.000 C 
ATOM     16  F   UNL     1       5.001   4.160  12.697  0.00  0.00    +0.000 F 
ATOM     17  F   UNL     1       7.082   4.761  12.905  0.00  0.00    +0.000 F 
ATOM     18  F   UNL     1       6.536   2.662  13.057  0.00  0.00    +0.000 F 
ENDBRANCH  11  15
ENDBRANCH   4   6
BRANCH   1  21
ATOM     19  O   UNL     1       1.584   8.382  21.458  0.00  0.00    +0.000 OA
ATOM     20  C   UNL     1       1.290   8.593  20.279  0.00  0.00    +0.000 C 
ATOM     21  N   UNL     1       1.707   7.812  19.220  0.00  0.00    +0.000 N 
ATOM     22  H   UNL     1       1.505   8.131  18.275  0.00  0.00    +0.000 HD
BRANCH  20  23
ATOM     23  C   UNL     1       0.506   9.768  19.935  0.00  0.00    +0.000 A 
ATOM     24  C   UNL     1      -0.431  10.396  20.792  0.00  0.00    +0.000 A 
ATOM     25  C   UNL     1      -0.918  11.451  20.068  0.00  0.00    +0.000 A 
ATOM     26  O   UNL     1      -0.324  11.449  18.839  0.00  0.00    +0.000 OA
ATOM     27  N   UNL     1       0.586  10.402  18.754  0.00  0.00    +0.000 NA
BRANCH  25  28
ATOM     28  C   UNL     1      -1.848  12.521  20.353  0.00  0.00    +0.000 A 
ATOM     29  C   UNL     1      -1.461  13.719  20.944  0.00  0.00    +0.000 A 
ATOM     30  N   UNL     1      -2.344  14.685  21.292  0.00  0.00    +0.000 NA
ATOM     31  C   UNL     1      -3.640  14.406  21.024  0.00  0.00    +0.000 A 
ATOM     32  C   UNL     1      -4.033  13.225  20.418  0.00  0.00    +0.000 A 
ATOM     33  N   UNL     1      -3.150  12.261  20.065  0.00  0.00    +0.000 NA
ENDBRANCH  25  28
ENDBRANCH  20  23
ENDBRANCH   1  21
TORSDOF 5
ENDMDL
MODEL 8
REMARK VINA RESULT:      -8.5      8.619      9.679
REMARK  Name = 
REMARK  5 active torsions:
REMARK  status: ('A' for Active; 'I' for Inactive)
REMARK    1  A    between atoms: C_2  and  C_22
REMARK    2  A    between atoms: N_3  and  C_4
REMARK    3  A    between atoms: N_7  and  C_8
REMARK    4  A    between atoms: C_13  and  C_14
REMARK    5  A    between atoms: C_24  and  C_25
REMARK                            x       y       z     vdW  Elec       q    Type
REMARK                         _______ _______ _______ _____ _____    ______ ____
ROOT
ATOM      1  C   UNL     1       0.108  10.048  20.049  0.00  0.00    +0.000 A 
ATOM      2  C   UNL     1       0.203  10.182  18.647  0.00  0.00    +0.000 A 
ATOM      3  N   UNL     1       1.064   9.320  18.106  0.00  0.00    +0.000 NA
ATOM      4  N   UNL     1       1.566   8.657  19.171  0.00  0.00    +0.000 N 
ATOM      5  C   UNL     1       1.013   9.063  20.362  0.00  0.00    +0.000 A 
ENDROOT
BRANCH   4   6
ATOM      6  C   UNL     1       2.744   7.836  18.964  0.00  0.00    +0.000 C 
ATOM      7  C   UNL     1       3.289   7.761  17.523  0.00  0.00    +0.000 C 
ATOM      8  C   UNL     1       3.927   6.367  17.388  0.00  0.00    +0.000 C 
ATOM      9  C   UNL     1       3.071   5.559  18.315  0.00  0.00    +0.000 A 
ATOM     10  C   UNL     1       2.884   4.187  18.354  0.00  0.00    +0.000 A 
ATOM     11  C   UNL     1       2.007   3.647  19.314  0.00  0.00    +0.000 A 
ATOM     12  C   UNL     1       1.376   4.499  20.247  0.00  0.00    +0.000 A 
ATOM     13  C   UNL     1       1.604   5.870  20.226  0.00  0.00    +0.000 A 
ATOM     14  C   UNL     1       2.426   6.388  19.237  0.00  0.00    +0.000 A 
BRANCH  11  15
ATOM     15  C   UNL     1       1.709   2.170  19.368  0.00  0.00    +0.000 C 
ATOM     16  F   UNL     1       0.583   1.814  18.687  0.00  0.00    +0.000 F 
ATOM     17  F   UNL     1       2.716   1.417  18.845  0.00  0.00    +0.000 F 
ATOM     18  F   UNL     1       1.532   1.722  20.642  0.00  0.00    +0.000 F 
ENDBRANCH  11  15
ENDBRANCH   4   6
BRANCH   1  21
ATOM     19  O   UNL     1       0.934  12.228  21.608  0.00  0.00    +0.000 OA
ATOM     20  C   UNL     1      -0.218  11.792  21.679  0.00  0.00    +0.000 C 
ATOM     21  N   UNL     1      -0.691  10.719  20.952  0.00  0.00    +0.000 N 
ATOM     22  H   UNL     1      -1.685  10.505  20.997  0.00  0.00    +0.000 HD
BRANCH  20  23
ATOM     23  C   UNL     1      -1.188  12.465  22.528  0.00  0.00    +0.000 A 
ATOM     24  C   UNL     1      -1.168  13.845  22.845  0.00  0.00    +0.000 A 
ATOM     25  C   UNL     1      -2.256  14.036  23.653  0.00  0.00    +0.000 A 
ATOM     26  O   UNL     1      -2.886  12.838  23.829  0.00  0.00    +0.000 OA
ATOM     27  N   UNL     1      -2.229  11.847  23.110  0.00  0.00    +0.000 NA
BRANCH  25  28
ATOM     28  C   UNL     1      -2.852  15.196  24.279  0.00  0.00    +0.000 A 
ATOM     29  C   UNL     1      -4.220  15.444  24.262  0.00  0.00    +0.000 A 
ATOM     30  N   UNL     1      -4.768  16.572  24.771  0.00  0.00    +0.000 NA
ATOM     31  C   UNL     1      -3.890  17.453  25.301  0.00  0.00    +0.000 A 
ATOM     32  C   UNL     1      -2.528  17.207  25.341  0.00  0.00    +0.000 A 
ATOM     33  N   UNL     1      -1.979  16.076  24.838  0.00  0.00    +0.000 NA
ENDBRANCH  25  28
ENDBRANCH  20  23
ENDBRANCH   1  21
TORSDOF 5
ENDMDL
MODEL 9
REMARK VINA RESULT:      -8.5      6.482      7.593
REMARK  Name = 
REMARK  5 active torsions:
REMARK  status: ('A' for Active; 'I' for Inactive)
REMARK    1  A    between atoms: C_2  and  C_22
REMARK    2  A    between atoms: N_3  and  C_4
REMARK    3  A    between atoms: N_7  and  C_8
REMARK    4  A    between atoms: C_13  and  C_14
REMARK    5  A    between atoms: C_24  and  C_25
REMARK                            x       y       z     vdW  Elec       q    Type
REMARK                         _______ _______ _______ _____ _____    ______ ____
ROOT
ATOM      1  C   UNL     1       2.585   6.733  19.501  0.00  0.00    +0.000 A 
ATOM      2  C   UNL     1       2.186   5.398  19.728  0.00  0.00    +0.000 A 
ATOM      3  N   UNL     1       3.211   4.547  19.714  0.00  0.00    +0.000 NA
ATOM      4  N   UNL     1       4.274   5.329  19.429  0.00  0.00    +0.000 N 
ATOM      5  C   UNL     1       3.940   6.657  19.296  0.00  0.00    +0.000 A 
ENDROOT
BRANCH   4   6
ATOM      6  C   UNL     1       5.516   4.677  19.058  0.00  0.00    +0.000 C 
ATOM      7  C   UNL     1       6.807   5.507  19.221  0.00  0.00    +0.000 C 
ATOM      8  C   UNL     1       7.768   5.007  18.128  0.00  0.00    +0.000 C 
ATOM      9  C   UNL     1       6.807   4.613  17.047  0.00  0.00    +0.000 A 
ATOM     10  C   UNL     1       7.041   4.450  15.692  0.00  0.00    +0.000 A 
ATOM     11  C   UNL     1       5.967   4.089  14.855  0.00  0.00    +0.000 A 
ATOM     12  C   UNL     1       4.691   3.851  15.413  0.00  0.00    +0.000 A 
ATOM     13  C   UNL     1       4.478   3.976  16.781  0.00  0.00    +0.000 A 
ATOM     14  C   UNL     1       5.534   4.389  17.579  0.00  0.00    +0.000 A 
BRANCH  11  15
ATOM     15  C   UNL     1       6.139   3.959  13.363  0.00  0.00    +0.000 C 
ATOM     16  F   UNL     1       7.073   4.807  12.845  0.00  0.00    +0.000 F 
ATOM     17  F   UNL     1       6.523   2.707  12.991  0.00  0.00    +0.000 F 
ATOM     18  F   UNL     1       4.987   4.213  12.684  0.00  0.00    +0.000 F 
ENDBRANCH  11  15
ENDBRANCH   4   6
BRANCH   1  21
ATOM     19  O   UNL     1       2.473   8.532  17.352  0.00  0.00    +0.000 OA
ATOM     20  C   UNL     1       1.821   8.725  18.381  0.00  0.00    +0.000 C 
ATOM     21  N   UNL     1       1.834   7.891  19.480  0.00  0.00    +0.000 N 
ATOM     22  H   UNL     1       1.179   8.077  20.236  0.00  0.00    +0.000 HD
BRANCH  20  23
ATOM     23  C   UNL     1       0.921   9.864  18.456  0.00  0.00    +0.000 A 
ATOM     24  C   UNL     1       1.197  11.073  19.141  0.00  0.00    +0.000 A 
ATOM     25  C   UNL     1       0.090  11.852  18.941  0.00  0.00    +0.000 A 
ATOM     26  O   UNL     1      -0.810  11.149  18.194  0.00  0.00    +0.000 OA
ATOM     27  N   UNL     1      -0.287   9.903  17.870  0.00  0.00    +0.000 NA
BRANCH  25  28
ATOM     28  C   UNL     1      -0.267  13.205  19.308  0.00  0.00    +0.000 A 
ATOM     29  C   UNL     1      -1.184  13.497  20.311  0.00  0.00    +0.000 A 
ATOM     30  N   UNL     1      -1.583  14.759  20.596  0.00  0.00    +0.000 NA
ATOM     31  C   UNL     1      -1.027  15.727  19.833  0.00  0.00    +0.000 A 
ATOM     32  C   UNL     1      -0.098  15.448  18.845  0.00  0.00    +0.000 A 
ATOM     33  N   UNL     1       0.306  14.187  18.563  0.00  0.00    +0.000 NA
ENDBRANCH  25  28
ENDBRANCH  20  23
ENDBRANCH   1  21
TORSDOF 5
ENDMDL
