MODEL 1
REMARK VINA RESULT:      -6.8      0.000      0.000
REMARK  Name = 
REMARK  2 active torsions:
REMARK  status: ('A' for Active; 'I' for Inactive)
REMARK    1  A    between atoms: C_2  and  C_3
REMARK    2  A    between atoms: C_4  and  C_5
REMARK                            x       y       z     vdW  Elec       q    Type
REMARK                         _______ _______ _______ _____ _____    ______ ____
ROOT
ATOM      1  C   UNL     1       3.566   5.142  18.080  0.00  0.00    +0.000 A 
ATOM      2  C   UNL     1       4.230   4.238  17.254  0.00  0.00    +0.000 A 
ATOM      3  S   UNL     1       3.827   2.621  17.677  0.00  0.00    +0.000 S 
ATOM      4  C   UNL     1       2.755   3.096  18.922  0.00  0.00    +0.000 A 
ATOM      5  C   UNL     1       1.976   2.245  19.733  0.00  0.00    +0.000 A 
ATOM      6  C   UNL     1       1.158   2.804  20.716  0.00  0.00    +0.000 A 
ATOM      7  C   UNL     1       1.119   4.177  20.896  0.00  0.00    +0.000 A 
ATOM      8  C   UNL     1       1.890   5.014  20.084  0.00  0.00    +0.000 A 
ATOM      9  C   UNL     1       2.727   4.482  19.067  0.00  0.00    +0.000 A 
ENDROOT
BRANCH   2  10
ATOM     10  C   UNL     1       5.205   4.461  16.157  0.00  0.00    +0.000 A 
ATOM     11  C   UNL     1       6.485   4.975  16.424  0.00  0.00    +0.000 A 
ATOM     12  C   UNL     1       7.398   5.221  15.391  0.00  0.00    +0.000 A 
ATOM     13  C   UNL     1       7.058   4.915  14.077  0.00  0.00    +0.000 A 
ATOM     14 CL   UNL     1       8.185   5.200  12.810  0.00  0.00    +0.000 Cl
ATOM     15  C   UNL     1       5.811   4.375  13.788  0.00  0.00    +0.000 A 
ATOM     16  C   UNL     1       4.887   4.159  14.819  0.00  0.00    +0.000 A 
ENDBRANCH   2  10
BRANCH   1  18
ATOM     17  O   UNL     1       2.723   7.354  17.864  0.00  0.00    +0.000 OA
ATOM     18  C   UNL     1       3.680   6.591  17.949  0.00  0.00    +0.000 C 
ENDBRANCH   1  18
TORSDOF 2
ENDMDL
MODEL 2
REMARK VINA RESULT:      -6.8      1.480      1.502
REMARK  Name = 
REMARK  2 active torsions:
REMARK  status: ('A' for Active; 'I' for Inactive)
REMARK    1  A    between atoms: C_2  and  C_3
REMARK    2  A    between atoms: C_4  and  C_5
REMARK                            x       y       z     vdW  Elec       q    Type
REMARK                         _______ _______ _______ _____ _____    ______ ____
ROOT
ATOM      1  C   UNL     1       4.353   4.572  18.735  0.00  0.00    +0.000 A 
ATOM      2  C   UNL     1       4.286   4.217  17.390  0.00  0.00    +0.000 A 
ATOM      3  S   UNL     1       2.871   3.293  17.076  0.00  0.00    +0.000 S 
ATOM      4  C   UNL     1       2.321   3.382  18.694  0.00  0.00    +0.000 A 
ATOM      5  C   UNL     1       1.120   2.848  19.206  0.00  0.00    +0.000 A 
ATOM      6  C   UNL     1       0.831   3.003  20.562  0.00  0.00    +0.000 A 
ATOM      7  C   UNL     1       1.717   3.668  21.395  0.00  0.00    +0.000 A 
ATOM      8  C   UNL     1       2.902   4.199  20.878  0.00  0.00    +0.000 A 
ATOM      9  C   UNL     1       3.225   4.068  19.502  0.00  0.00    +0.000 A 
ENDROOT
BRANCH   2  10
ATOM     10  C   UNL     1       5.225   4.473  16.270  0.00  0.00    +0.000 A 
ATOM     11  C   UNL     1       6.125   5.552  16.316  0.00  0.00    +0.000 A 
ATOM     12  C   UNL     1       6.992   5.821  15.249  0.00  0.00    +0.000 A 
ATOM     13  C   UNL     1       7.000   4.989  14.135  0.00  0.00    +0.000 A 
ATOM     14 CL   UNL     1       8.074   5.309  12.832  0.00  0.00    +0.000 Cl
ATOM     15  C   UNL     1       6.143   3.896  14.076  0.00  0.00    +0.000 A 
ATOM     16  C   UNL     1       5.255   3.647  15.130  0.00  0.00    +0.000 A 
ENDBRANCH   2  10
BRANCH   1  18
ATOM     17  O   UNL     1       6.472   4.932  19.752  0.00  0.00    +0.000 OA
ATOM     18  C   UNL     1       5.424   5.386  19.304  0.00  0.00    +0.000 C 
ENDBRANCH   1  18
TORSDOF 2
ENDMDL
MODEL 3
REMARK VINA RESULT:      -6.7      1.617      1.813
REMARK  Name = 
REMARK  2 active torsions:
REMARK  status: ('A' for Active; 'I' for Inactive)
REMARK    1  A    between atoms: C_2  and  C_3
REMARK    2  A    between atoms: C_4  and  C_5
REMARK                            x       y       z     vdW  Elec       q    Type
REMARK                         _______ _______ _______ _____ _____    ______ ____
ROOT
ATOM      1  C   UNL     1       4.307   4.457  18.829  0.00  0.00    +0.000 A 
ATOM      2  C   UNL     1       4.156   4.173  17.473  0.00  0.00    +0.000 A 
ATOM      3  S   UNL     1       2.693   3.316  17.192  0.00  0.00    +0.000 S 
ATOM      4  C   UNL     1       2.232   3.341  18.839  0.00  0.00    +0.000 A 
ATOM      5  C   UNL     1       1.040   2.824  19.388  0.00  0.00    +0.000 A 
ATOM      6  C   UNL     1       0.828   2.920  20.764  0.00  0.00    +0.000 A 
ATOM      7  C   UNL     1       1.780   3.510  21.579  0.00  0.00    +0.000 A 
ATOM      8  C   UNL     1       2.957   4.025  21.026  0.00  0.00    +0.000 A 
ATOM      9  C   UNL     1       3.202   3.954  19.629  0.00  0.00    +0.000 A 
ENDROOT
BRANCH   2  10
ATOM     10  C   UNL     1       5.045   4.454  16.318  0.00  0.00    +0.000 A 
ATOM     11  C   UNL     1       5.498   3.415  15.487  0.00  0.00    +0.000 A 
ATOM     12  C   UNL     1       6.364   3.668  14.416  0.00  0.00    +0.000 A 
ATOM     13  C   UNL     1       6.758   4.971  14.135  0.00  0.00    +0.000 A 
ATOM     14 CL   UNL     1       7.809   5.284  12.810  0.00  0.00    +0.000 Cl
ATOM     15  C   UNL     1       6.300   6.023  14.921  0.00  0.00    +0.000 A 
ATOM     16  C   UNL     1       5.459   5.764  16.010  0.00  0.00    +0.000 A 
ENDBRANCH   2  10
BRANCH   1  18
ATOM     17  O   UNL     1       6.587   4.783  19.418  0.00  0.00    +0.000 OA
ATOM     18  C   UNL     1       5.435   5.203  19.378  0.00  0.00    +0.000 C 
ENDBRANCH   1  18
TORSDOF 2
ENDMDL
MODEL 4
REMARK VINA RESULT:      -6.7      0.144      1.144
REMARK  Name = 
REMARK  2 active torsions:
REMARK  status: ('A' for Active; 'I' for Inactive)
REMARK    1  A    between atoms: C_2  and  C_3
REMARK    2  A    between atoms: C_4  and  C_5
REMARK                            x       y       z     vdW  Elec       q    Type
REMARK                         _______ _______ _______ _____ _____    ______ ____
ROOT
ATOM      1  C   UNL     1       3.637   5.086  18.216  0.00  0.00    +0.000 A 
ATOM      2  C   UNL     1       4.247   4.203  17.327  0.00  0.00    +0.000 A 
ATOM      3  S   UNL     1       3.806   2.581  17.686  0.00  0.00    +0.000 S 
ATOM      4  C   UNL     1       2.788   3.028  18.986  0.00  0.00    +0.000 A 
ATOM      5  C   UNL     1       2.007   2.163  19.780  0.00  0.00    +0.000 A 
ATOM      6  C   UNL     1       1.237   2.699  20.814  0.00  0.00    +0.000 A 
ATOM      7  C   UNL     1       1.246   4.062  21.058  0.00  0.00    +0.000 A 
ATOM      8  C   UNL     1       2.019   4.914  20.263  0.00  0.00    +0.000 A 
ATOM      9  C   UNL     1       2.807   4.405  19.197  0.00  0.00    +0.000 A 
ENDROOT
BRANCH   2  10
ATOM     10  C   UNL     1       5.195   4.449  16.212  0.00  0.00    +0.000 A 
ATOM     11  C   UNL     1       4.819   4.206  14.880  0.00  0.00    +0.000 A 
ATOM     12  C   UNL     1       5.719   4.403  13.824  0.00  0.00    +0.000 A 
ATOM     13  C   UNL     1       6.996   4.887  14.083  0.00  0.00    +0.000 A 
ATOM     14 CL   UNL     1       8.096   5.145  12.787  0.00  0.00    +0.000 Cl
ATOM     15  C   UNL     1       7.384   5.167  15.389  0.00  0.00    +0.000 A 
ATOM     16  C   UNL     1       6.493   4.940  16.445  0.00  0.00    +0.000 A 
ENDBRANCH   2  10
BRANCH   1  18
ATOM     17  O   UNL     1       2.914   7.309  17.780  0.00  0.00    +0.000 OA
ATOM     18  C   UNL     1       3.792   6.536  18.149  0.00  0.00    +0.000 C 
ENDBRANCH   1  18
TORSDOF 2
ENDMDL
MODEL 5
REMARK VINA RESULT:      -6.7      3.276      4.527
REMARK  Name = 
REMARK  2 active torsions:
REMARK  status: ('A' for Active; 'I' for Inactive)
REMARK    1  A    between atoms: C_2  and  C_3
REMARK    2  A    between atoms: C_4  and  C_5
REMARK                            x       y       z     vdW  Elec       q    Type
REMARK                         _______ _______ _______ _____ _____    ______ ____
ROOT
ATOM      1  C   UNL     1       2.209   6.787  19.860  0.00  0.00    +0.000 A 
ATOM      2  C   UNL     1       2.739   7.049  18.598  0.00  0.00    +0.000 A 
ATOM      3  S   UNL     1       2.241   8.596  18.039  0.00  0.00    +0.000 S 
ATOM      4  C   UNL     1       1.357   8.947  19.461  0.00  0.00    +0.000 A 
ATOM      5  C   UNL     1       0.666  10.142  19.750  0.00  0.00    +0.000 A 
ATOM      6  C   UNL     1      -0.018  10.256  20.961  0.00  0.00    +0.000 A 
ATOM      7  C   UNL     1      -0.021   9.206  21.865  0.00  0.00    +0.000 A 
ATOM      8  C   UNL     1       0.671   8.027  21.573  0.00  0.00    +0.000 A 
ATOM      9  C   UNL     1       1.385   7.878  20.355  0.00  0.00    +0.000 A 
ENDROOT
BRANCH   2  10
ATOM     10  C   UNL     1       3.585   6.214  17.709  0.00  0.00    +0.000 A 
ATOM     11  C   UNL     1       3.349   4.835  17.575  0.00  0.00    +0.000 A 
ATOM     12  C   UNL     1       4.164   4.034  16.765  0.00  0.00    +0.000 A 
ATOM     13  C   UNL     1       5.203   4.610  16.042  0.00  0.00    +0.000 A 
ATOM     14 CL   UNL     1       6.194   3.631  15.034  0.00  0.00    +0.000 Cl
ATOM     15  C   UNL     1       5.440   5.977  16.130  0.00  0.00    +0.000 A 
ATOM     16  C   UNL     1       4.643   6.771  16.965  0.00  0.00    +0.000 A 
ENDBRANCH   2  10
BRANCH   1  18
ATOM     17  O   UNL     1       1.655   4.673  20.795  0.00  0.00    +0.000 OA
ATOM     18  C   UNL     1       2.477   5.565  20.612  0.00  0.00    +0.000 C 
ENDBRANCH   1  18
TORSDOF 2
ENDMDL
MODEL 6
REMARK VINA RESULT:      -6.7      3.393      4.616
REMARK  Name = 
REMARK  2 active torsions:
REMARK  status: ('A' for Active; 'I' for Inactive)
REMARK    1  A    between atoms: C_2  and  C_3
REMARK    2  A    between atoms: C_4  and  C_5
REMARK                            x       y       z     vdW  Elec       q    Type
REMARK                         _______ _______ _______ _____ _____    ______ ____
ROOT
ATOM      1  C   UNL     1       2.119   7.003  19.851  0.00  0.00    +0.000 A 
ATOM      2  C   UNL     1       2.672   7.201  18.588  0.00  0.00    +0.000 A 
ATOM      3  S   UNL     1       2.207   8.729  17.954  0.00  0.00    +0.000 S 
ATOM      4  C   UNL     1       1.305   9.155  19.344  0.00  0.00    +0.000 A 
ATOM      5  C   UNL     1       0.627  10.371  19.568  0.00  0.00    +0.000 A 
ATOM      6  C   UNL     1      -0.075  10.548  20.762  0.00  0.00    +0.000 A 
ATOM      7  C   UNL     1      -0.108   9.539  21.710  0.00  0.00    +0.000 A 
ATOM      8  C   UNL     1       0.572   8.339  21.483  0.00  0.00    +0.000 A 
ATOM      9  C   UNL     1       1.303   8.126  20.284  0.00  0.00    +0.000 A 
ENDROOT
BRANCH   2  10
ATOM     10  C   UNL     1       3.521   6.316  17.751  0.00  0.00    +0.000 A 
ATOM     11  C   UNL     1       4.623   6.830  17.046  0.00  0.00    +0.000 A 
ATOM     12  C   UNL     1       5.408   6.008  16.228  0.00  0.00    +0.000 A 
ATOM     13  C   UNL     1       5.126   4.650  16.134  0.00  0.00    +0.000 A 
ATOM     14 CL   UNL     1       6.099   3.637  15.142  0.00  0.00    +0.000 Cl
ATOM     15  C   UNL     1       4.061   4.108  16.845  0.00  0.00    +0.000 A 
ATOM     16  C   UNL     1       3.259   4.937  17.639  0.00  0.00    +0.000 A 
ENDBRANCH   2  10
BRANCH   1  18
ATOM     17  O   UNL     1       1.557   4.889  20.782  0.00  0.00    +0.000 OA
ATOM     18  C   UNL     1       2.356   5.812  20.660  0.00  0.00    +0.000 C 
ENDBRANCH   1  18
TORSDOF 2
ENDMDL
MODEL 7
REMARK VINA RESULT:      -6.6      4.002      6.644
REMARK  Name = 
REMARK  2 active torsions:
REMARK  status: ('A' for Active; 'I' for Inactive)
REMARK    1  A    between atoms: C_2  and  C_3
REMARK    2  A    between atoms: C_4  and  C_5
REMARK                            x       y       z     vdW  Elec       q    Type
REMARK                         _______ _______ _______ _____ _____    ______ ____
ROOT
ATOM      1  C   UNL     1       3.150   5.470  17.733  0.00  0.00    +0.000 A 
ATOM      2  C   UNL     1       3.236   6.842  17.962  0.00  0.00    +0.000 A 
ATOM      3  S   UNL     1       4.689   7.478  17.300  0.00  0.00    +0.000 S 
ATOM      4  C   UNL     1       5.198   5.967  16.679  0.00  0.00    +0.000 A 
ATOM      5  C   UNL     1       6.364   5.716  15.928  0.00  0.00    +0.000 A 
ATOM      6  C   UNL     1       6.634   4.412  15.508  0.00  0.00    +0.000 A 
ATOM      7  C   UNL     1       5.769   3.379  15.831  0.00  0.00    +0.000 A 
ATOM      8  C   UNL     1       4.611   3.639  16.572  0.00  0.00    +0.000 A 
ATOM      9  C   UNL     1       4.300   4.953  17.009  0.00  0.00    +0.000 A 
ENDROOT
BRANCH   2  10
ATOM     10  C   UNL     1       2.326   7.763  18.688  0.00  0.00    +0.000 A 
ATOM     11  C   UNL     1       1.724   8.849  18.029  0.00  0.00    +0.000 A 
ATOM     12  C   UNL     1       0.891   9.742  18.714  0.00  0.00    +0.000 A 
ATOM     13  C   UNL     1       0.613   9.538  20.061  0.00  0.00    +0.000 A 
ATOM     14 CL   UNL     1      -0.422  10.625  20.900  0.00  0.00    +0.000 Cl
ATOM     15  C   UNL     1       1.169   8.453  20.731  0.00  0.00    +0.000 A 
ATOM     16  C   UNL     1       2.026   7.579  20.051  0.00  0.00    +0.000 A 
ENDBRANCH   2  10
BRANCH   1  18
ATOM     17  O   UNL     1       1.182   4.183  17.380  0.00  0.00    +0.000 OA
ATOM     18  C   UNL     1       2.016   4.650  18.149  0.00  0.00    +0.000 C 
ENDBRANCH   1  18
TORSDOF 2
ENDMDL
MODEL 8
REMARK VINA RESULT:      -6.6      3.991      6.588
REMARK  Name = 
REMARK  2 active torsions:
REMARK  status: ('A' for Active; 'I' for Inactive)
REMARK    1  A    between atoms: C_2  and  C_3
REMARK    2  A    between atoms: C_4  and  C_5
REMARK                            x       y       z     vdW  Elec       q    Type
REMARK                         _______ _______ _______ _____ _____    ______ ____
ROOT
ATOM      1  C   UNL     1       3.182   5.474  17.682  0.00  0.00    +0.000 A 
ATOM      2  C   UNL     1       3.267   6.847  17.902  0.00  0.00    +0.000 A 
ATOM      3  S   UNL     1       4.719   7.480  17.235  0.00  0.00    +0.000 S 
ATOM      4  C   UNL     1       5.229   5.965  16.624  0.00  0.00    +0.000 A 
ATOM      5  C   UNL     1       6.395   5.710  15.873  0.00  0.00    +0.000 A 
ATOM      6  C   UNL     1       6.666   4.403  15.462  0.00  0.00    +0.000 A 
ATOM      7  C   UNL     1       5.802   3.372  15.793  0.00  0.00    +0.000 A 
ATOM      8  C   UNL     1       4.645   3.636  16.533  0.00  0.00    +0.000 A 
ATOM      9  C   UNL     1       4.332   4.953  16.961  0.00  0.00    +0.000 A 
ENDROOT
BRANCH   2  10
ATOM     10  C   UNL     1       2.357   7.772  18.622  0.00  0.00    +0.000 A 
ATOM     11  C   UNL     1       2.093   7.604  19.992  0.00  0.00    +0.000 A 
ATOM     12  C   UNL     1       1.209   8.453  20.670  0.00  0.00    +0.000 A 
ATOM     13  C   UNL     1       0.606   9.509  19.996  0.00  0.00    +0.000 A 
ATOM     14 CL   UNL     1      -0.467  10.561  20.832  0.00  0.00    +0.000 Cl
ATOM     15  C   UNL     1       0.874   9.719  18.648  0.00  0.00    +0.000 A 
ATOM     16  C   UNL     1       1.734   8.851  17.964  0.00  0.00    +0.000 A 
ENDBRANCH   2  10
BRANCH   1  18
ATOM     17  O   UNL     1       1.171   4.250  17.350  0.00  0.00    +0.000 OA
ATOM     18  C   UNL     1       2.050   4.656  18.104  0.00  0.00    +0.000 C 
ENDBRANCH   1  18
TORSDOF 2
ENDMDL
MODEL 9
REMARK VINA RESULT:      -6.3      4.742      7.253
REMARK  Name = 
REMARK  2 active torsions:
REMARK  status: ('A' for Active; 'I' for Inactive)
REMARK    1  A    between atoms: C_2  and  C_3
REMARK    2  A    between atoms: C_4  and  C_5
REMARK                            x       y       z     vdW  Elec       q    Type
REMARK                         _______ _______ _______ _____ _____    ______ ____
ROOT
ATOM      1  C   UNL     1       2.438   5.980  19.573  0.00  0.00    +0.000 A 
ATOM      2  C   UNL     1       2.261   7.345  19.360  0.00  0.00    +0.000 A 
ATOM      3  S   UNL     1       3.152   7.865  17.985  0.00  0.00    +0.000 S 
ATOM      4  C   UNL     1       3.748   6.298  17.642  0.00  0.00    +0.000 A 
ATOM      5  C   UNL     1       4.570   5.929  16.557  0.00  0.00    +0.000 A 
ATOM      6  C   UNL     1       4.977   4.600  16.433  0.00  0.00    +0.000 A 
ATOM      7  C   UNL     1       4.582   3.658  17.369  0.00  0.00    +0.000 A 
ATOM      8  C   UNL     1       3.762   4.031  18.439  0.00  0.00    +0.000 A 
ATOM      9  C   UNL     1       3.321   5.372  18.591  0.00  0.00    +0.000 A 
ENDROOT
BRANCH   2  10
ATOM     10  C   UNL     1       1.492   8.355  20.128  0.00  0.00    +0.000 A 
ATOM     11  C   UNL     1       0.860   9.429  19.477  0.00  0.00    +0.000 A 
ATOM     12  C   UNL     1       0.161  10.405  20.198  0.00  0.00    +0.000 A 
ATOM     13  C   UNL     1       0.048  10.299  21.580  0.00  0.00    +0.000 A 
ATOM     14 CL   UNL     1      -0.824  11.488  22.465  0.00  0.00    +0.000 Cl
ATOM     15  C   UNL     1       0.636   9.230  22.247  0.00  0.00    +0.000 A 
ATOM     16  C   UNL     1       1.360   8.272  21.528  0.00  0.00    +0.000 A 
ENDBRANCH   2  10
BRANCH   1  18
ATOM     17  O   UNL     1       0.890   4.416  20.475  0.00  0.00    +0.000 OA
ATOM     18  C   UNL     1       1.785   5.238  20.648  0.00  0.00    +0.000 C 
ENDBRANCH   1  18
TORSDOF 2
ENDMDL
