MODEL 1
REMARK VINA RESULT:      -7.8      0.000      0.000
REMARK  Name = 
REMARK  9 active torsions:
REMARK  status: ('A' for Active; 'I' for Inactive)
REMARK    1  A    between atoms: C_2  and  C_3
REMARK    2  A    between atoms: C_2  and  C_4
REMARK    3  A    between atoms: C_7  and  C_8
REMARK    4  A    between atoms: C_10  and  C_11
REMARK    5  A    between atoms: C_12  and  O_13
REMARK    6  A    between atoms: C_15  and  C_16
REMARK    7  A    between atoms: C_17  and  C_18
REMARK    8  A    between atoms: C_23  and  O_24
REMARK    9  A    between atoms: C_26  and  O_27
REMARK                            x       y       z     vdW  Elec       q    Type
REMARK                         _______ _______ _______ _____ _____    ______ ____
ROOT
ATOM      1  C   UNL     1       3.244   6.340  19.337  0.00  0.00    +0.000 A 
ATOM      2  C   UNL     1       2.380   6.148  20.438  0.00  0.00    +0.000 A 
ATOM      3  C   UNL     1       1.347   7.043  20.761  0.00  0.00    +0.000 A 
ATOM      4  C   UNL     1       1.123   8.176  19.979  0.00  0.00    +0.000 A 
ATOM      5  C   UNL     1       1.881   8.334  18.831  0.00  0.00    +0.000 A 
ATOM      6  C   UNL     1       2.931   7.458  18.544  0.00  0.00    +0.000 A 
ENDROOT
BRANCH   1  13
ATOM      7  C   UNL     1       5.445   5.768  17.921  0.00  0.00    +0.000 C 
ATOM      8  C   UNL     1       4.864   5.337  16.552  0.00  0.00    +0.000 C 
ATOM      9  C   UNL     1       4.093   4.021  16.496  0.00  0.00    +0.000 C 
ATOM     10  C   UNL     1       3.562   3.398  17.796  0.00  0.00    +0.000 C 
ATOM     11  C   UNL     1       2.033   3.371  17.898  0.00  0.00    +0.000 C 
ATOM     12  C   UNL     1       4.190   3.919  19.090  0.00  0.00    +0.000 C 
ATOM     13  C   UNL     1       4.484   5.435  19.118  0.00  0.00    +0.000 C 
BRANCH   7  15
ATOM     14  C   UNL     1       7.558   4.526  17.181  0.00  0.00    +0.000 C 
ATOM     15  C   UNL     1       6.890   5.248  18.097  0.00  0.00    +0.000 C 
ATOM     16  C   UNL     1       7.617   5.717  19.334  0.00  0.00    +0.000 C 
ENDBRANCH   7  15
ENDBRANCH   1  13
BRANCH   2  17
ATOM     17  O   UNL     1       2.507   5.072  21.273  0.00  0.00    +0.000 OA
ATOM     18  H   UNL     1       3.460   4.940  21.414  0.00  0.00    +0.000 HD
ENDBRANCH   2  17
BRANCH   4  19
ATOM     19  C   UNL     1       0.124   9.175  20.380  0.00  0.00    +0.000 C 
ATOM     20  C   UNL     1       0.424  10.436  20.753  0.00  0.00    +0.000 C 
BRANCH  20  21
ATOM     21  C   UNL     1      -0.590  11.378  21.251  0.00  0.00    +0.000 A 
ATOM     22  C   UNL     1      -1.255  12.225  20.353  0.00  0.00    +0.000 A 
ATOM     23  C   UNL     1      -2.240  13.106  20.783  0.00  0.00    +0.000 A 
ATOM     24  C   UNL     1      -2.596  13.140  22.127  0.00  0.00    +0.000 A 
ATOM     25  C   UNL     1      -1.970  12.285  23.039  0.00  0.00    +0.000 A 
ATOM     26  C   UNL     1      -0.977  11.407  22.604  0.00  0.00    +0.000 A 
BRANCH  26  27
ATOM     27  O   UNL     1      -0.370  10.575  23.502  0.00  0.00    +0.000 OA
ATOM     28  H   UNL     1       0.136  11.118  24.131  0.00  0.00    +0.000 HD
ENDBRANCH  26  27
ENDBRANCH  20  21
ENDBRANCH   4  19
BRANCH   6  29
ATOM     29  O   UNL     1       3.677   7.817  17.465  0.00  0.00    +0.000 OA
ATOM     30  H   UNL     1       4.293   7.101  17.244  0.00  0.00    +0.000 HD
ENDBRANCH   6  29
TORSDOF 7
ENDMDL
MODEL 2
REMARK VINA RESULT:      -7.5      0.878      1.263
REMARK  Name = 
REMARK  9 active torsions:
REMARK  status: ('A' for Active; 'I' for Inactive)
REMARK    1  A    between atoms: C_2  and  C_3
REMARK    2  A    between atoms: C_2  and  C_4
REMARK    3  A    between atoms: C_7  and  C_8
REMARK    4  A    between atoms: C_10  and  C_11
REMARK    5  A    between atoms: C_12  and  O_13
REMARK    6  A    between atoms: C_15  and  C_16
REMARK    7  A    between atoms: C_17  and  C_18
REMARK    8  A    between atoms: C_23  and  O_24
REMARK    9  A    between atoms: C_26  and  O_27
REMARK                            x       y       z     vdW  Elec       q    Type
REMARK                         _______ _______ _______ _____ _____    ______ ____
ROOT
ATOM      1  C   UNL     1       3.266   6.412  19.337  0.00  0.00    +0.000 A 
ATOM      2  C   UNL     1       2.393   6.266  20.439  0.00  0.00    +0.000 A 
ATOM      3  C   UNL     1       1.373   7.188  20.730  0.00  0.00    +0.000 A 
ATOM      4  C   UNL     1       1.174   8.302  19.915  0.00  0.00    +0.000 A 
ATOM      5  C   UNL     1       1.941   8.414  18.768  0.00  0.00    +0.000 A 
ATOM      6  C   UNL     1       2.977   7.513  18.512  0.00  0.00    +0.000 A 
ENDROOT
BRANCH   1  13
ATOM      7  C   UNL     1       5.427   5.722  17.914  0.00  0.00    +0.000 C 
ATOM      8  C   UNL     1       4.811   5.209  16.589  0.00  0.00    +0.000 C 
ATOM      9  C   UNL     1       4.025   3.901  16.637  0.00  0.00    +0.000 C 
ATOM     10  C   UNL     1       3.518   3.372  17.986  0.00  0.00    +0.000 C 
ATOM     11  C   UNL     1       1.991   3.369  18.123  0.00  0.00    +0.000 C 
ATOM     12  C   UNL     1       4.181   3.968  19.229  0.00  0.00    +0.000 C 
ATOM     13  C   UNL     1       4.491   5.480  19.151  0.00  0.00    +0.000 C 
BRANCH   7  15
ATOM     14  C   UNL     1       7.551   4.505  17.162  0.00  0.00    +0.000 C 
ATOM     15  C   UNL     1       6.871   5.197  18.092  0.00  0.00    +0.000 C 
ATOM     16  C   UNL     1       7.582   5.626  19.352  0.00  0.00    +0.000 C 
ENDBRANCH   7  15
ENDBRANCH   1  13
BRANCH   2  17
ATOM     17  O   UNL     1       2.496   5.212  21.304  0.00  0.00    +0.000 OA
ATOM     18  H   UNL     1       1.994   4.478  20.910  0.00  0.00    +0.000 HD
ENDBRANCH   2  17
BRANCH   4  19
ATOM     19  C   UNL     1       0.191   9.329  20.281  0.00  0.00    +0.000 C 
ATOM     20  C   UNL     1       0.390  10.261  21.237  0.00  0.00    +0.000 C 
BRANCH  20  21
ATOM     21  C   UNL     1      -0.655  11.207  21.653  0.00  0.00    +0.000 A 
ATOM     22  C   UNL     1      -1.267  11.065  22.905  0.00  0.00    +0.000 A 
ATOM     23  C   UNL     1      -2.237  11.958  23.343  0.00  0.00    +0.000 A 
ATOM     24  C   UNL     1      -2.599  13.033  22.538  0.00  0.00    +0.000 A 
ATOM     25  C   UNL     1      -1.982  13.217  21.297  0.00  0.00    +0.000 A 
ATOM     26  C   UNL     1      -1.014  12.314  20.859  0.00  0.00    +0.000 A 
BRANCH  26  27
ATOM     27  O   UNL     1      -0.416  12.500  19.644  0.00  0.00    +0.000 OA
ATOM     28  H   UNL     1       0.044  13.357  19.656  0.00  0.00    +0.000 HD
ENDBRANCH  26  27
ENDBRANCH  20  21
ENDBRANCH   4  19
BRANCH   6  29
ATOM     29  O   UNL     1       3.735   7.828  17.427  0.00  0.00    +0.000 OA
ATOM     30  H   UNL     1       4.432   7.163  17.315  0.00  0.00    +0.000 HD
ENDBRANCH   6  29
TORSDOF 7
ENDMDL
MODEL 3
REMARK VINA RESULT:      -7.4      7.595     11.214
REMARK  Name = 
REMARK  9 active torsions:
REMARK  status: ('A' for Active; 'I' for Inactive)
REMARK    1  A    between atoms: C_2  and  C_3
REMARK    2  A    between atoms: C_2  and  C_4
REMARK    3  A    between atoms: C_7  and  C_8
REMARK    4  A    between atoms: C_10  and  C_11
REMARK    5  A    between atoms: C_12  and  O_13
REMARK    6  A    between atoms: C_15  and  C_16
REMARK    7  A    between atoms: C_17  and  C_18
REMARK    8  A    between atoms: C_23  and  O_24
REMARK    9  A    between atoms: C_26  and  O_27
REMARK                            x       y       z     vdW  Elec       q    Type
REMARK                         _______ _______ _______ _____ _____    ______ ____
ROOT
ATOM      1  C   UNL     1       9.654  13.056  19.383  0.00  0.00    +0.000 A 
ATOM      2  C   UNL     1       9.987  11.811  19.963  0.00  0.00    +0.000 A 
ATOM      3  C   UNL     1       9.547  10.585  19.439  0.00  0.00    +0.000 A 
ATOM      4  C   UNL     1       8.755  10.549  18.291  0.00  0.00    +0.000 A 
ATOM      5  C   UNL     1       8.504  11.745  17.639  0.00  0.00    +0.000 A 
ATOM      6  C   UNL     1       8.914  12.960  18.192  0.00  0.00    +0.000 A 
ENDROOT
BRANCH   1  13
ATOM      7  C   UNL     1       9.052  15.622  19.861  0.00  0.00    +0.000 C 
ATOM      8  C   UNL     1       9.251  16.281  18.473  0.00  0.00    +0.000 C 
ATOM      9  C   UNL     1      10.677  16.378  17.938  0.00  0.00    +0.000 C 
ATOM     10  C   UNL     1      11.775  15.490  18.541  0.00  0.00    +0.000 C 
ATOM     11  C   UNL     1      12.332  14.439  17.575  0.00  0.00    +0.000 C 
ATOM     12  C   UNL     1      11.458  14.871  19.904  0.00  0.00    +0.000 C 
ATOM     13  C   UNL     1      10.001  14.393  20.089  0.00  0.00    +0.000 C 
BRANCH   7  15
ATOM     14  C   UNL     1       9.243  16.400  22.292  0.00  0.00    +0.000 C 
ATOM     15  C   UNL     1       9.094  16.681  20.987  0.00  0.00    +0.000 C 
ATOM     16  C   UNL     1       9.104  18.123  20.541  0.00  0.00    +0.000 C 
ENDBRANCH   7  15
ENDBRANCH   1  13
BRANCH   2  17
ATOM     17  O   UNL     1      10.758  11.726  21.090  0.00  0.00    +0.000 OA
ATOM     18  H   UNL     1      11.649  11.465  20.799  0.00  0.00    +0.000 HD
ENDBRANCH   2  17
BRANCH   4  19
ATOM     19  C   UNL     1       8.194   9.282  17.809  0.00  0.00    +0.000 C 
ATOM     20  C   UNL     1       8.175   8.141  18.528  0.00  0.00    +0.000 C 
BRANCH  20  21
ATOM     21  C   UNL     1       7.703   6.862  17.975  0.00  0.00    +0.000 A 
ATOM     22  C   UNL     1       7.210   6.809  16.665  0.00  0.00    +0.000 A 
ATOM     23  C   UNL     1       6.784   5.613  16.099  0.00  0.00    +0.000 A 
ATOM     24  C   UNL     1       6.866   4.435  16.834  0.00  0.00    +0.000 A 
ATOM     25  C   UNL     1       7.382   4.454  18.133  0.00  0.00    +0.000 A 
ATOM     26  C   UNL     1       7.802   5.658  18.698  0.00  0.00    +0.000 A 
BRANCH  26  27
ATOM     27  O   UNL     1       8.306   5.669  19.969  0.00  0.00    +0.000 OA
ATOM     28  H   UNL     1       7.964   4.890  20.441  0.00  0.00    +0.000 HD
ENDBRANCH  26  27
ENDBRANCH  20  21
ENDBRANCH   4  19
BRANCH   6  29
ATOM     29  O   UNL     1       8.475  14.056  17.518  0.00  0.00    +0.000 OA
ATOM     30  H   UNL     1       8.423  13.855  16.570  0.00  0.00    +0.000 HD
ENDBRANCH   6  29
TORSDOF 7
ENDMDL
MODEL 4
REMARK VINA RESULT:      -7.4      2.153      9.077
REMARK  Name = 
REMARK  9 active torsions:
REMARK  status: ('A' for Active; 'I' for Inactive)
REMARK    1  A    between atoms: C_2  and  C_3
REMARK    2  A    between atoms: C_2  and  C_4
REMARK    3  A    between atoms: C_7  and  C_8
REMARK    4  A    between atoms: C_10  and  C_11
REMARK    5  A    between atoms: C_12  and  O_13
REMARK    6  A    between atoms: C_15  and  C_16
REMARK    7  A    between atoms: C_17  and  C_18
REMARK    8  A    between atoms: C_23  and  O_24
REMARK    9  A    between atoms: C_26  and  O_27
REMARK                            x       y       z     vdW  Elec       q    Type
REMARK                         _______ _______ _______ _____ _____    ______ ____
ROOT
ATOM      1  C   UNL     1       0.689  10.756  20.483  0.00  0.00    +0.000 A 
ATOM      2  C   UNL     1       1.040  10.206  19.229  0.00  0.00    +0.000 A 
ATOM      3  C   UNL     1       1.476   8.880  19.074  0.00  0.00    +0.000 A 
ATOM      4  C   UNL     1       1.568   8.032  20.178  0.00  0.00    +0.000 A 
ATOM      5  C   UNL     1       1.126   8.508  21.401  0.00  0.00    +0.000 A 
ATOM      6  C   UNL     1       0.733   9.840  21.549  0.00  0.00    +0.000 A 
ENDROOT
BRANCH   1  13
ATOM      7  C   UNL     1      -0.194  12.769  22.014  0.00  0.00    +0.000 C 
ATOM      8  C   UNL     1      -1.697  12.435  22.180  0.00  0.00    +0.000 C 
ATOM      9  C   UNL     1      -2.586  12.554  20.945  0.00  0.00    +0.000 C 
ATOM     10  C   UNL     1      -1.945  12.579  19.549  0.00  0.00    +0.000 C 
ATOM     11  C   UNL     1      -2.274  11.355  18.688  0.00  0.00    +0.000 C 
ATOM     12  C   UNL     1      -0.449  12.895  19.508  0.00  0.00    +0.000 C 
ATOM     13  C   UNL     1       0.390  12.269  20.644  0.00  0.00    +0.000 C 
BRANCH   7  15
ATOM     14  C   UNL     1       1.131  14.954  21.854  0.00  0.00    +0.000 C 
ATOM     15  C   UNL     1       0.078  14.260  22.318  0.00  0.00    +0.000 C 
ATOM     16  C   UNL     1      -1.004  14.990  23.078  0.00  0.00    +0.000 C 
ENDBRANCH   7  15
ENDBRANCH   1  13
BRANCH   2  17
ATOM     17  O   UNL     1       0.987  10.946  18.080  0.00  0.00    +0.000 OA
ATOM     18  H   UNL     1       1.023  10.315  17.340  0.00  0.00    +0.000 HD
ENDBRANCH   2  17
BRANCH   4  19
ATOM     19  C   UNL     1       2.135   6.685  20.041  0.00  0.00    +0.000 C 
ATOM     20  C   UNL     1       2.376   6.083  18.858  0.00  0.00    +0.000 C 
BRANCH  20  21
ATOM     21  C   UNL     1       2.844   4.693  18.756  0.00  0.00    +0.000 A 
ATOM     22  C   UNL     1       3.951   4.273  19.506  0.00  0.00    +0.000 A 
ATOM     23  C   UNL     1       4.402   2.959  19.458  0.00  0.00    +0.000 A 
ATOM     24  C   UNL     1       3.734   2.029  18.669  0.00  0.00    +0.000 A 
ATOM     25  C   UNL     1       2.609   2.414  17.934  0.00  0.00    +0.000 A 
ATOM     26  C   UNL     1       2.164   3.734  17.981  0.00  0.00    +0.000 A 
BRANCH  26  27
ATOM     27  O   UNL     1       1.062   4.102  17.258  0.00  0.00    +0.000 OA
ATOM     28  H   UNL     1       0.406   3.387  17.315  0.00  0.00    +0.000 HD
ENDBRANCH  26  27
ENDBRANCH  20  21
ENDBRANCH   4  19
BRANCH   6  29
ATOM     29  O   UNL     1       0.462  10.203  22.831  0.00  0.00    +0.000 OA
ATOM     30  H   UNL     1       0.310  11.160  22.872  0.00  0.00    +0.000 HD
ENDBRANCH   6  29
TORSDOF 7
ENDMDL
MODEL 5
REMARK VINA RESULT:      -7.4      4.352      7.643
REMARK  Name = 
REMARK  9 active torsions:
REMARK  status: ('A' for Active; 'I' for Inactive)
REMARK    1  A    between atoms: C_2  and  C_3
REMARK    2  A    between atoms: C_2  and  C_4
REMARK    3  A    between atoms: C_7  and  C_8
REMARK    4  A    between atoms: C_10  and  C_11
REMARK    5  A    between atoms: C_12  and  O_13
REMARK    6  A    between atoms: C_15  and  C_16
REMARK    7  A    between atoms: C_17  and  C_18
REMARK    8  A    between atoms: C_23  and  O_24
REMARK    9  A    between atoms: C_26  and  O_27
REMARK                            x       y       z     vdW  Elec       q    Type
REMARK                         _______ _______ _______ _____ _____    ______ ____
ROOT
ATOM      1  C   UNL     1       5.916   5.451  18.507  0.00  0.00    +0.000 A 
ATOM      2  C   UNL     1       5.704   6.275  17.378  0.00  0.00    +0.000 A 
ATOM      3  C   UNL     1       6.539   7.359  17.059  0.00  0.00    +0.000 A 
ATOM      4  C   UNL     1       7.642   7.661  17.858  0.00  0.00    +0.000 A 
ATOM      5  C   UNL     1       7.938   6.806  18.907  0.00  0.00    +0.000 A 
ATOM      6  C   UNL     1       7.078   5.757  19.236  0.00  0.00    +0.000 A 
ENDROOT
BRANCH   1  13
ATOM      7  C   UNL     1       4.186   3.530  17.806  0.00  0.00    +0.000 C 
ATOM      8  C   UNL     1       3.093   4.319  17.044  0.00  0.00    +0.000 C 
ATOM      9  C   UNL     1       2.213   5.266  17.854  0.00  0.00    +0.000 C 
ATOM     10  C   UNL     1       2.674   5.724  19.246  0.00  0.00    +0.000 C 
ATOM     11  C   UNL     1       2.995   7.220  19.338  0.00  0.00    +0.000 C 
ATOM     12  C   UNL     1       3.776   4.884  19.893  0.00  0.00    +0.000 C 
ATOM     13  C   UNL     1       4.875   4.382  18.930  0.00  0.00    +0.000 C 
BRANCH   7  15
ATOM     14  C   UNL     1       4.325   1.307  19.070  0.00  0.00    +0.000 C 
ATOM     15  C   UNL     1       3.648   2.160  18.281  0.00  0.00    +0.000 C 
ATOM     16  C   UNL     1       2.213   1.852  17.930  0.00  0.00    +0.000 C 
ENDBRANCH   7  15
ENDBRANCH   1  13
BRANCH   2  17
ATOM     17  O   UNL     1       4.655   6.071  16.525  0.00  0.00    +0.000 OA
ATOM     18  H   UNL     1       3.961   5.622  17.039  0.00  0.00    +0.000 HD
ENDBRANCH   2  17
BRANCH   4  19
ATOM     19  C   UNL     1       8.446   8.861  17.599  0.00  0.00    +0.000 C 
ATOM     20  C   UNL     1       8.757   9.780  18.536  0.00  0.00    +0.000 C 
BRANCH  20  21
ATOM     21  C   UNL     1       9.474  11.025  18.219  0.00  0.00    +0.000 A 
ATOM     22  C   UNL     1      10.859  11.102  18.421  0.00  0.00    +0.000 A 
ATOM     23  C   UNL     1      11.574  12.251  18.105  0.00  0.00    +0.000 A 
ATOM     24  C   UNL     1      10.913  13.345  17.555  0.00  0.00    +0.000 A 
ATOM     25  C   UNL     1       9.537  13.283  17.314  0.00  0.00    +0.000 A 
ATOM     26  C   UNL     1       8.824  12.131  17.640  0.00  0.00    +0.000 A 
BRANCH  26  27
ATOM     27  O   UNL     1       7.478  12.079  17.402  0.00  0.00    +0.000 OA
ATOM     28  H   UNL     1       7.090  12.935  17.649  0.00  0.00    +0.000 HD
ENDBRANCH  26  27
ENDBRANCH  20  21
ENDBRANCH   4  19
BRANCH   6  29
ATOM     29  O   UNL     1       7.420   5.091  20.372  0.00  0.00    +0.000 OA
ATOM     30  H   UNL     1       8.353   5.258  20.577  0.00  0.00    +0.000 HD
ENDBRANCH   6  29
TORSDOF 7
ENDMDL
MODEL 6
REMARK VINA RESULT:      -7.3      1.824      9.357
REMARK  Name = 
REMARK  9 active torsions:
REMARK  status: ('A' for Active; 'I' for Inactive)
REMARK    1  A    between atoms: C_2  and  C_3
REMARK    2  A    between atoms: C_2  and  C_4
REMARK    3  A    between atoms: C_7  and  C_8
REMARK    4  A    between atoms: C_10  and  C_11
REMARK    5  A    between atoms: C_12  and  O_13
REMARK    6  A    between atoms: C_15  and  C_16
REMARK    7  A    between atoms: C_17  and  C_18
REMARK    8  A    between atoms: C_23  and  O_24
REMARK    9  A    between atoms: C_26  and  O_27
REMARK                            x       y       z     vdW  Elec       q    Type
REMARK                         _______ _______ _______ _____ _____    ______ ____
ROOT
ATOM      1  C   UNL     1       0.160  11.357  20.673  0.00  0.00    +0.000 A 
ATOM      2  C   UNL     1       0.502  11.067  19.333  0.00  0.00    +0.000 A 
ATOM      3  C   UNL     1       1.084   9.851  18.941  0.00  0.00    +0.000 A 
ATOM      4  C   UNL     1       1.342   8.855  19.883  0.00  0.00    +0.000 A 
ATOM      5  C   UNL     1       0.918   9.066  21.184  0.00  0.00    +0.000 A 
ATOM      6  C   UNL     1       0.377  10.295  21.568  0.00  0.00    +0.000 A 
ENDROOT
BRANCH   1  13
ATOM      7  C   UNL     1      -0.837  12.973  22.562  0.00  0.00    +0.000 C 
ATOM      8  C   UNL     1      -2.269  12.418  22.762  0.00  0.00    +0.000 C 
ATOM      9  C   UNL     1      -3.263  12.605  21.619  0.00  0.00    +0.000 C 
ATOM     10  C   UNL     1      -2.745  12.931  20.210  0.00  0.00    +0.000 C 
ATOM     11  C   UNL     1      -2.989  11.821  19.182  0.00  0.00    +0.000 C 
ATOM     12  C   UNL     1      -1.308  13.448  20.131  0.00  0.00    +0.000 C 
ATOM     13  C   UNL     1      -0.309  12.773  21.097  0.00  0.00    +0.000 C 
BRANCH   7  15
ATOM     14  C   UNL     1      -1.467  14.928  24.091  0.00  0.00    +0.000 C 
ATOM     15  C   UNL     1      -0.728  14.423  23.089  0.00  0.00    +0.000 C 
ATOM     16  C   UNL     1       0.390  15.257  22.510  0.00  0.00    +0.000 C 
ENDBRANCH   7  15
ENDBRANCH   1  13
BRANCH   2  17
ATOM     17  O   UNL     1       0.293  11.970  18.326  0.00  0.00    +0.000 OA
ATOM     18  H   UNL     1       0.522  11.520  17.495  0.00  0.00    +0.000 HD
ENDBRANCH   2  17
BRANCH   4  19
ATOM     19  C   UNL     1       2.057   7.632  19.501  0.00  0.00    +0.000 C 
ATOM     20  C   UNL     1       2.321   7.276  18.226  0.00  0.00    +0.000 C 
BRANCH  20  21
ATOM     21  C   UNL     1       2.945   5.993  17.873  0.00  0.00    +0.000 A 
ATOM     22  C   UNL     1       2.187   4.815  17.908  0.00  0.00    +0.000 A 
ATOM     23  C   UNL     1       2.736   3.589  17.551  0.00  0.00    +0.000 A 
ATOM     24  C   UNL     1       4.059   3.523  17.128  0.00  0.00    +0.000 A 
ATOM     25  C   UNL     1       4.830   4.687  17.054  0.00  0.00    +0.000 A 
ATOM     26  C   UNL     1       4.276   5.914  17.419  0.00  0.00    +0.000 A 
BRANCH  26  27
ATOM     27  O   UNL     1       5.037   7.048  17.345  0.00  0.00    +0.000 OA
ATOM     28  H   UNL     1       4.690   7.603  16.627  0.00  0.00    +0.000 HD
ENDBRANCH  26  27
ENDBRANCH  20  21
ENDBRANCH   4  19
BRANCH   6  29
ATOM     29  O   UNL     1       0.139  10.408  22.902  0.00  0.00    +0.000 OA
ATOM     30  H   UNL     1      -0.801  10.600  23.048  0.00  0.00    +0.000 HD
ENDBRANCH   6  29
TORSDOF 7
ENDMDL
MODEL 7
REMARK VINA RESULT:      -7.3      7.636     11.087
REMARK  Name = 
REMARK  9 active torsions:
REMARK  status: ('A' for Active; 'I' for Inactive)
REMARK    1  A    between atoms: C_2  and  C_3
REMARK    2  A    between atoms: C_2  and  C_4
REMARK    3  A    between atoms: C_7  and  C_8
REMARK    4  A    between atoms: C_10  and  C_11
REMARK    5  A    between atoms: C_12  and  O_13
REMARK    6  A    between atoms: C_15  and  C_16
REMARK    7  A    between atoms: C_17  and  C_18
REMARK    8  A    between atoms: C_23  and  O_24
REMARK    9  A    between atoms: C_26  and  O_27
REMARK                            x       y       z     vdW  Elec       q    Type
REMARK                         _______ _______ _______ _____ _____    ______ ____
ROOT
ATOM      1  C   UNL     1       9.768  13.346  18.206  0.00  0.00    +0.000 A 
ATOM      2  C   UNL     1      10.617  12.352  18.742  0.00  0.00    +0.000 A 
ATOM      3  C   UNL     1      10.266  10.993  18.789  0.00  0.00    +0.000 A 
ATOM      4  C   UNL     1       9.040  10.562  18.283  0.00  0.00    +0.000 A 
ATOM      5  C   UNL     1       8.234  11.494  17.652  0.00  0.00    +0.000 A 
ATOM      6  C   UNL     1       8.577  12.848  17.648  0.00  0.00    +0.000 A 
ENDROOT
BRANCH   1  13
ATOM      7  C   UNL     1      11.336  15.264  19.224  0.00  0.00    +0.000 C 
ATOM      8  C   UNL     1      11.032  15.180  20.740  0.00  0.00    +0.000 C 
ATOM      9  C   UNL     1       9.645  15.616  21.205  0.00  0.00    +0.000 C 
ATOM     10  C   UNL     1       8.499  15.711  20.187  0.00  0.00    +0.000 C 
ATOM     11  C   UNL     1       7.379  14.688  20.407  0.00  0.00    +0.000 C 
ATOM     12  C   UNL     1       8.917  15.761  18.716  0.00  0.00    +0.000 C 
ATOM     13  C   UNL     1      10.107  14.853  18.337  0.00  0.00    +0.000 C 
BRANCH   7  15
ATOM     14  C   UNL     1      12.072  17.108  17.609  0.00  0.00    +0.000 C 
ATOM     15  C   UNL     1      11.960  16.630  18.860  0.00  0.00    +0.000 C 
ATOM     16  C   UNL     1      12.333  17.520  20.021  0.00  0.00    +0.000 C 
ENDBRANCH   7  15
ENDBRANCH   1  13
BRANCH   2  17
ATOM     17  O   UNL     1      11.843  12.660  19.265  0.00  0.00    +0.000 OA
ATOM     18  H   UNL     1      12.231  13.340  18.687  0.00  0.00    +0.000 HD
ENDBRANCH   2  17
BRANCH   4  19
ATOM     19  C   UNL     1       8.617   9.165  18.436  0.00  0.00    +0.000 C 
ATOM     20  C   UNL     1       7.857   8.501  17.540  0.00  0.00    +0.000 C 
BRANCH  20  21
ATOM     21  C   UNL     1       7.363   7.137  17.775  0.00  0.00    +0.000 A 
ATOM     22  C   UNL     1       7.892   6.375  18.825  0.00  0.00    +0.000 A 
ATOM     23  C   UNL     1       7.427   5.093  19.096  0.00  0.00    +0.000 A 
ATOM     24  C   UNL     1       6.401   4.555  18.327  0.00  0.00    +0.000 A 
ATOM     25  C   UNL     1       5.834   5.305  17.292  0.00  0.00    +0.000 A 
ATOM     26  C   UNL     1       6.308   6.588  17.021  0.00  0.00    +0.000 A 
BRANCH  26  27
ATOM     27  O   UNL     1       5.749   7.315  16.007  0.00  0.00    +0.000 OA
ATOM     28  H   UNL     1       5.326   6.699  15.385  0.00  0.00    +0.000 HD
ENDBRANCH  26  27
ENDBRANCH  20  21
ENDBRANCH   4  19
BRANCH   6  29
ATOM     29  O   UNL     1       7.625  13.664  17.120  0.00  0.00    +0.000 OA
ATOM     30  H   UNL     1       7.311  13.293  16.280  0.00  0.00    +0.000 HD
ENDBRANCH   6  29
TORSDOF 7
ENDMDL
MODEL 8
REMARK VINA RESULT:      -7.3      1.132      1.132
REMARK  Name = 
REMARK  9 active torsions:
REMARK  status: ('A' for Active; 'I' for Inactive)
REMARK    1  A    between atoms: C_2  and  C_3
REMARK    2  A    between atoms: C_2  and  C_4
REMARK    3  A    between atoms: C_7  and  C_8
REMARK    4  A    between atoms: C_10  and  C_11
REMARK    5  A    between atoms: C_12  and  O_13
REMARK    6  A    between atoms: C_15  and  C_16
REMARK    7  A    between atoms: C_17  and  C_18
REMARK    8  A    between atoms: C_23  and  O_24
REMARK    9  A    between atoms: C_26  and  O_27
REMARK                            x       y       z     vdW  Elec       q    Type
REMARK                         _______ _______ _______ _____ _____    ______ ____
ROOT
ATOM      1  C   UNL     1       3.301   6.585  19.132  0.00  0.00    +0.000 A 
ATOM      2  C   UNL     1       2.411   6.567  20.230  0.00  0.00    +0.000 A 
ATOM      3  C   UNL     1       1.414   7.538  20.418  0.00  0.00    +0.000 A 
ATOM      4  C   UNL     1       1.254   8.575  19.498  0.00  0.00    +0.000 A 
ATOM      5  C   UNL     1       2.038   8.557  18.357  0.00  0.00    +0.000 A 
ATOM      6  C   UNL     1       3.052   7.609  18.202  0.00  0.00    +0.000 A 
ENDROOT
BRANCH   1  13
ATOM      7  C   UNL     1       5.489   5.740  17.838  0.00  0.00    +0.000 C 
ATOM      8  C   UNL     1       4.904   5.158  16.528  0.00  0.00    +0.000 C 
ATOM      9  C   UNL     1       4.076   3.879  16.633  0.00  0.00    +0.000 C 
ATOM     10  C   UNL     1       3.506   3.455  17.994  0.00  0.00    +0.000 C 
ATOM     11  C   UNL     1       1.976   3.506  18.074  0.00  0.00    +0.000 C 
ATOM     12  C   UNL     1       4.143   4.114  19.219  0.00  0.00    +0.000 C 
ATOM     13  C   UNL     1       4.502   5.607  19.053  0.00  0.00    +0.000 C 
BRANCH   7  15
ATOM     14  C   UNL     1       7.622   4.465  17.224  0.00  0.00    +0.000 C 
ATOM     15  C   UNL     1       6.908   5.187  18.104  0.00  0.00    +0.000 C 
ATOM     16  C   UNL     1       7.559   5.622  19.395  0.00  0.00    +0.000 C 
ENDBRANCH   7  15
ENDBRANCH   1  13
BRANCH   2  17
ATOM     17  O   UNL     1       2.475   5.597  21.192  0.00  0.00    +0.000 OA
ATOM     18  H   UNL     1       1.903   4.870  20.894  0.00  0.00    +0.000 HD
ENDBRANCH   2  17
BRANCH   4  19
ATOM     19  C   UNL     1       0.296   9.657  19.751  0.00  0.00    +0.000 C 
ATOM     20  C   UNL     1       0.642  10.950  19.924  0.00  0.00    +0.000 C 
BRANCH  20  21
ATOM     21  C   UNL     1      -0.332  11.992  20.281  0.00  0.00    +0.000 A 
ATOM     22  C   UNL     1      -1.666  11.871  19.867  0.00  0.00    +0.000 A 
ATOM     23  C   UNL     1      -2.620  12.821  20.212  0.00  0.00    +0.000 A 
ATOM     24  C   UNL     1      -2.259  13.905  21.003  0.00  0.00    +0.000 A 
ATOM     25  C   UNL     1      -0.942  14.034  21.457  0.00  0.00    +0.000 A 
ATOM     26  C   UNL     1       0.013  13.082  21.102  0.00  0.00    +0.000 A 
BRANCH  26  27
ATOM     27  O   UNL     1       1.298  13.216  21.549  0.00  0.00    +0.000 OA
ATOM     28  H   UNL     1       1.706  13.970  21.090  0.00  0.00    +0.000 HD
ENDBRANCH  26  27
ENDBRANCH  20  21
ENDBRANCH   4  19
BRANCH   6  29
ATOM     29  O   UNL     1       3.831   7.800  17.104  0.00  0.00    +0.000 OA
ATOM     30  H   UNL     1       4.682   7.349  17.228  0.00  0.00    +0.000 HD
ENDBRANCH   6  29
TORSDOF 7
ENDMDL
MODEL 9
REMARK VINA RESULT:      -7.2      2.195      8.756
REMARK  Name = 
REMARK  9 active torsions:
REMARK  status: ('A' for Active; 'I' for Inactive)
REMARK    1  A    between atoms: C_2  and  C_3
REMARK    2  A    between atoms: C_2  and  C_4
REMARK    3  A    between atoms: C_7  and  C_8
REMARK    4  A    between atoms: C_10  and  C_11
REMARK    5  A    between atoms: C_12  and  O_13
REMARK    6  A    between atoms: C_15  and  C_16
REMARK    7  A    between atoms: C_17  and  C_18
REMARK    8  A    between atoms: C_23  and  O_24
REMARK    9  A    between atoms: C_26  and  O_27
REMARK                            x       y       z     vdW  Elec       q    Type
REMARK                         _______ _______ _______ _____ _____    ______ ____
ROOT
ATOM      1  C   UNL     1       1.160  10.622  19.824  0.00  0.00    +0.000 A 
ATOM      2  C   UNL     1       1.055   9.787  20.959  0.00  0.00    +0.000 A 
ATOM      3  C   UNL     1       1.381   8.421  20.933  0.00  0.00    +0.000 A 
ATOM      4  C   UNL     1       1.843   7.827  19.758  0.00  0.00    +0.000 A 
ATOM      5  C   UNL     1       2.061   8.642  18.660  0.00  0.00    +0.000 A 
ATOM      6  C   UNL     1       1.695   9.989  18.688  0.00  0.00    +0.000 A 
ENDROOT
BRANCH   1  13
ATOM      7  C   UNL     1      -0.183  12.556  21.101  0.00  0.00    +0.000 C 
ATOM      8  C   UNL     1      -1.627  11.999  21.138  0.00  0.00    +0.000 C 
ATOM      9  C   UNL     1      -2.379  11.904  19.814  0.00  0.00    +0.000 C 
ATOM     10  C   UNL     1      -1.597  11.948  18.493  0.00  0.00    +0.000 C 
ATOM     11  C   UNL     1      -1.638  10.639  17.697  0.00  0.00    +0.000 C 
ATOM     12  C   UNL     1      -0.171  12.494  18.580  0.00  0.00    +0.000 C 
ATOM     13  C   UNL     1       0.620  12.075  19.840  0.00  0.00    +0.000 C 
BRANCH   7  15
ATOM     14  C   UNL     1      -1.273  14.833  21.527  0.00  0.00    +0.000 C 
ATOM     15  C   UNL     1      -0.175  14.087  21.319  0.00  0.00    +0.000 C 
ATOM     16  C   UNL     1       1.184  14.733  21.438  0.00  0.00    +0.000 C 
ENDBRANCH   7  15
ENDBRANCH   1  13
BRANCH   2  17
ATOM     17  O   UNL     1       0.613  10.263  22.163  0.00  0.00    +0.000 OA
ATOM     18  H   UNL     1       1.396  10.598  22.634  0.00  0.00    +0.000 HD
ENDBRANCH   2  17
BRANCH   4  19
ATOM     19  C   UNL     1       2.071   6.378  19.693  0.00  0.00    +0.000 C 
ATOM     20  C   UNL     1       2.951   5.788  18.859  0.00  0.00    +0.000 C 
BRANCH  20  21
ATOM     21  C   UNL     1       3.078   4.327  18.744  0.00  0.00    +0.000 A 
ATOM     22  C   UNL     1       4.057   3.651  19.484  0.00  0.00    +0.000 A 
ATOM     23  C   UNL     1       4.186   2.269  19.423  0.00  0.00    +0.000 A 
ATOM     24  C   UNL     1       3.315   1.530  18.630  0.00  0.00    +0.000 A 
ATOM     25  C   UNL     1       2.309   2.175  17.904  0.00  0.00    +0.000 A 
ATOM     26  C   UNL     1       2.189   3.563  17.964  0.00  0.00    +0.000 A 
BRANCH  26  27
ATOM     27  O   UNL     1       1.203   4.187  17.250  0.00  0.00    +0.000 OA
ATOM     28  H   UNL     1       0.580   3.512  16.934  0.00  0.00    +0.000 HD
ENDBRANCH  26  27
ENDBRANCH  20  21
ENDBRANCH   4  19
BRANCH   6  29
ATOM     29  O   UNL     1       1.834  10.630  17.497  0.00  0.00    +0.000 OA
ATOM     30  H   UNL     1       1.445  10.089  16.791  0.00  0.00    +0.000 HD
ENDBRANCH   6  29
TORSDOF 7
ENDMDL
