MODEL 1
REMARK VINA RESULT:      -8.0      0.000      0.000
REMARK  Name = 
REMARK  10 active torsions:
REMARK  status: ('A' for Active; 'I' for Inactive)
REMARK    1  A    between atoms: C_1  and  C_2
REMARK    2  A    between atoms: C_2  and  C_3
REMARK    3  A    between atoms: C_3  and  C_4
REMARK    4  A    between atoms: C_3  and  C_5
REMARK    5  A    between atoms: N_11  and  C_12
REMARK    6  A    between atoms: C_12  and  C_13
REMARK    7  A    between atoms: C_17  and  C_18
REMARK    8  A    between atoms: C_23  and  C_24
REMARK    9  A    between atoms: C_24  and  C_25
REMARK   10  A    between atoms: C_25  and  C_26
REMARK                            x       y       z     vdW  Elec       q    Type
REMARK                         _______ _______ _______ _____ _____    ______ ____
ROOT
ATOM      1  C   UNL     1       0.245  10.270  20.948  0.00  0.00    +0.000 C 
ATOM      2  O   UNL     1      -0.163  10.119  22.097  0.00  0.00    +0.000 OA
ATOM      3  N   UNL     1       1.108   9.344  20.338  0.00  0.00    +0.000 N 
ATOM      4  C   UNL     1       1.786   9.586  19.067  0.00  0.00    +0.000 C 
ATOM      5  C   UNL     1       2.237   8.372  18.245  0.00  0.00    +0.000 C 
ATOM      6  O   UNL     1       2.620   8.557  17.093  0.00  0.00    +0.000 OA
ATOM      7  N   UNL     1       2.258   7.117  18.854  0.00  0.00    +0.000 N 
ATOM      8  C   UNL     1       1.449   6.919  20.095  0.00  0.00    +0.000 C 
ATOM      9  C   UNL     1       1.561   8.147  21.041  0.00  0.00    +0.000 C 
ENDROOT
BRANCH   1  10
ATOM     10  C   UNL     1      -0.268  11.418  20.048  0.00  0.00    +0.000 C 
ATOM     11  C   UNL     1      -1.791  11.307  19.932  0.00  0.00    +0.000 C 
BRANCH  10  13
ATOM     12  C   UNL     1       1.662  13.179  20.320  0.00  0.00    +0.000 C 
ATOM     13  C   UNL     1       0.179  12.852  20.387  0.00  0.00    +0.000 C 
ENDBRANCH  10  13
ENDBRANCH   1  10
BRANCH   7  14
ATOM     14  C   UNL     1       2.544   5.987  17.951  0.00  0.00    +0.000 C 
BRANCH  14  15
ATOM     15  C   UNL     1       4.016   5.638  17.851  0.00  0.00    +0.000 A 
ATOM     16  C   UNL     1       4.842   5.681  18.985  0.00  0.00    +0.000 A 
ATOM     17  C   UNL     1       6.196   5.350  18.902  0.00  0.00    +0.000 A 
ATOM     18  C   UNL     1       6.744   4.949  17.686  0.00  0.00    +0.000 A 
ATOM     19  C   UNL     1       5.944   4.891  16.536  0.00  0.00    +0.000 A 
ATOM     20  C   UNL     1       4.588   5.264  16.626  0.00  0.00    +0.000 A 
BRANCH  19  21
ATOM     21  C   UNL     1       6.501   4.393  15.225  0.00  0.00    +0.000 C 
ATOM     22  F   UNL     1       5.959   5.003  14.133  0.00  0.00    +0.000 F 
ATOM     23  F   UNL     1       7.846   4.594  15.130  0.00  0.00    +0.000 F 
ATOM     24  F   UNL     1       6.309   3.059  15.041  0.00  0.00    +0.000 F 
ENDBRANCH  19  21
ENDBRANCH  14  15
ENDBRANCH   7  14
BRANCH   8  25
ATOM     25  C   UNL     1       1.785   5.614  20.826  0.00  0.00    +0.000 C 
BRANCH  25  26
ATOM     26  C   UNL     1       0.894   4.426  20.459  0.00  0.00    +0.000 C 
BRANCH  26  27
ATOM     27  C   UNL     1       1.758   3.393  19.784  0.00  0.00    +0.000 A 
ATOM     28  C   UNL     1       2.971   3.020  20.378  0.00  0.00    +0.000 A 
ATOM     29  C   UNL     1       3.855   2.187  19.702  0.00  0.00    +0.000 A 
ATOM     30  C   UNL     1       3.537   1.718  18.428  0.00  0.00    +0.000 A 
ATOM     31  C   UNL     1       2.325   2.079  17.833  0.00  0.00    +0.000 A 
ATOM     32  C   UNL     1       1.435   2.913  18.509  0.00  0.00    +0.000 A 
ENDBRANCH  26  27
ENDBRANCH  25  26
ENDBRANCH   8  25
TORSDOF 8
ENDMDL
MODEL 2
REMARK VINA RESULT:      -7.9      0.527      1.223
REMARK  Name = 
REMARK  10 active torsions:
REMARK  status: ('A' for Active; 'I' for Inactive)
REMARK    1  A    between atoms: C_1  and  C_2
REMARK    2  A    between atoms: C_2  and  C_3
REMARK    3  A    between atoms: C_3  and  C_4
REMARK    4  A    between atoms: C_3  and  C_5
REMARK    5  A    between atoms: N_11  and  C_12
REMARK    6  A    between atoms: C_12  and  C_13
REMARK    7  A    between atoms: C_17  and  C_18
REMARK    8  A    between atoms: C_23  and  C_24
REMARK    9  A    between atoms: C_24  and  C_25
REMARK   10  A    between atoms: C_25  and  C_26
REMARK                            x       y       z     vdW  Elec       q    Type
REMARK                         _______ _______ _______ _____ _____    ______ ____
ROOT
ATOM      1  C   UNL     1       0.073  10.010  21.503  0.00  0.00    +0.000 C 
ATOM      2  O   UNL     1      -0.247   9.738  22.657  0.00  0.00    +0.000 OA
ATOM      3  N   UNL     1       0.946   9.197  20.761  0.00  0.00    +0.000 N 
ATOM      4  C   UNL     1       1.521   9.588  19.477  0.00  0.00    +0.000 C 
ATOM      5  C   UNL     1       1.987   8.479  18.525  0.00  0.00    +0.000 C 
ATOM      6  O   UNL     1       2.279   8.785  17.373  0.00  0.00    +0.000 OA
ATOM      7  N   UNL     1       2.123   7.181  19.019  0.00  0.00    +0.000 N 
ATOM      8  C   UNL     1       1.413   6.828  20.285  0.00  0.00    +0.000 C 
ATOM      9  C   UNL     1       1.516   7.977  21.327  0.00  0.00    +0.000 C 
ENDROOT
BRANCH   1  10
ATOM     10  C   UNL     1      -0.567  11.194  20.741  0.00  0.00    +0.000 C 
ATOM     11  C   UNL     1       0.434  12.352  20.705  0.00  0.00    +0.000 C 
BRANCH  10  13
ATOM     12  C   UNL     1      -1.326  12.077  18.386  0.00  0.00    +0.000 C 
ATOM     13  C   UNL     1      -1.172  10.914  19.353  0.00  0.00    +0.000 C 
ENDBRANCH  10  13
ENDBRANCH   1  10
BRANCH   7  14
ATOM     14  C   UNL     1       2.413   6.152  18.004  0.00  0.00    +0.000 C 
BRANCH  14  15
ATOM     15  C   UNL     1       3.877   5.765  17.924  0.00  0.00    +0.000 A 
ATOM     16  C   UNL     1       4.669   5.711  19.082  0.00  0.00    +0.000 A 
ATOM     17  C   UNL     1       6.015   5.344  19.016  0.00  0.00    +0.000 A 
ATOM     18  C   UNL     1       6.588   5.004  17.793  0.00  0.00    +0.000 A 
ATOM     19  C   UNL     1       5.822   5.042  16.620  0.00  0.00    +0.000 A 
ATOM     20  C   UNL     1       4.476   5.451  16.694  0.00  0.00    +0.000 A 
BRANCH  19  21
ATOM     21  C   UNL     1       6.404   4.611  15.297  0.00  0.00    +0.000 C 
ATOM     22  F   UNL     1       6.760   3.296  15.257  0.00  0.00    +0.000 F 
ATOM     23  F   UNL     1       5.526   4.787  14.268  0.00  0.00    +0.000 F 
ATOM     24  F   UNL     1       7.521   5.310  14.956  0.00  0.00    +0.000 F 
ENDBRANCH  19  21
ENDBRANCH  14  15
ENDBRANCH   7  14
BRANCH   8  25
ATOM     25  C   UNL     1       1.874   5.491  20.876  0.00  0.00    +0.000 C 
BRANCH  25  26
ATOM     26  C   UNL     1       1.001   4.291  20.507  0.00  0.00    +0.000 C 
BRANCH  26  27
ATOM     27  C   UNL     1       1.857   3.316  19.742  0.00  0.00    +0.000 A 
ATOM     28  C   UNL     1       3.070   2.888  20.295  0.00  0.00    +0.000 A 
ATOM     29  C   UNL     1       3.949   2.112  19.546  0.00  0.00    +0.000 A 
ATOM     30  C   UNL     1       3.623   1.755  18.239  0.00  0.00    +0.000 A 
ATOM     31  C   UNL     1       2.409   2.171  17.683  0.00  0.00    +0.000 A 
ATOM     32  C   UNL     1       1.526   2.948  18.432  0.00  0.00    +0.000 A 
ENDBRANCH  26  27
ENDBRANCH  25  26
ENDBRANCH   8  25
TORSDOF 8
ENDMDL
MODEL 3
REMARK VINA RESULT:      -7.6      1.648      2.149
REMARK  Name = 
REMARK  10 active torsions:
REMARK  status: ('A' for Active; 'I' for Inactive)
REMARK    1  A    between atoms: C_1  and  C_2
REMARK    2  A    between atoms: C_2  and  C_3
REMARK    3  A    between atoms: C_3  and  C_4
REMARK    4  A    between atoms: C_3  and  C_5
REMARK    5  A    between atoms: N_11  and  C_12
REMARK    6  A    between atoms: C_12  and  C_13
REMARK    7  A    between atoms: C_17  and  C_18
REMARK    8  A    between atoms: C_23  and  C_24
REMARK    9  A    between atoms: C_24  and  C_25
REMARK   10  A    between atoms: C_25  and  C_26
REMARK                            x       y       z     vdW  Elec       q    Type
REMARK                         _______ _______ _______ _____ _____    ______ ____
ROOT
ATOM      1  C   UNL     1       0.404  10.088  20.505  0.00  0.00    +0.000 C 
ATOM      2  O   UNL     1      -0.008  10.021  21.660  0.00  0.00    +0.000 OA
ATOM      3  N   UNL     1       1.300   9.142  19.978  0.00  0.00    +0.000 N 
ATOM      4  C   UNL     1       1.979   9.299  18.695  0.00  0.00    +0.000 C 
ATOM      5  C   UNL     1       2.475   8.035  17.980  0.00  0.00    +0.000 C 
ATOM      6  O   UNL     1       2.861   8.136  16.819  0.00  0.00    +0.000 OA
ATOM      7  N   UNL     1       2.531   6.837  18.692  0.00  0.00    +0.000 N 
ATOM      8  C   UNL     1       1.719   6.717  19.941  0.00  0.00    +0.000 C 
ATOM      9  C   UNL     1       1.786   8.023  20.782  0.00  0.00    +0.000 C 
ENDROOT
BRANCH   1  10
ATOM     10  C   UNL     1      -0.139  11.139  19.510  0.00  0.00    +0.000 C 
ATOM     11  C   UNL     1      -1.525  10.694  19.033  0.00  0.00    +0.000 C 
BRANCH  10  13
ATOM     12  C   UNL     1      -0.675  13.656  18.981  0.00  0.00    +0.000 C 
ATOM     13  C   UNL     1      -0.129  12.616  19.946  0.00  0.00    +0.000 C 
ENDBRANCH  10  13
ENDBRANCH   1  10
BRANCH   7  14
ATOM     14  C   UNL     1       2.859   5.645  17.889  0.00  0.00    +0.000 C 
BRANCH  14  15
ATOM     15  C   UNL     1       4.317   5.563  17.481  0.00  0.00    +0.000 A 
ATOM     16  C   UNL     1       4.677   5.405  16.133  0.00  0.00    +0.000 A 
ATOM     17  C   UNL     1       6.018   5.341  15.749  0.00  0.00    +0.000 A 
ATOM     18  C   UNL     1       7.024   5.453  16.705  0.00  0.00    +0.000 A 
ATOM     19  C   UNL     1       6.698   5.617  18.058  0.00  0.00    +0.000 A 
ATOM     20  C   UNL     1       5.341   5.643  18.437  0.00  0.00    +0.000 A 
BRANCH  19  21
ATOM     21  C   UNL     1       7.772   5.811  19.100  0.00  0.00    +0.000 C 
ATOM     22  F   UNL     1       8.768   4.883  19.039  0.00  0.00    +0.000 F 
ATOM     23  F   UNL     1       8.388   7.022  18.982  0.00  0.00    +0.000 F 
ATOM     24  F   UNL     1       7.292   5.760  20.372  0.00  0.00    +0.000 F 
ENDBRANCH  19  21
ENDBRANCH  14  15
ENDBRANCH   7  14
BRANCH   8  25
ATOM     25  C   UNL     1       2.092   5.490  20.781  0.00  0.00    +0.000 C 
BRANCH  25  26
ATOM     26  C   UNL     1       1.183   4.276  20.579  0.00  0.00    +0.000 C 
BRANCH  26  27
ATOM     27  C   UNL     1       1.965   3.238  19.817  0.00  0.00    +0.000 A 
ATOM     28  C   UNL     1       3.259   2.908  20.240  0.00  0.00    +0.000 A 
ATOM     29  C   UNL     1       4.057   2.069  19.468  0.00  0.00    +0.000 A 
ATOM     30  C   UNL     1       3.570   1.552  18.269  0.00  0.00    +0.000 A 
ATOM     31  C   UNL     1       2.276   1.870  17.846  0.00  0.00    +0.000 A 
ATOM     32  C   UNL     1       1.474   2.709  18.618  0.00  0.00    +0.000 A 
ENDBRANCH  26  27
ENDBRANCH  25  26
ENDBRANCH   8  25
TORSDOF 8
ENDMDL
MODEL 4
REMARK VINA RESULT:      -7.5      0.488      1.131
REMARK  Name = 
REMARK  10 active torsions:
REMARK  status: ('A' for Active; 'I' for Inactive)
REMARK    1  A    between atoms: C_1  and  C_2
REMARK    2  A    between atoms: C_2  and  C_3
REMARK    3  A    between atoms: C_3  and  C_4
REMARK    4  A    between atoms: C_3  and  C_5
REMARK    5  A    between atoms: N_11  and  C_12
REMARK    6  A    between atoms: C_12  and  C_13
REMARK    7  A    between atoms: C_17  and  C_18
REMARK    8  A    between atoms: C_23  and  C_24
REMARK    9  A    between atoms: C_24  and  C_25
REMARK   10  A    between atoms: C_25  and  C_26
REMARK                            x       y       z     vdW  Elec       q    Type
REMARK                         _______ _______ _______ _____ _____    ______ ____
ROOT
ATOM      1  C   UNL     1       0.106  10.204  21.026  0.00  0.00    +0.000 C 
ATOM      2  O   UNL     1      -0.286  10.034  22.178  0.00  0.00    +0.000 OA
ATOM      3  N   UNL     1       0.997   9.312  20.405  0.00  0.00    +0.000 N 
ATOM      4  C   UNL     1       1.654   9.583  19.129  0.00  0.00    +0.000 C 
ATOM      5  C   UNL     1       2.142   8.390  18.298  0.00  0.00    +0.000 C 
ATOM      6  O   UNL     1       2.508   8.593  17.144  0.00  0.00    +0.000 OA
ATOM      7  N   UNL     1       2.214   7.134  18.902  0.00  0.00    +0.000 N 
ATOM      8  C   UNL     1       1.424   6.902  20.150  0.00  0.00    +0.000 C 
ATOM      9  C   UNL     1       1.500   8.130  21.100  0.00  0.00    +0.000 C 
ENDROOT
BRANCH   1  10
ATOM     10  C   UNL     1      -0.457  11.335  20.136  0.00  0.00    +0.000 C 
ATOM     11  C   UNL     1      -1.537  10.748  19.222  0.00  0.00    +0.000 C 
BRANCH  10  13
ATOM     12  C   UNL     1      -0.108  13.891  20.631  0.00  0.00    +0.000 C 
ATOM     13  C   UNL     1      -0.930  12.628  20.827  0.00  0.00    +0.000 C 
ENDBRANCH  10  13
ENDBRANCH   1  10
BRANCH   7  14
ATOM     14  C   UNL     1       2.533   6.019  17.993  0.00  0.00    +0.000 C 
BRANCH  14  15
ATOM     15  C   UNL     1       4.018   5.743  17.857  0.00  0.00    +0.000 A 
ATOM     16  C   UNL     1       4.864   5.801  18.976  0.00  0.00    +0.000 A 
ATOM     17  C   UNL     1       6.230   5.537  18.859  0.00  0.00    +0.000 A 
ATOM     18  C   UNL     1       6.771   5.188  17.624  0.00  0.00    +0.000 A 
ATOM     19  C   UNL     1       5.952   5.116  16.489  0.00  0.00    +0.000 A 
ATOM     20  C   UNL     1       4.582   5.422  16.613  0.00  0.00    +0.000 A 
BRANCH  19  21
ATOM     21  C   UNL     1       6.505   4.673  15.157  0.00  0.00    +0.000 C 
ATOM     22  F   UNL     1       7.660   5.306  14.806  0.00  0.00    +0.000 F 
ATOM     23  F   UNL     1       6.794   3.341  15.139  0.00  0.00    +0.000 F 
ATOM     24  F   UNL     1       5.639   4.881  14.128  0.00  0.00    +0.000 F 
ENDBRANCH  19  21
ENDBRANCH  14  15
ENDBRANCH   7  14
BRANCH   8  25
ATOM     25  C   UNL     1       1.815   5.608  20.872  0.00  0.00    +0.000 C 
BRANCH  25  26
ATOM     26  C   UNL     1       1.024   4.371  20.444  0.00  0.00    +0.000 C 
BRANCH  26  27
ATOM     27  C   UNL     1       1.958   3.468  19.681  0.00  0.00    +0.000 A 
ATOM     28  C   UNL     1       1.562   2.968  18.434  0.00  0.00    +0.000 A 
ATOM     29  C   UNL     1       2.336   2.014  17.783  0.00  0.00    +0.000 A 
ATOM     30  C   UNL     1       3.513   1.552  18.369  0.00  0.00    +0.000 A 
ATOM     31  C   UNL     1       3.919   2.053  19.610  0.00  0.00    +0.000 A 
ATOM     32  C   UNL     1       3.146   3.011  20.264  0.00  0.00    +0.000 A 
ENDBRANCH  26  27
ENDBRANCH  25  26
ENDBRANCH   8  25
TORSDOF 8
ENDMDL
MODEL 5
REMARK VINA RESULT:      -7.5      1.857      2.200
REMARK  Name = 
REMARK  10 active torsions:
REMARK  status: ('A' for Active; 'I' for Inactive)
REMARK    1  A    between atoms: C_1  and  C_2
REMARK    2  A    between atoms: C_2  and  C_3
REMARK    3  A    between atoms: C_3  and  C_4
REMARK    4  A    between atoms: C_3  and  C_5
REMARK    5  A    between atoms: N_11  and  C_12
REMARK    6  A    between atoms: C_12  and  C_13
REMARK    7  A    between atoms: C_17  and  C_18
REMARK    8  A    between atoms: C_23  and  C_24
REMARK    9  A    between atoms: C_24  and  C_25
REMARK   10  A    between atoms: C_25  and  C_26
REMARK                            x       y       z     vdW  Elec       q    Type
REMARK                         _______ _______ _______ _____ _____    ______ ____
ROOT
ATOM      1  C   UNL     1      -0.052   9.937  20.076  0.00  0.00    +0.000 C 
ATOM      2  O   UNL     1      -0.541   9.807  21.195  0.00  0.00    +0.000 OA
ATOM      3  N   UNL     1       1.031   9.154  19.642  0.00  0.00    +0.000 N 
ATOM      4  C   UNL     1       1.778   9.416  18.415  0.00  0.00    +0.000 C 
ATOM      5  C   UNL     1       2.537   8.251  17.766  0.00  0.00    +0.000 C 
ATOM      6  O   UNL     1       2.995   8.410  16.639  0.00  0.00    +0.000 OA
ATOM      7  N   UNL     1       2.734   7.083  18.504  0.00  0.00    +0.000 N 
ATOM      8  C   UNL     1       1.853   6.835  19.685  0.00  0.00    +0.000 C 
ATOM      9  C   UNL     1       1.629   8.137  20.504  0.00  0.00    +0.000 C 
ENDROOT
BRANCH   1  10
ATOM     10  C   UNL     1      -0.679  10.876  19.021  0.00  0.00    +0.000 C 
ATOM     11  C   UNL     1      -1.781  10.114  18.278  0.00  0.00    +0.000 C 
BRANCH  10  13
ATOM     12  C   UNL     1      -0.126  13.378  19.602  0.00  0.00    +0.000 C 
ATOM     13  C   UNL     1      -1.156  12.265  19.486  0.00  0.00    +0.000 C 
ENDBRANCH  10  13
ENDBRANCH   1  10
BRANCH   7  14
ATOM     14  C   UNL     1       3.323   5.960  17.753  0.00  0.00    +0.000 C 
BRANCH  14  15
ATOM     15  C   UNL     1       4.827   5.839  17.908  0.00  0.00    +0.000 A 
ATOM     16  C   UNL     1       5.431   4.585  18.088  0.00  0.00    +0.000 A 
ATOM     17  C   UNL     1       6.816   4.467  18.220  0.00  0.00    +0.000 A 
ATOM     18  C   UNL     1       7.624   5.599  18.153  0.00  0.00    +0.000 A 
ATOM     19  C   UNL     1       7.051   6.865  17.968  0.00  0.00    +0.000 A 
ATOM     20  C   UNL     1       5.650   6.975  17.874  0.00  0.00    +0.000 A 
BRANCH  19  21
ATOM     21  C   UNL     1       7.913   8.095  17.823  0.00  0.00    +0.000 C 
ATOM     22  F   UNL     1       7.207   9.260  17.806  0.00  0.00    +0.000 F 
ATOM     23  F   UNL     1       8.805   8.220  18.847  0.00  0.00    +0.000 F 
ATOM     24  F   UNL     1       8.654   8.091  16.681  0.00  0.00    +0.000 F 
ENDBRANCH  19  21
ENDBRANCH  14  15
ENDBRANCH   7  14
BRANCH   8  25
ATOM     25  C   UNL     1       2.356   5.692  20.575  0.00  0.00    +0.000 C 
BRANCH  25  26
ATOM     26  C   UNL     1       1.430   4.476  20.640  0.00  0.00    +0.000 C 
BRANCH  26  27
ATOM     27  C   UNL     1       2.075   3.364  19.854  0.00  0.00    +0.000 A 
ATOM     28  C   UNL     1       3.204   2.720  20.377  0.00  0.00    +0.000 A 
ATOM     29  C   UNL     1       3.907   1.800  19.606  0.00  0.00    +0.000 A 
ATOM     30  C   UNL     1       3.489   1.514  18.308  0.00  0.00    +0.000 A 
ATOM     31  C   UNL     1       2.358   2.147  17.782  0.00  0.00    +0.000 A 
ATOM     32  C   UNL     1       1.651   3.068  18.553  0.00  0.00    +0.000 A 
ENDBRANCH  26  27
ENDBRANCH  25  26
ENDBRANCH   8  25
TORSDOF 8
ENDMDL
MODEL 6
REMARK VINA RESULT:      -7.4      1.612      2.049
REMARK  Name = 
REMARK  10 active torsions:
REMARK  status: ('A' for Active; 'I' for Inactive)
REMARK    1  A    between atoms: C_1  and  C_2
REMARK    2  A    between atoms: C_2  and  C_3
REMARK    3  A    between atoms: C_3  and  C_4
REMARK    4  A    between atoms: C_3  and  C_5
REMARK    5  A    between atoms: N_11  and  C_12
REMARK    6  A    between atoms: C_12  and  C_13
REMARK    7  A    between atoms: C_17  and  C_18
REMARK    8  A    between atoms: C_23  and  C_24
REMARK    9  A    between atoms: C_24  and  C_25
REMARK   10  A    between atoms: C_25  and  C_26
REMARK                            x       y       z     vdW  Elec       q    Type
REMARK                         _______ _______ _______ _____ _____    ______ ____
ROOT
ATOM      1  C   UNL     1       0.484  10.164  21.531  0.00  0.00    +0.000 C 
ATOM      2  O   UNL     1       0.301   9.883  22.713  0.00  0.00    +0.000 OA
ATOM      3  N   UNL     1       1.266   9.358  20.686  0.00  0.00    +0.000 N 
ATOM      4  C   UNL     1       1.686   9.759  19.347  0.00  0.00    +0.000 C 
ATOM      5  C   UNL     1       2.039   8.658  18.339  0.00  0.00    +0.000 C 
ATOM      6  O   UNL     1       2.195   8.973  17.162  0.00  0.00    +0.000 OA
ATOM      7  N   UNL     1       2.235   7.358  18.804  0.00  0.00    +0.000 N 
ATOM      8  C   UNL     1       1.678   6.993  20.143  0.00  0.00    +0.000 C 
ATOM      9  C   UNL     1       1.900   8.136  21.174  0.00  0.00    +0.000 C 
ENDROOT
BRANCH   1  10
ATOM     10  C   UNL     1      -0.243  11.351  20.858  0.00  0.00    +0.000 C 
ATOM     11  C   UNL     1      -1.256  10.798  19.851  0.00  0.00    +0.000 C 
BRANCH  10  13
ATOM     12  C   UNL     1      -2.247  12.955  21.417  0.00  0.00    +0.000 C 
ATOM     13  C   UNL     1      -0.867  12.424  21.770  0.00  0.00    +0.000 C 
ENDBRANCH  10  13
ENDBRANCH   1  10
BRANCH   7  14
ATOM     14  C   UNL     1       2.407   6.336  17.756  0.00  0.00    +0.000 C 
BRANCH  14  15
ATOM     15  C   UNL     1       3.849   5.927  17.528  0.00  0.00    +0.000 A 
ATOM     16  C   UNL     1       4.166   4.637  17.075  0.00  0.00    +0.000 A 
ATOM     17  C   UNL     1       5.491   4.258  16.852  0.00  0.00    +0.000 A 
ATOM     18  C   UNL     1       6.523   5.171  17.058  0.00  0.00    +0.000 A 
ATOM     19  C   UNL     1       6.239   6.469  17.505  0.00  0.00    +0.000 A 
ATOM     20  C   UNL     1       4.901   6.826  17.762  0.00  0.00    +0.000 A 
BRANCH  19  21
ATOM     21  C   UNL     1       7.334   7.493  17.667  0.00  0.00    +0.000 C 
ATOM     22  F   UNL     1       6.875   8.764  17.845  0.00  0.00    +0.000 F 
ATOM     23  F   UNL     1       8.123   7.232  18.748  0.00  0.00    +0.000 F 
ATOM     24  F   UNL     1       8.173   7.546  16.597  0.00  0.00    +0.000 F 
ENDBRANCH  19  21
ENDBRANCH  14  15
ENDBRANCH   7  14
BRANCH   8  25
ATOM     25  C   UNL     1       2.209   5.654  20.666  0.00  0.00    +0.000 C 
BRANCH  25  26
ATOM     26  C   UNL     1       1.236   4.482  20.528  0.00  0.00    +0.000 C 
BRANCH  26  27
ATOM     27  C   UNL     1       1.973   3.349  19.861  0.00  0.00    +0.000 A 
ATOM     28  C   UNL     1       3.252   3.002  20.314  0.00  0.00    +0.000 A 
ATOM     29  C   UNL     1       4.012   2.067  19.620  0.00  0.00    +0.000 A 
ATOM     30  C   UNL     1       3.503   1.469  18.469  0.00  0.00    +0.000 A 
ATOM     31  C   UNL     1       2.223   1.805  18.015  0.00  0.00    +0.000 A 
ATOM     32  C   UNL     1       1.458   2.740  18.710  0.00  0.00    +0.000 A 
ENDBRANCH  26  27
ENDBRANCH  25  26
ENDBRANCH   8  25
TORSDOF 8
ENDMDL
MODEL 7
REMARK VINA RESULT:      -7.3      1.679      2.044
REMARK  Name = 
REMARK  10 active torsions:
REMARK  status: ('A' for Active; 'I' for Inactive)
REMARK    1  A    between atoms: C_1  and  C_2
REMARK    2  A    between atoms: C_2  and  C_3
REMARK    3  A    between atoms: C_3  and  C_4
REMARK    4  A    between atoms: C_3  and  C_5
REMARK    5  A    between atoms: N_11  and  C_12
REMARK    6  A    between atoms: C_12  and  C_13
REMARK    7  A    between atoms: C_17  and  C_18
REMARK    8  A    between atoms: C_23  and  C_24
REMARK    9  A    between atoms: C_24  and  C_25
REMARK   10  A    between atoms: C_25  and  C_26
REMARK                            x       y       z     vdW  Elec       q    Type
REMARK                         _______ _______ _______ _____ _____    ______ ____
ROOT
ATOM      1  C   UNL     1       0.401  10.303  21.922  0.00  0.00    +0.000 C 
ATOM      2  O   UNL     1       0.280   9.895  23.074  0.00  0.00    +0.000 OA
ATOM      3  N   UNL     1       1.171   9.618  20.967  0.00  0.00    +0.000 N 
ATOM      4  C   UNL     1       1.519  10.171  19.661  0.00  0.00    +0.000 C 
ATOM      5  C   UNL     1       1.864   9.193  18.530  0.00  0.00    +0.000 C 
ATOM      6  O   UNL     1       1.957   9.633  17.387  0.00  0.00    +0.000 OA
ATOM      7  N   UNL     1       2.121   7.860  18.848  0.00  0.00    +0.000 N 
ATOM      8  C   UNL     1       1.636   7.339  20.163  0.00  0.00    +0.000 C 
ATOM      9  C   UNL     1       1.866   8.376  21.298  0.00  0.00    +0.000 C 
ENDROOT
BRANCH   1  10
ATOM     10  C   UNL     1      -0.393  11.526  21.406  0.00  0.00    +0.000 C 
ATOM     11  C   UNL     1      -1.682  11.653  22.222  0.00  0.00    +0.000 C 
BRANCH  10  13
ATOM     12  C   UNL     1      -0.438  14.093  20.849  0.00  0.00    +0.000 C 
ATOM     13  C   UNL     1       0.350  12.870  21.292  0.00  0.00    +0.000 C 
ENDBRANCH  10  13
ENDBRANCH   1  10
BRANCH   7  14
ATOM     14  C   UNL     1       2.281   6.958  17.693  0.00  0.00    +0.000 C 
BRANCH  14  15
ATOM     15  C   UNL     1       3.665   6.351  17.574  0.00  0.00    +0.000 A 
ATOM     16  C   UNL     1       3.827   4.981  17.312  0.00  0.00    +0.000 A 
ATOM     17  C   UNL     1       5.099   4.419  17.190  0.00  0.00    +0.000 A 
ATOM     18  C   UNL     1       6.232   5.220  17.307  0.00  0.00    +0.000 A 
ATOM     19  C   UNL     1       6.103   6.592  17.563  0.00  0.00    +0.000 A 
ATOM     20  C   UNL     1       4.816   7.141  17.721  0.00  0.00    +0.000 A 
BRANCH  19  21
ATOM     21  C   UNL     1       7.315   7.489  17.624  0.00  0.00    +0.000 C 
ATOM     22  F   UNL     1       8.111   7.412  16.520  0.00  0.00    +0.000 F 
ATOM     23  F   UNL     1       6.974   8.804  17.741  0.00  0.00    +0.000 F 
ATOM     24  F   UNL     1       8.123   7.217  18.685  0.00  0.00    +0.000 F 
ENDBRANCH  19  21
ENDBRANCH  14  15
ENDBRANCH   7  14
BRANCH   8  25
ATOM     25  C   UNL     1       2.233   5.973  20.521  0.00  0.00    +0.000 C 
BRANCH  25  26
ATOM     26  C   UNL     1       1.218   4.832  20.598  0.00  0.00    +0.000 C 
BRANCH  26  27
ATOM     27  C   UNL     1       1.845   3.615  19.969  0.00  0.00    +0.000 A 
ATOM     28  C   UNL     1       3.105   3.189  20.407  0.00  0.00    +0.000 A 
ATOM     29  C   UNL     1       3.771   2.166  19.741  0.00  0.00    +0.000 A 
ATOM     30  C   UNL     1       3.185   1.558  18.632  0.00  0.00    +0.000 A 
ATOM     31  C   UNL     1       1.923   1.972  18.194  0.00  0.00    +0.000 A 
ATOM     32  C   UNL     1       1.253   2.996  18.861  0.00  0.00    +0.000 A 
ENDBRANCH  26  27
ENDBRANCH  25  26
ENDBRANCH   8  25
TORSDOF 8
ENDMDL
MODEL 8
REMARK VINA RESULT:      -7.3      1.676      2.458
REMARK  Name = 
REMARK  10 active torsions:
REMARK  status: ('A' for Active; 'I' for Inactive)
REMARK    1  A    between atoms: C_1  and  C_2
REMARK    2  A    between atoms: C_2  and  C_3
REMARK    3  A    between atoms: C_3  and  C_4
REMARK    4  A    between atoms: C_3  and  C_5
REMARK    5  A    between atoms: N_11  and  C_12
REMARK    6  A    between atoms: C_12  and  C_13
REMARK    7  A    between atoms: C_17  and  C_18
REMARK    8  A    between atoms: C_23  and  C_24
REMARK    9  A    between atoms: C_24  and  C_25
REMARK   10  A    between atoms: C_25  and  C_26
REMARK                            x       y       z     vdW  Elec       q    Type
REMARK                         _______ _______ _______ _____ _____    ______ ____
ROOT
ATOM      1  C   UNL     1       0.361  10.138  20.359  0.00  0.00    +0.000 C 
ATOM      2  O   UNL     1      -0.052  10.091  21.515  0.00  0.00    +0.000 OA
ATOM      3  N   UNL     1       1.270   9.192  19.855  0.00  0.00    +0.000 N 
ATOM      4  C   UNL     1       1.949   9.329  18.570  0.00  0.00    +0.000 C 
ATOM      5  C   UNL     1       2.462   8.057  17.883  0.00  0.00    +0.000 C 
ATOM      6  O   UNL     1       2.848   8.137  16.721  0.00  0.00    +0.000 OA
ATOM      7  N   UNL     1       2.532   6.875  18.622  0.00  0.00    +0.000 N 
ATOM      8  C   UNL     1       1.720   6.773  19.872  0.00  0.00    +0.000 C 
ATOM      9  C   UNL     1       1.768   8.098  20.684  0.00  0.00    +0.000 C 
ENDROOT
BRANCH   1  10
ATOM     10  C   UNL     1      -0.193  11.160  19.341  0.00  0.00    +0.000 C 
ATOM     11  C   UNL     1       0.881  12.219  19.074  0.00  0.00    +0.000 C 
BRANCH  10  13
ATOM     12  C   UNL     1      -2.190  10.002  18.086  0.00  0.00    +0.000 C 
ATOM     13  C   UNL     1      -0.801  10.617  18.033  0.00  0.00    +0.000 C 
ENDBRANCH  10  13
ENDBRANCH   1  10
BRANCH   7  14
ATOM     14  C   UNL     1       2.876   5.670  17.846  0.00  0.00    +0.000 C 
BRANCH  14  15
ATOM     15  C   UNL     1       4.337   5.595  17.445  0.00  0.00    +0.000 A 
ATOM     16  C   UNL     1       4.705   5.452  16.098  0.00  0.00    +0.000 A 
ATOM     17  C   UNL     1       6.048   5.394  15.722  0.00  0.00    +0.000 A 
ATOM     18  C   UNL     1       7.049   5.499  16.684  0.00  0.00    +0.000 A 
ATOM     19  C   UNL     1       6.714   5.648  18.038  0.00  0.00    +0.000 A 
ATOM     20  C   UNL     1       5.355   5.667  18.408  0.00  0.00    +0.000 A 
BRANCH  19  21
ATOM     21  C   UNL     1       7.781   5.832  19.087  0.00  0.00    +0.000 C 
ATOM     22  F   UNL     1       7.321   5.711  20.365  0.00  0.00    +0.000 F 
ATOM     23  F   UNL     1       8.782   4.915  18.967  0.00  0.00    +0.000 F 
ATOM     24  F   UNL     1       8.383   7.051  19.023  0.00  0.00    +0.000 F 
ENDBRANCH  19  21
ENDBRANCH  14  15
ENDBRANCH   7  14
BRANCH   8  25
ATOM     25  C   UNL     1       2.106   5.569  20.739  0.00  0.00    +0.000 C 
BRANCH  25  26
ATOM     26  C   UNL     1       1.206   4.344  20.571  0.00  0.00    +0.000 C 
BRANCH  26  27
ATOM     27  C   UNL     1       1.994   3.292  19.834  0.00  0.00    +0.000 A 
ATOM     28  C   UNL     1       3.300   3.000  20.246  0.00  0.00    +0.000 A 
ATOM     29  C   UNL     1       4.100   2.147  19.492  0.00  0.00    +0.000 A 
ATOM     30  C   UNL     1       3.603   1.579  18.321  0.00  0.00    +0.000 A 
ATOM     31  C   UNL     1       2.297   1.860  17.908  0.00  0.00    +0.000 A 
ATOM     32  C   UNL     1       1.493   2.711  18.663  0.00  0.00    +0.000 A 
ENDBRANCH  26  27
ENDBRANCH  25  26
ENDBRANCH   8  25
TORSDOF 8
ENDMDL
MODEL 9
REMARK VINA RESULT:      -7.2      1.540      2.144
REMARK  Name = 
REMARK  10 active torsions:
REMARK  status: ('A' for Active; 'I' for Inactive)
REMARK    1  A    between atoms: C_1  and  C_2
REMARK    2  A    between atoms: C_2  and  C_3
REMARK    3  A    between atoms: C_3  and  C_4
REMARK    4  A    between atoms: C_3  and  C_5
REMARK    5  A    between atoms: N_11  and  C_12
REMARK    6  A    between atoms: C_12  and  C_13
REMARK    7  A    between atoms: C_17  and  C_18
REMARK    8  A    between atoms: C_23  and  C_24
REMARK    9  A    between atoms: C_24  and  C_25
REMARK   10  A    between atoms: C_25  and  C_26
REMARK                            x       y       z     vdW  Elec       q    Type
REMARK                         _______ _______ _______ _____ _____    ______ ____
ROOT
ATOM      1  C   UNL     1       0.588  10.338  21.510  0.00  0.00    +0.000 C 
ATOM      2  O   UNL     1       0.422  10.100  22.704  0.00  0.00    +0.000 OA
ATOM      3  N   UNL     1       1.330   9.483  20.677  0.00  0.00    +0.000 N 
ATOM      4  C   UNL     1       1.733   9.829  19.317  0.00  0.00    +0.000 C 
ATOM      5  C   UNL     1       2.034   8.686  18.339  0.00  0.00    +0.000 C 
ATOM      6  O   UNL     1       2.174   8.958  17.150  0.00  0.00    +0.000 OA
ATOM      7  N   UNL     1       2.202   7.396  18.842  0.00  0.00    +0.000 N 
ATOM      8  C   UNL     1       1.663   7.091  20.203  0.00  0.00    +0.000 C 
ATOM      9  C   UNL     1       1.938   8.258  21.191  0.00  0.00    +0.000 C 
ENDROOT
BRANCH   1  10
ATOM     10  C   UNL     1      -0.118  11.524  20.813  0.00  0.00    +0.000 C 
ATOM     11  C   UNL     1      -1.601  11.502  21.192  0.00  0.00    +0.000 C 
BRANCH  10  13
ATOM     12  C   UNL     1       1.620  13.336  20.040  0.00  0.00    +0.000 C 
ATOM     13  C   UNL     1       0.497  12.926  20.979  0.00  0.00    +0.000 C 
ENDBRANCH  10  13
ENDBRANCH   1  10
BRANCH   7  14
ATOM     14  C   UNL     1       2.323   6.336  17.824  0.00  0.00    +0.000 C 
BRANCH  14  15
ATOM     15  C   UNL     1       3.753   5.928  17.531  0.00  0.00    +0.000 A 
ATOM     16  C   UNL     1       4.041   4.671  16.976  0.00  0.00    +0.000 A 
ATOM     17  C   UNL     1       5.355   4.294  16.692  0.00  0.00    +0.000 A 
ATOM     18  C   UNL     1       6.404   5.175  16.940  0.00  0.00    +0.000 A 
ATOM     19  C   UNL     1       6.149   6.440  17.488  0.00  0.00    +0.000 A 
ATOM     20  C   UNL     1       4.823   6.794  17.804  0.00  0.00    +0.000 A 
BRANCH  19  21
ATOM     21  C   UNL     1       7.263   7.436  17.698  0.00  0.00    +0.000 C 
ATOM     22  F   UNL     1       8.046   7.162  18.780  0.00  0.00    +0.000 F 
ATOM     23  F   UNL     1       8.112   7.488  16.633  0.00  0.00    +0.000 F 
ATOM     24  F   UNL     1       6.811   8.707  17.878  0.00  0.00    +0.000 F 
ENDBRANCH  19  21
ENDBRANCH  14  15
ENDBRANCH   7  14
BRANCH   8  25
ATOM     25  C   UNL     1       2.165   5.754  20.759  0.00  0.00    +0.000 C 
BRANCH  25  26
ATOM     26  C   UNL     1       1.257   4.558  20.469  0.00  0.00    +0.000 C 
BRANCH  26  27
ATOM     27  C   UNL     1       2.073   3.528  19.732  0.00  0.00    +0.000 A 
ATOM     28  C   UNL     1       1.481   2.798  18.694  0.00  0.00    +0.000 A 
ATOM     29  C   UNL     1       2.161   1.739  18.103  0.00  0.00    +0.000 A 
ATOM     30  C   UNL     1       3.440   1.400  18.542  0.00  0.00    +0.000 A 
ATOM     31  C   UNL     1       4.041   2.130  19.572  0.00  0.00    +0.000 A 
ATOM     32  C   UNL     1       3.362   3.193  20.165  0.00  0.00    +0.000 A 
ENDBRANCH  26  27
ENDBRANCH  25  26
ENDBRANCH   8  25
TORSDOF 8
ENDMDL
