MODEL 1
REMARK VINA RESULT:      -8.3      0.000      0.000
REMARK  Name = 
REMARK  5 active torsions:
REMARK  status: ('A' for Active; 'I' for Inactive)
REMARK    1  A    between atoms: C_1  and  C_2
REMARK    2  A    between atoms: C_11  and  C_13
REMARK    3  A    between atoms: N_18  and  C_19
REMARK    4  A    between atoms: C_19  and  C_20
REMARK    5  A    between atoms: N_25  and  C_26
REMARK                            x       y       z     vdW  Elec       q    Type
REMARK                         _______ _______ _______ _____ _____    ______ ____
ROOT
ATOM      1  C   UNL     1       0.458  10.445  18.815  0.00  0.00    +0.000 A 
ATOM      2  C   UNL     1      -0.936  10.137  18.423  0.00  0.00    +0.000 A 
ATOM      3  C   UNL     1      -1.881  10.976  18.849  0.00  0.00    +0.000 A 
ATOM      4  C   UNL     1      -1.533  12.202  19.601  0.00  0.00    +0.000 A 
ATOM      5  O   UNL     1      -2.419  13.010  19.870  0.00  0.00    +0.000 OA
ATOM      6  N   UNL     1      -0.190  12.377  19.875  0.00  0.00    +0.000 N 
ATOM      7  N   UNL     1       0.788  11.467  19.542  0.00  0.00    +0.000 NA
ENDROOT
BRANCH   1  18
ATOM      8  C   UNL     1       0.206   8.361  21.294  0.00  0.00    +0.000 C 
ATOM      9  C   UNL     1       1.528   8.028  20.634  0.00  0.00    +0.000 C 
ATOM     10  C   UNL     1       1.737   6.508  20.784  0.00  0.00    +0.000 C 
ATOM     11  C   UNL     1       2.682   6.237  19.671  0.00  0.00    +0.000 A 
ATOM     12  C   UNL     1       3.414   5.076  19.476  0.00  0.00    +0.000 A 
ATOM     13  C   UNL     1       4.222   4.994  18.347  0.00  0.00    +0.000 A 
ATOM     14  C   UNL     1       4.272   6.059  17.436  0.00  0.00    +0.000 A 
ATOM     15  C   UNL     1       3.494   7.209  17.628  0.00  0.00    +0.000 A 
ATOM     16  C   UNL     1       2.689   7.292  18.754  0.00  0.00    +0.000 A 
ATOM     17  N   UNL     1       1.796   8.323  19.181  0.00  0.00    +0.000 N 
ATOM     18  C   UNL     1       1.531   9.451  18.396  0.00  0.00    +0.000 C 
ATOM     19  O   UNL     1       2.077   9.718  17.326  0.00  0.00    +0.000 OA
ENDBRANCH   1  18
BRANCH   6  20
ATOM     20  C   UNL     1       0.271  13.647  20.417  0.00  0.00    +0.000 C 
BRANCH  20  21
ATOM     21  C   UNL     1       0.649  14.683  19.362  0.00  0.00    +0.000 C 
ATOM     22  O   UNL     1      -0.188  15.286  18.691  0.00  0.00    +0.000 OA
ATOM     23  N   UNL     1       2.013  14.950  19.250  0.00  0.00    +0.000 N 
ATOM     24  C   UNL     1       2.444  16.013  18.335  0.00  0.00    +0.000 C 
ATOM     25  C   UNL     1       3.665  16.776  18.883  0.00  0.00    +0.000 C 
ATOM     26  N   UNL     1       4.725  15.818  19.234  0.00  0.00    +0.000 N 
ATOM     27  C   UNL     1       4.326  14.776  20.190  0.00  0.00    +0.000 C 
ATOM     28  C   UNL     1       3.085  14.030  19.669  0.00  0.00    +0.000 C 
BRANCH  26  29
ATOM     29  C   UNL     1       6.043  16.017  18.882  0.00  0.00    +0.000 A 
ATOM     30  C   UNL     1       6.695  17.240  19.096  0.00  0.00    +0.000 A 
ATOM     31  C   UNL     1       8.013  17.456  18.674  0.00  0.00    +0.000 A 
ATOM     32  C   UNL     1       8.714  16.443  18.029  0.00  0.00    +0.000 A 
ATOM     33  C   UNL     1       8.098  15.217  17.814  0.00  0.00    +0.000 A 
ATOM     34  C   UNL     1       6.781  15.011  18.240  0.00  0.00    +0.000 A 
ENDBRANCH  26  29
ENDBRANCH  20  21
ENDBRANCH   6  20
TORSDOF 4
ENDMDL
MODEL 2
REMARK VINA RESULT:      -8.0      3.571      9.274
REMARK  Name = 
REMARK  5 active torsions:
REMARK  status: ('A' for Active; 'I' for Inactive)
REMARK    1  A    between atoms: C_1  and  C_2
REMARK    2  A    between atoms: C_11  and  C_13
REMARK    3  A    between atoms: N_18  and  C_19
REMARK    4  A    between atoms: C_19  and  C_20
REMARK    5  A    between atoms: N_25  and  C_26
REMARK                            x       y       z     vdW  Elec       q    Type
REMARK                         _______ _______ _______ _____ _____    ______ ____
ROOT
ATOM      1  C   UNL     1      -1.625  13.184  20.304  0.00  0.00    +0.000 A 
ATOM      2  C   UNL     1      -1.354  14.569  19.858  0.00  0.00    +0.000 A 
ATOM      3  C   UNL     1      -0.074  14.917  19.717  0.00  0.00    +0.000 A 
ATOM      4  C   UNL     1       1.012  13.931  19.911  0.00  0.00    +0.000 A 
ATOM      5  O   UNL     1       2.168  14.257  19.653  0.00  0.00    +0.000 OA
ATOM      6  N   UNL     1       0.612  12.667  20.301  0.00  0.00    +0.000 N 
ATOM      7  N   UNL     1      -0.695  12.320  20.561  0.00  0.00    +0.000 NA
ENDROOT
BRANCH   1  18
ATOM      8  C   UNL     1      -1.818  13.881  23.471  0.00  0.00    +0.000 C 
ATOM      9  C   UNL     1      -3.035  13.027  23.182  0.00  0.00    +0.000 C 
ATOM     10  C   UNL     1      -4.164  13.526  24.106  0.00  0.00    +0.000 C 
ATOM     11  C   UNL     1      -5.365  13.058  23.368  0.00  0.00    +0.000 A 
ATOM     12  C   UNL     1      -6.662  13.007  23.854  0.00  0.00    +0.000 A 
ATOM     13  C   UNL     1      -7.666  12.572  22.995  0.00  0.00    +0.000 A 
ATOM     14  C   UNL     1      -7.358  12.213  21.675  0.00  0.00    +0.000 A 
ATOM     15  C   UNL     1      -6.047  12.310  21.188  0.00  0.00    +0.000 A 
ATOM     16  C   UNL     1      -5.046  12.742  22.044  0.00  0.00    +0.000 A 
ATOM     17  N   UNL     1      -3.651  12.947  21.810  0.00  0.00    +0.000 N 
ATOM     18  C   UNL     1      -3.080  12.805  20.540  0.00  0.00    +0.000 C 
ATOM     19  O   UNL     1      -3.673  12.422  19.532  0.00  0.00    +0.000 OA
ENDBRANCH   1  18
BRANCH   6  20
ATOM     20  C   UNL     1       1.580  11.579  20.308  0.00  0.00    +0.000 C 
BRANCH  20  21
ATOM     21  C   UNL     1       1.692  10.825  18.987  0.00  0.00    +0.000 C 
ATOM     22  O   UNL     1       1.826  11.395  17.904  0.00  0.00    +0.000 OA
ATOM     23  N   UNL     1       1.695   9.434  19.093  0.00  0.00    +0.000 N 
ATOM     24  C   UNL     1       1.909   8.642  17.877  0.00  0.00    +0.000 C 
ATOM     25  C   UNL     1       2.722   7.365  18.165  0.00  0.00    +0.000 C 
ATOM     26  N   UNL     1       2.091   6.620  19.266  0.00  0.00    +0.000 N 
ATOM     27  C   UNL     1       1.916   7.383  20.509  0.00  0.00    +0.000 C 
ATOM     28  C   UNL     1       1.135   8.678  20.227  0.00  0.00    +0.000 C 
BRANCH  26  29
ATOM     29  C   UNL     1       1.897   5.256  19.214  0.00  0.00    +0.000 A 
ATOM     30  C   UNL     1       2.130   4.514  18.047  0.00  0.00    +0.000 A 
ATOM     31  C   UNL     1       1.866   3.140  17.983  0.00  0.00    +0.000 A 
ATOM     32  C   UNL     1       1.365   2.472  19.096  0.00  0.00    +0.000 A 
ATOM     33  C   UNL     1       1.135   3.180  20.269  0.00  0.00    +0.000 A 
ATOM     34  C   UNL     1       1.403   4.552  20.323  0.00  0.00    +0.000 A 
ENDBRANCH  26  29
ENDBRANCH  20  21
ENDBRANCH   6  20
TORSDOF 4
ENDMDL
MODEL 3
REMARK VINA RESULT:      -7.9      4.059      8.986
REMARK  Name = 
REMARK  5 active torsions:
REMARK  status: ('A' for Active; 'I' for Inactive)
REMARK    1  A    between atoms: C_1  and  C_2
REMARK    2  A    between atoms: C_11  and  C_13
REMARK    3  A    between atoms: N_18  and  C_19
REMARK    4  A    between atoms: C_19  and  C_20
REMARK    5  A    between atoms: N_25  and  C_26
REMARK                            x       y       z     vdW  Elec       q    Type
REMARK                         _______ _______ _______ _____ _____    ______ ____
ROOT
ATOM      1  C   UNL     1      -1.511  12.583  21.513  0.00  0.00    +0.000 A 
ATOM      2  C   UNL     1      -0.604  13.748  21.407  0.00  0.00    +0.000 A 
ATOM      3  C   UNL     1       0.558  13.553  20.782  0.00  0.00    +0.000 A 
ATOM      4  C   UNL     1       0.877  12.253  20.149  0.00  0.00    +0.000 A 
ATOM      5  O   UNL     1       1.901  12.151  19.479  0.00  0.00    +0.000 OA
ATOM      6  N   UNL     1      -0.073  11.262  20.304  0.00  0.00    +0.000 N 
ATOM      7  N   UNL     1      -1.226  11.410  21.041  0.00  0.00    +0.000 NA
ENDROOT
BRANCH   1  18
ATOM      8  C   UNL     1      -3.626  12.156  19.085  0.00  0.00    +0.000 C 
ATOM      9  C   UNL     1      -4.427  12.807  20.194  0.00  0.00    +0.000 C 
ATOM     10  C   UNL     1      -5.860  12.245  20.104  0.00  0.00    +0.000 C 
ATOM     11  C   UNL     1      -6.346  12.477  21.488  0.00  0.00    +0.000 A 
ATOM     12  C   UNL     1      -7.659  12.395  21.924  0.00  0.00    +0.000 A 
ATOM     13  C   UNL     1      -7.913  12.610  23.275  0.00  0.00    +0.000 A 
ATOM     14  C   UNL     1      -6.859  12.885  24.157  0.00  0.00    +0.000 A 
ATOM     15  C   UNL     1      -5.532  12.924  23.705  0.00  0.00    +0.000 A 
ATOM     16  C   UNL     1      -5.278  12.711  22.359  0.00  0.00    +0.000 A 
ATOM     17  N   UNL     1      -4.041  12.678  21.644  0.00  0.00    +0.000 N 
ATOM     18  C   UNL     1      -2.804  12.780  22.291  0.00  0.00    +0.000 C 
ATOM     19  O   UNL     1      -2.644  12.986  23.493  0.00  0.00    +0.000 OA
ENDBRANCH   1  18
BRANCH   6  20
ATOM     20  C   UNL     1       0.050  10.026  19.543  0.00  0.00    +0.000 C 
BRANCH  20  21
ATOM     21  C   UNL     1       0.792   8.909  20.270  0.00  0.00    +0.000 C 
ATOM     22  O   UNL     1       0.531   8.580  21.427  0.00  0.00    +0.000 OA
ATOM     23  N   UNL     1       1.751   8.238  19.512  0.00  0.00    +0.000 N 
ATOM     24  C   UNL     1       2.427   7.080  20.107  0.00  0.00    +0.000 C 
ATOM     25  C   UNL     1       2.721   5.990  19.059  0.00  0.00    +0.000 C 
ATOM     26  N   UNL     1       3.437   6.586  17.920  0.00  0.00    +0.000 N 
ATOM     27  C   UNL     1       2.750   7.714  17.277  0.00  0.00    +0.000 C 
ATOM     28  C   UNL     1       2.420   8.794  18.323  0.00  0.00    +0.000 C 
BRANCH  26  29
ATOM     29  C   UNL     1       4.544   5.989  17.354  0.00  0.00    +0.000 A 
ATOM     30  C   UNL     1       4.486   4.718  16.765  0.00  0.00    +0.000 A 
ATOM     31  C   UNL     1       5.629   4.091  16.253  0.00  0.00    +0.000 A 
ATOM     32  C   UNL     1       6.863   4.730  16.313  0.00  0.00    +0.000 A 
ATOM     33  C   UNL     1       6.948   5.996  16.880  0.00  0.00    +0.000 A 
ATOM     34  C   UNL     1       5.800   6.614  17.388  0.00  0.00    +0.000 A 
ENDBRANCH  26  29
ENDBRANCH  20  21
ENDBRANCH   6  20
TORSDOF 4
ENDMDL
MODEL 4
REMARK VINA RESULT:      -7.8      3.606      9.362
REMARK  Name = 
REMARK  5 active torsions:
REMARK  status: ('A' for Active; 'I' for Inactive)
REMARK    1  A    between atoms: C_1  and  C_2
REMARK    2  A    between atoms: C_11  and  C_13
REMARK    3  A    between atoms: N_18  and  C_19
REMARK    4  A    between atoms: C_19  and  C_20
REMARK    5  A    between atoms: N_25  and  C_26
REMARK                            x       y       z     vdW  Elec       q    Type
REMARK                         _______ _______ _______ _____ _____    ______ ____
ROOT
ATOM      1  C   UNL     1      -1.049  12.633  19.354  0.00  0.00    +0.000 A 
ATOM      2  C   UNL     1      -0.425  13.921  18.974  0.00  0.00    +0.000 A 
ATOM      3  C   UNL     1       0.864  13.890  18.634  0.00  0.00    +0.000 A 
ATOM      4  C   UNL     1       1.603  12.610  18.556  0.00  0.00    +0.000 A 
ATOM      5  O   UNL     1       2.752  12.609  18.123  0.00  0.00    +0.000 OA
ATOM      6  N   UNL     1       0.888  11.482  18.913  0.00  0.00    +0.000 N 
ATOM      7  N   UNL     1      -0.408  11.507  19.374  0.00  0.00    +0.000 NA
ENDROOT
BRANCH   1  18
ATOM      8  C   UNL     1      -2.406  11.010  16.889  0.00  0.00    +0.000 C 
ATOM      9  C   UNL     1      -3.560  11.694  17.591  0.00  0.00    +0.000 C 
ATOM     10  C   UNL     1      -4.782  10.762  17.462  0.00  0.00    +0.000 C 
ATOM     11  C   UNL     1      -5.613  11.219  18.605  0.00  0.00    +0.000 A 
ATOM     12  C   UNL     1      -6.943  10.905  18.833  0.00  0.00    +0.000 A 
ATOM     13  C   UNL     1      -7.543  11.399  19.987  0.00  0.00    +0.000 A 
ATOM     14  C   UNL     1      -6.804  12.177  20.889  0.00  0.00    +0.000 A 
ATOM     15  C   UNL     1      -5.448  12.451  20.663  0.00  0.00    +0.000 A 
ATOM     16  C   UNL     1      -4.850  11.960  19.512  0.00  0.00    +0.000 A 
ATOM     17  N   UNL     1      -3.502  12.071  19.049  0.00  0.00    +0.000 N 
ATOM     18  C   UNL     1      -2.499  12.675  19.815  0.00  0.00    +0.000 C 
ATOM     19  O   UNL     1      -2.669  13.233  20.898  0.00  0.00    +0.000 OA
ENDBRANCH   1  18
BRANCH   6  20
ATOM     20  C   UNL     1       1.458  10.165  18.665  0.00  0.00    +0.000 C 
BRANCH  20  21
ATOM     21  C   UNL     1       1.485   9.249  19.885  0.00  0.00    +0.000 C 
ATOM     22  O   UNL     1       1.157   9.629  21.010  0.00  0.00    +0.000 OA
ATOM     23  N   UNL     1       1.848   7.927  19.632  0.00  0.00    +0.000 N 
ATOM     24  C   UNL     1       1.791   6.962  20.734  0.00  0.00    +0.000 C 
ATOM     25  C   UNL     1       1.352   5.567  20.250  0.00  0.00    +0.000 C 
ATOM     26  N   UNL     1       2.206   5.148  19.127  0.00  0.00    +0.000 N 
ATOM     27  C   UNL     1       2.235   6.077  17.991  0.00  0.00    +0.000 C 
ATOM     28  C   UNL     1       2.639   7.483  18.470  0.00  0.00    +0.000 C 
BRANCH  26  29
ATOM     29  C   UNL     1       2.746   3.882  19.047  0.00  0.00    +0.000 A 
ATOM     30  C   UNL     1       3.832   3.483  19.840  0.00  0.00    +0.000 A 
ATOM     31  C   UNL     1       4.418   2.218  19.705  0.00  0.00    +0.000 A 
ATOM     32  C   UNL     1       3.921   1.315  18.771  0.00  0.00    +0.000 A 
ATOM     33  C   UNL     1       2.838   1.677  17.981  0.00  0.00    +0.000 A 
ATOM     34  C   UNL     1       2.259   2.944  18.124  0.00  0.00    +0.000 A 
ENDBRANCH  26  29
ENDBRANCH  20  21
ENDBRANCH   6  20
TORSDOF 4
ENDMDL
MODEL 5
REMARK VINA RESULT:      -7.8      4.895      7.822
REMARK  Name = 
REMARK  5 active torsions:
REMARK  status: ('A' for Active; 'I' for Inactive)
REMARK    1  A    between atoms: C_1  and  C_2
REMARK    2  A    between atoms: C_11  and  C_13
REMARK    3  A    between atoms: N_18  and  C_19
REMARK    4  A    between atoms: C_19  and  C_20
REMARK    5  A    between atoms: N_25  and  C_26
REMARK                            x       y       z     vdW  Elec       q    Type
REMARK                         _______ _______ _______ _____ _____    ______ ____
ROOT
ATOM      1  C   UNL     1       3.369   3.765  18.509  0.00  0.00    +0.000 A 
ATOM      2  C   UNL     1       3.519   2.469  19.208  0.00  0.00    +0.000 A 
ATOM      3  C   UNL     1       3.186   2.439  20.500  0.00  0.00    +0.000 A 
ATOM      4  C   UNL     1       2.609   3.627  21.168  0.00  0.00    +0.000 A 
ATOM      5  O   UNL     1       2.203   3.523  22.323  0.00  0.00    +0.000 OA
ATOM      6  N   UNL     1       2.501   4.761  20.387  0.00  0.00    +0.000 N 
ATOM      7  N   UNL     1       2.943   4.844  19.086  0.00  0.00    +0.000 NA
ENDROOT
BRANCH   1  18
ATOM      8  C   UNL     1       6.203   5.296  18.923  0.00  0.00    +0.000 C 
ATOM      9  C   UNL     1       5.909   5.409  17.442  0.00  0.00    +0.000 C 
ATOM     10  C   UNL     1       7.265   5.375  16.710  0.00  0.00    +0.000 C 
ATOM     11  C   UNL     1       6.849   4.923  15.357  0.00  0.00    +0.000 A 
ATOM     12  C   UNL     1       7.621   4.952  14.206  0.00  0.00    +0.000 A 
ATOM     13  C   UNL     1       7.066   4.446  13.035  0.00  0.00    +0.000 A 
ATOM     14  C   UNL     1       5.770   3.914  13.041  0.00  0.00    +0.000 A 
ATOM     15  C   UNL     1       5.019   3.855  14.223  0.00  0.00    +0.000 A 
ATOM     16  C   UNL     1       5.570   4.361  15.391  0.00  0.00    +0.000 A 
ATOM     17  N   UNL     1       5.042   4.412  16.718  0.00  0.00    +0.000 N 
ATOM     18  C   UNL     1       3.818   3.824  17.056  0.00  0.00    +0.000 C 
ATOM     19  O   UNL     1       3.044   3.286  16.265  0.00  0.00    +0.000 OA
ENDBRANCH   1  18
BRANCH   6  20
ATOM     20  C   UNL     1       1.754   5.907  20.887  0.00  0.00    +0.000 C 
BRANCH  20  21
ATOM     21  C   UNL     1       1.840   7.150  20.007  0.00  0.00    +0.000 C 
ATOM     22  O   UNL     1       2.315   7.129  18.871  0.00  0.00    +0.000 OA
ATOM     23  N   UNL     1       1.286   8.307  20.552  0.00  0.00    +0.000 N 
ATOM     24  C   UNL     1       1.232   9.515  19.721  0.00  0.00    +0.000 C 
ATOM     25  C   UNL     1      -0.041  10.339  19.994  0.00  0.00    +0.000 C 
ATOM     26  N   UNL     1      -0.159  10.595  21.437  0.00  0.00    +0.000 N 
ATOM     27  C   UNL     1      -0.161   9.394  22.282  0.00  0.00    +0.000 C 
ATOM     28  C   UNL     1       1.091   8.546  21.993  0.00  0.00    +0.000 C 
BRANCH  26  29
ATOM     29  C   UNL     1      -0.479  11.839  21.939  0.00  0.00    +0.000 A 
ATOM     30  C   UNL     1       0.248  12.989  21.600  0.00  0.00    +0.000 A 
ATOM     31  C   UNL     1      -0.041  14.237  22.167  0.00  0.00    +0.000 A 
ATOM     32  C   UNL     1      -1.077  14.363  23.086  0.00  0.00    +0.000 A 
ATOM     33  C   UNL     1      -1.823  13.244  23.431  0.00  0.00    +0.000 A 
ATOM     34  C   UNL     1      -1.526  12.001  22.860  0.00  0.00    +0.000 A 
ENDBRANCH  26  29
ENDBRANCH  20  21
ENDBRANCH   6  20
TORSDOF 4
ENDMDL
MODEL 6
REMARK VINA RESULT:      -7.7      1.412      1.984
REMARK  Name = 
REMARK  5 active torsions:
REMARK  status: ('A' for Active; 'I' for Inactive)
REMARK    1  A    between atoms: C_1  and  C_2
REMARK    2  A    between atoms: C_11  and  C_13
REMARK    3  A    between atoms: N_18  and  C_19
REMARK    4  A    between atoms: C_19  and  C_20
REMARK    5  A    between atoms: N_25  and  C_26
REMARK                            x       y       z     vdW  Elec       q    Type
REMARK                         _______ _______ _______ _____ _____    ______ ____
ROOT
ATOM      1  C   UNL     1       1.282  10.206  18.312  0.00  0.00    +0.000 A 
ATOM      2  C   UNL     1      -0.195  10.169  18.406  0.00  0.00    +0.000 A 
ATOM      3  C   UNL     1      -0.815  11.333  18.612  0.00  0.00    +0.000 A 
ATOM      4  C   UNL     1      -0.059  12.605  18.651  0.00  0.00    +0.000 A 
ATOM      5  O   UNL     1      -0.676  13.664  18.720  0.00  0.00    +0.000 OA
ATOM      6  N   UNL     1       1.313  12.492  18.523  0.00  0.00    +0.000 N 
ATOM      7  N   UNL     1       1.979  11.292  18.423  0.00  0.00    +0.000 NA
ENDROOT
BRANCH   1  18
ATOM      8  C   UNL     1       0.501   8.875  21.171  0.00  0.00    +0.000 C 
ATOM      9  C   UNL     1       1.643   8.032  20.644  0.00  0.00    +0.000 C 
ATOM     10  C   UNL     1       1.396   6.588  21.125  0.00  0.00    +0.000 C 
ATOM     11  C   UNL     1       2.183   5.816  20.130  0.00  0.00    +0.000 A 
ATOM     12  C   UNL     1       2.531   4.476  20.215  0.00  0.00    +0.000 A 
ATOM     13  C   UNL     1       3.243   3.917  19.158  0.00  0.00    +0.000 A 
ATOM     14  C   UNL     1       3.578   4.697  18.042  0.00  0.00    +0.000 A 
ATOM     15  C   UNL     1       3.182   6.040  17.955  0.00  0.00    +0.000 A 
ATOM     16  C   UNL     1       2.474   6.597  19.008  0.00  0.00    +0.000 A 
ATOM     17  N   UNL     1       1.941   7.914  19.172  0.00  0.00    +0.000 N 
ATOM     18  C   UNL     1       1.998   8.872  18.154  0.00  0.00    +0.000 C 
ATOM     19  O   UNL     1       2.564   8.728  17.071  0.00  0.00    +0.000 OA
ENDBRANCH   1  18
BRANCH   6  20
ATOM     20  C   UNL     1       2.115  13.692  18.335  0.00  0.00    +0.000 C 
BRANCH  20  21
ATOM     21  C   UNL     1       2.847  14.164  19.589  0.00  0.00    +0.000 C 
ATOM     22  O   UNL     1       2.371  14.054  20.718  0.00  0.00    +0.000 OA
ATOM     23  N   UNL     1       4.126  14.676  19.376  0.00  0.00    +0.000 N 
ATOM     24  C   UNL     1       4.934  15.047  20.542  0.00  0.00    +0.000 C 
ATOM     25  C   UNL     1       6.429  14.749  20.320  0.00  0.00    +0.000 C 
ATOM     26  N   UNL     1       6.870  15.369  19.061  0.00  0.00    +0.000 N 
ATOM     27  C   UNL     1       6.106  14.968  17.872  0.00  0.00    +0.000 C 
ATOM     28  C   UNL     1       4.606  15.230  18.097  0.00  0.00    +0.000 C 
BRANCH  26  29
ATOM     29  C   UNL     1       8.046  16.081  18.965  0.00  0.00    +0.000 A 
ATOM     30  C   UNL     1       8.071  17.435  18.597  0.00  0.00    +0.000 A 
ATOM     31  C   UNL     1       9.274  18.133  18.437  0.00  0.00    +0.000 A 
ATOM     32  C   UNL     1      10.489  17.489  18.648  0.00  0.00    +0.000 A 
ATOM     33  C   UNL     1      10.495  16.152  19.025  0.00  0.00    +0.000 A 
ATOM     34  C   UNL     1       9.288  15.463  19.183  0.00  0.00    +0.000 A 
ENDBRANCH  26  29
ENDBRANCH  20  21
ENDBRANCH   6  20
TORSDOF 4
ENDMDL
MODEL 7
REMARK VINA RESULT:      -7.7      3.741      9.385
REMARK  Name = 
REMARK  5 active torsions:
REMARK  status: ('A' for Active; 'I' for Inactive)
REMARK    1  A    between atoms: C_1  and  C_2
REMARK    2  A    between atoms: C_11  and  C_13
REMARK    3  A    between atoms: N_18  and  C_19
REMARK    4  A    between atoms: C_19  and  C_20
REMARK    5  A    between atoms: N_25  and  C_26
REMARK                            x       y       z     vdW  Elec       q    Type
REMARK                         _______ _______ _______ _____ _____    ______ ____
ROOT
ATOM      1  C   UNL     1      -1.602  12.643  20.253  0.00  0.00    +0.000 A 
ATOM      2  C   UNL     1      -1.039  13.985  19.979  0.00  0.00    +0.000 A 
ATOM      3  C   UNL     1       0.291  14.094  19.993  0.00  0.00    +0.000 A 
ATOM      4  C   UNL     1       1.154  12.908  20.185  0.00  0.00    +0.000 A 
ATOM      5  O   UNL     1       2.371  13.029  20.071  0.00  0.00    +0.000 OA
ATOM      6  N   UNL     1       0.492  11.714  20.405  0.00  0.00    +0.000 N 
ATOM      7  N   UNL     1      -0.876  11.600  20.506  0.00  0.00    +0.000 NA
ENDROOT
BRANCH   1  18
ATOM      8  C   UNL     1      -2.014  13.103  23.443  0.00  0.00    +0.000 C 
ATOM      9  C   UNL     1      -3.325  12.521  22.957  0.00  0.00    +0.000 C 
ATOM     10  C   UNL     1      -4.441  13.147  23.817  0.00  0.00    +0.000 C 
ATOM     11  C   UNL     1      -5.618  12.976  22.927  0.00  0.00    +0.000 A 
ATOM     12  C   UNL     1      -6.949  13.132  23.282  0.00  0.00    +0.000 A 
ATOM     13  C   UNL     1      -7.914  12.966  22.293  0.00  0.00    +0.000 A 
ATOM     14  C   UNL     1      -7.532  12.665  20.979  0.00  0.00    +0.000 A 
ATOM     15  C   UNL     1      -6.179  12.552  20.628  0.00  0.00    +0.000 A 
ATOM     16  C   UNL     1      -5.217  12.715  21.613  0.00  0.00    +0.000 A 
ATOM     17  N   UNL     1      -3.791  12.671  21.532  0.00  0.00    +0.000 N 
ATOM     18  C   UNL     1      -3.118  12.529  20.313  0.00  0.00    +0.000 C 
ATOM     19  O   UNL     1      -3.655  12.349  19.221  0.00  0.00    +0.000 OA
ENDBRANCH   1  18
BRANCH   6  20
ATOM     20  C   UNL     1       1.243  10.466  20.392  0.00  0.00    +0.000 C 
BRANCH  20  21
ATOM     21  C   UNL     1       1.477   9.886  19.000  0.00  0.00    +0.000 C 
ATOM     22  O   UNL     1       1.410  10.565  17.976  0.00  0.00    +0.000 OA
ATOM     23  N   UNL     1       1.836   8.539  18.968  0.00  0.00    +0.000 N 
ATOM     24  C   UNL     1       2.184   7.939  17.676  0.00  0.00    +0.000 C 
ATOM     25  C   UNL     1       3.305   6.892  17.816  0.00  0.00    +0.000 C 
ATOM     26  N   UNL     1       2.937   5.916  18.853  0.00  0.00    +0.000 N 
ATOM     27  C   UNL     1       2.636   6.494  20.170  0.00  0.00    +0.000 C 
ATOM     28  C   UNL     1       1.540   7.566  20.035  0.00  0.00    +0.000 C 
BRANCH  26  29
ATOM     29  C   UNL     1       3.091   4.558  18.672  0.00  0.00    +0.000 A 
ATOM     30  C   UNL     1       2.433   3.864  17.646  0.00  0.00    +0.000 A 
ATOM     31  C   UNL     1       2.541   2.474  17.510  0.00  0.00    +0.000 A 
ATOM     32  C   UNL     1       3.320   1.743  18.401  0.00  0.00    +0.000 A 
ATOM     33  C   UNL     1       3.993   2.406  19.420  0.00  0.00    +0.000 A 
ATOM     34  C   UNL     1       3.879   3.794  19.548  0.00  0.00    +0.000 A 
ENDBRANCH  26  29
ENDBRANCH  20  21
ENDBRANCH   6  20
TORSDOF 4
ENDMDL
MODEL 8
REMARK VINA RESULT:      -7.6      1.785      1.844
REMARK  Name = 
REMARK  5 active torsions:
REMARK  status: ('A' for Active; 'I' for Inactive)
REMARK    1  A    between atoms: C_1  and  C_2
REMARK    2  A    between atoms: C_11  and  C_13
REMARK    3  A    between atoms: N_18  and  C_19
REMARK    4  A    between atoms: C_19  and  C_20
REMARK    5  A    between atoms: N_25  and  C_26
REMARK                            x       y       z     vdW  Elec       q    Type
REMARK                         _______ _______ _______ _____ _____    ______ ____
ROOT
ATOM      1  C   UNL     1       0.534  10.686  18.957  0.00  0.00    +0.000 A 
ATOM      2  C   UNL     1      -0.884  10.500  18.571  0.00  0.00    +0.000 A 
ATOM      3  C   UNL     1      -1.752  11.412  19.011  0.00  0.00    +0.000 A 
ATOM      4  C   UNL     1      -1.296  12.598  19.771  0.00  0.00    +0.000 A 
ATOM      5  O   UNL     1      -2.108  13.475  20.052  0.00  0.00    +0.000 OA
ATOM      6  N   UNL     1       0.059  12.655  20.037  0.00  0.00    +0.000 N 
ATOM      7  N   UNL     1       0.953  11.669  19.689  0.00  0.00    +0.000 NA
ENDROOT
BRANCH   1  18
ATOM      8  C   UNL     1       0.141   8.621  21.433  0.00  0.00    +0.000 C 
ATOM      9  C   UNL     1       1.423   8.182  20.756  0.00  0.00    +0.000 C 
ATOM     10  C   UNL     1       1.507   6.650  20.900  0.00  0.00    +0.000 C 
ATOM     11  C   UNL     1       2.413   6.305  19.775  0.00  0.00    +0.000 A 
ATOM     12  C   UNL     1       3.044   5.088  19.568  0.00  0.00    +0.000 A 
ATOM     13  C   UNL     1       3.829   4.944  18.429  0.00  0.00    +0.000 A 
ATOM     14  C   UNL     1       3.955   6.004  17.520  0.00  0.00    +0.000 A 
ATOM     15  C   UNL     1       3.277   7.214  17.724  0.00  0.00    +0.000 A 
ATOM     16  C   UNL     1       2.496   7.359  18.860  0.00  0.00    +0.000 A 
ATOM     17  N   UNL     1       1.696   8.459  19.301  0.00  0.00    +0.000 N 
ATOM     18  C   UNL     1       1.516   9.608  18.522  0.00  0.00    +0.000 C 
ATOM     19  O   UNL     1       2.069   9.832  17.445  0.00  0.00    +0.000 OA
ENDBRANCH   1  18
BRANCH   6  20
ATOM     20  C   UNL     1       0.630  13.877  20.586  0.00  0.00    +0.000 C 
BRANCH  20  21
ATOM     21  C   UNL     1       1.646  14.562  19.678  0.00  0.00    +0.000 C 
ATOM     22  O   UNL     1       1.339  15.074  18.602  0.00  0.00    +0.000 OA
ATOM     23  N   UNL     1       2.946  14.627  20.180  0.00  0.00    +0.000 N 
ATOM     24  C   UNL     1       3.955  15.366  19.414  0.00  0.00    +0.000 C 
ATOM     25  C   UNL     1       4.954  16.090  20.337  0.00  0.00    +0.000 C 
ATOM     26  N   UNL     1       5.515  15.130  21.301  0.00  0.00    +0.000 N 
ATOM     27  C   UNL     1       4.521  14.418  22.114  0.00  0.00    +0.000 C 
ATOM     28  C   UNL     1       3.497  13.719  21.202  0.00  0.00    +0.000 C 
BRANCH  26  29
ATOM     29  C   UNL     1       6.863  15.075  21.584  0.00  0.00    +0.000 A 
ATOM     30  C   UNL     1       7.372  15.398  22.850  0.00  0.00    +0.000 A 
ATOM     31  C   UNL     1       8.749  15.404  23.110  0.00  0.00    +0.000 A 
ATOM     32  C   UNL     1       9.651  15.079  22.104  0.00  0.00    +0.000 A 
ATOM     33  C   UNL     1       9.175  14.743  20.843  0.00  0.00    +0.000 A 
ATOM     34  C   UNL     1       7.798  14.739  20.593  0.00  0.00    +0.000 A 
ENDBRANCH  26  29
ENDBRANCH  20  21
ENDBRANCH   6  20
TORSDOF 4
ENDMDL
MODEL 9
REMARK VINA RESULT:      -7.6      0.983      1.512
REMARK  Name = 
REMARK  5 active torsions:
REMARK  status: ('A' for Active; 'I' for Inactive)
REMARK    1  A    between atoms: C_1  and  C_2
REMARK    2  A    between atoms: C_11  and  C_13
REMARK    3  A    between atoms: N_18  and  C_19
REMARK    4  A    between atoms: C_19  and  C_20
REMARK    5  A    between atoms: N_25  and  C_26
REMARK                            x       y       z     vdW  Elec       q    Type
REMARK                         _______ _______ _______ _____ _____    ______ ____
ROOT
ATOM      1  C   UNL     1       0.110  10.578  18.798  0.00  0.00    +0.000 A 
ATOM      2  C   UNL     1      -1.258  10.079  18.529  0.00  0.00    +0.000 A 
ATOM      3  C   UNL     1      -2.270  10.858  18.915  0.00  0.00    +0.000 A 
ATOM      4  C   UNL     1      -2.026  12.195  19.501  0.00  0.00    +0.000 A 
ATOM      5  O   UNL     1      -2.982  12.930  19.730  0.00  0.00    +0.000 OA
ATOM      6  N   UNL     1      -0.699  12.542  19.670  0.00  0.00    +0.000 N 
ATOM      7  N   UNL     1       0.358  11.708  19.382  0.00  0.00    +0.000 NA
ENDROOT
BRANCH   1  18
ATOM      8  C   UNL     1      -0.098   8.487  21.274  0.00  0.00    +0.000 C 
ATOM      9  C   UNL     1       1.270   8.246  20.671  0.00  0.00    +0.000 C 
ATOM     10  C   UNL     1       1.578   6.745  20.838  0.00  0.00    +0.000 C 
ATOM     11  C   UNL     1       2.586   6.538  19.766  0.00  0.00    +0.000 A 
ATOM     12  C   UNL     1       3.404   5.431  19.607  0.00  0.00    +0.000 A 
ATOM     13  C   UNL     1       4.263   5.404  18.513  0.00  0.00    +0.000 A 
ATOM     14  C   UNL     1       4.276   6.467  17.600  0.00  0.00    +0.000 A 
ATOM     15  C   UNL     1       3.412   7.561  17.753  0.00  0.00    +0.000 A 
ATOM     16  C   UNL     1       2.557   7.589  18.845  0.00  0.00    +0.000 A 
ATOM     17  N   UNL     1       1.577   8.556  19.229  0.00  0.00    +0.000 N 
ATOM     18  C   UNL     1       1.267   9.661  18.428  0.00  0.00    +0.000 C 
ATOM     19  O   UNL     1       1.837   9.963  17.380  0.00  0.00    +0.000 OA
ENDBRANCH   1  18
BRANCH   6  20
ATOM     20  C   UNL     1      -0.358  13.910  20.035  0.00  0.00    +0.000 C 
BRANCH  20  21
ATOM     21  C   UNL     1       0.803  14.030  21.017  0.00  0.00    +0.000 C 
ATOM     22  O   UNL     1       0.707  13.715  22.203  0.00  0.00    +0.000 OA
ATOM     23  N   UNL     1       2.008  14.465  20.467  0.00  0.00    +0.000 N 
ATOM     24  C   UNL     1       3.197  14.500  21.325  0.00  0.00    +0.000 C 
ATOM     25  C   UNL     1       4.474  14.132  20.546  0.00  0.00    +0.000 C 
ATOM     26  N   UNL     1       4.575  14.974  19.344  0.00  0.00    +0.000 N 
ATOM     27  C   UNL     1       3.415  14.911  18.445  0.00  0.00    +0.000 C 
ATOM     28  C   UNL     1       2.129  15.244  19.222  0.00  0.00    +0.000 C 
BRANCH  26  29
ATOM     29  C   UNL     1       5.753  15.586  18.973  0.00  0.00    +0.000 A 
ATOM     30  C   UNL     1       6.690  14.958  18.139  0.00  0.00    +0.000 A 
ATOM     31  C   UNL     1       7.914  15.560  17.821  0.00  0.00    +0.000 A 
ATOM     32  C   UNL     1       8.227  16.816  18.329  0.00  0.00    +0.000 A 
ATOM     33  C   UNL     1       7.313  17.468  19.147  0.00  0.00    +0.000 A 
ATOM     34  C   UNL     1       6.093  16.858  19.459  0.00  0.00    +0.000 A 
ENDBRANCH  26  29
ENDBRANCH  20  21
ENDBRANCH   6  20
TORSDOF 4
ENDMDL
