MODEL 1
REMARK VINA RESULT:      -8.2      0.000      0.000
REMARK  Name = 
REMARK  4 active torsions:
REMARK  status: ('A' for Active; 'I' for Inactive)
REMARK    1  A    between atoms: C_1  and  C_2
REMARK    2  A    between atoms: N_5  and  C_6
REMARK    3  A    between atoms: C_9  and  N_10
REMARK    4  A    between atoms: C_15  and  C_16
REMARK                            x       y       z     vdW  Elec       q    Type
REMARK                         _______ _______ _______ _____ _____    ______ ____
ROOT
ATOM      1  C   UNL     1       2.976   6.935  18.423  0.00  0.00    +0.000 A 
ATOM      2  C   UNL     1       2.515   6.583  19.699  0.00  0.00    +0.000 A 
ATOM      3  C   UNL     1       1.691   7.436  20.452  0.00  0.00    +0.000 A 
ATOM      4  C   UNL     1       1.318   8.690  19.963  0.00  0.00    +0.000 A 
ATOM      5  C   UNL     1       1.734   9.021  18.674  0.00  0.00    +0.000 A 
ATOM      6  C   UNL     1       2.561   8.175  17.934  0.00  0.00    +0.000 A 
ENDROOT
BRANCH   4   7
ATOM      7  N   UNL     1       0.525   9.538  20.755  0.00  0.00    +0.000 N 
ATOM      8  C   UNL     1      -0.498  10.397  20.337  0.00  0.00    +0.000 A 
ATOM      9  N   UNL     1      -0.690  11.482  21.101  0.00  0.00    +0.000 NA
ATOM     10  C   UNL     1      -1.567  12.395  20.648  0.00  0.00    +0.000 A 
ATOM     11  C   UNL     1      -2.253  12.270  19.468  0.00  0.00    +0.000 A 
ATOM     12  C   UNL     1      -2.020  11.117  18.761  0.00  0.00    +0.000 A 
ATOM     13  N   UNL     1      -1.172  10.174  19.202  0.00  0.00    +0.000 NA
ATOM     14  H   UNL     1       1.004   9.988  21.520  0.00  0.00    +0.000 HD
BRANCH  12  15
ATOM     15  C   UNL     1      -2.643  10.808  17.467  0.00  0.00    +0.000 A 
ATOM     16  C   UNL     1      -2.141  10.031  16.431  0.00  0.00    +0.000 A 
ATOM     17  C   UNL     1      -3.018   9.972  15.309  0.00  0.00    +0.000 A 
ATOM     18  C   UNL     1      -4.153  10.725  15.505  0.00  0.00    +0.000 A 
ATOM     19  S   UNL     1      -4.159  11.489  17.031  0.00  0.00    +0.000 S 
ENDBRANCH  12  15
ENDBRANCH   4   7
BRANCH   1  24
ATOM     20  C   UNL     1       7.753   4.502  17.581  0.00  0.00    +0.000 C 
ATOM     21  C   UNL     1       6.306   4.813  17.212  0.00  0.00    +0.000 C 
ATOM     22  C   UNL     1       6.115   6.318  16.982  0.00  0.00    +0.000 C 
ATOM     23  C   UNL     1       4.663   6.623  16.632  0.00  0.00    +0.000 C 
ATOM     24  N   UNL     1       3.779   6.099  17.675  0.00  0.00    +0.000 N 
ATOM     25  C   UNL     1       3.887   4.672  17.968  0.00  0.00    +0.000 C 
ATOM     26  C   UNL     1       5.340   4.321  18.300  0.00  0.00    +0.000 C 
ENDBRANCH   1  24
TORSDOF 3
ENDMDL
MODEL 2
REMARK VINA RESULT:      -7.9      3.295      8.510
REMARK  Name = 
REMARK  4 active torsions:
REMARK  status: ('A' for Active; 'I' for Inactive)
REMARK    1  A    between atoms: C_1  and  C_2
REMARK    2  A    between atoms: N_5  and  C_6
REMARK    3  A    between atoms: C_9  and  N_10
REMARK    4  A    between atoms: C_15  and  C_16
REMARK                            x       y       z     vdW  Elec       q    Type
REMARK                         _______ _______ _______ _____ _____    ______ ____
ROOT
ATOM      1  C   UNL     1       1.160   9.624  19.177  0.00  0.00    +0.000 A 
ATOM      2  C   UNL     1       0.886   9.283  20.508  0.00  0.00    +0.000 A 
ATOM      3  C   UNL     1       1.276   8.049  21.053  0.00  0.00    +0.000 A 
ATOM      4  C   UNL     1       1.936   7.095  20.274  0.00  0.00    +0.000 A 
ATOM      5  C   UNL     1       2.253   7.452  18.965  0.00  0.00    +0.000 A 
ATOM      6  C   UNL     1       1.855   8.676  18.423  0.00  0.00    +0.000 A 
ENDROOT
BRANCH   4   7
ATOM      7  N   UNL     1       2.279   5.854  20.836  0.00  0.00    +0.000 N 
ATOM      8  C   UNL     1       2.983   4.804  20.236  0.00  0.00    +0.000 A 
ATOM      9  N   UNL     1       2.688   3.577  20.690  0.00  0.00    +0.000 NA
ATOM     10  C   UNL     1       3.242   2.539  20.038  0.00  0.00    +0.000 A 
ATOM     11  C   UNL     1       4.070   2.678  18.953  0.00  0.00    +0.000 A 
ATOM     12  C   UNL     1       4.342   3.967  18.571  0.00  0.00    +0.000 A 
ATOM     13  N   UNL     1       3.828   5.024  19.221  0.00  0.00    +0.000 NA
ATOM     14  H   UNL     1       1.582   5.445  21.440  0.00  0.00    +0.000 HD
BRANCH  12  15
ATOM     15  C   UNL     1       5.189   4.321  17.425  0.00  0.00    +0.000 A 
ATOM     16  C   UNL     1       4.872   4.284  16.073  0.00  0.00    +0.000 A 
ATOM     17  C   UNL     1       5.959   4.678  15.239  0.00  0.00    +0.000 A 
ATOM     18  C   UNL     1       7.084   4.979  15.971  0.00  0.00    +0.000 A 
ATOM     19  S   UNL     1       6.826   4.793  17.648  0.00  0.00    +0.000 S 
ENDBRANCH  12  15
ENDBRANCH   4   7
BRANCH   1  24
ATOM     20  C   UNL     1      -0.734  14.672  19.791  0.00  0.00    +0.000 C 
ATOM     21  C   UNL     1      -0.225  13.509  18.946  0.00  0.00    +0.000 C 
ATOM     22  C   UNL     1      -1.131  12.281  19.109  0.00  0.00    +0.000 C 
ATOM     23  C   UNL     1      -0.605  11.116  18.278  0.00  0.00    +0.000 C 
ATOM     24  N   UNL     1       0.787  10.837  18.637  0.00  0.00    +0.000 N 
ATOM     25  C   UNL     1       1.729  11.946  18.515  0.00  0.00    +0.000 C 
ATOM     26  C   UNL     1       1.221  13.148  19.317  0.00  0.00    +0.000 C 
ENDBRANCH   1  24
TORSDOF 3
ENDMDL
MODEL 3
REMARK VINA RESULT:      -7.8      1.400      1.968
REMARK  Name = 
REMARK  4 active torsions:
REMARK  status: ('A' for Active; 'I' for Inactive)
REMARK    1  A    between atoms: C_1  and  C_2
REMARK    2  A    between atoms: N_5  and  C_6
REMARK    3  A    between atoms: C_9  and  N_10
REMARK    4  A    between atoms: C_15  and  C_16
REMARK                            x       y       z     vdW  Elec       q    Type
REMARK                         _______ _______ _______ _____ _____    ______ ____
ROOT
ATOM      1  C   UNL     1       2.319   6.324  18.790  0.00  0.00    +0.000 A 
ATOM      2  C   UNL     1       1.934   6.210  20.133  0.00  0.00    +0.000 A 
ATOM      3  C   UNL     1       1.517   7.322  20.882  0.00  0.00    +0.000 A 
ATOM      4  C   UNL     1       1.493   8.600  20.319  0.00  0.00    +0.000 A 
ATOM      5  C   UNL     1       1.827   8.707  18.970  0.00  0.00    +0.000 A 
ATOM      6  C   UNL     1       2.252   7.602  18.232  0.00  0.00    +0.000 A 
ENDROOT
BRANCH   4   7
ATOM      7  N   UNL     1       1.108   9.699  21.104  0.00  0.00    +0.000 N 
ATOM      8  C   UNL     1       0.219  10.727  20.768  0.00  0.00    +0.000 A 
ATOM      9  N   UNL     1       0.447  11.906  21.364  0.00  0.00    +0.000 NA
ATOM     10  C   UNL     1      -0.300  12.947  20.955  0.00  0.00    +0.000 A 
ATOM     11  C   UNL     1      -1.257  12.858  19.977  0.00  0.00    +0.000 A 
ATOM     12  C   UNL     1      -1.447  11.611  19.439  0.00  0.00    +0.000 A 
ATOM     13  N   UNL     1      -0.736  10.546  19.848  0.00  0.00    +0.000 NA
ATOM     14  H   UNL     1       1.839  10.105  21.670  0.00  0.00    +0.000 HD
BRANCH  12  15
ATOM     15  C   UNL     1      -2.410  11.316  18.370  0.00  0.00    +0.000 A 
ATOM     16  C   UNL     1      -2.168  10.763  17.119  0.00  0.00    +0.000 A 
ATOM     17  C   UNL     1      -3.349  10.644  16.329  0.00  0.00    +0.000 A 
ATOM     18  C   UNL     1      -4.455  11.132  16.985  0.00  0.00    +0.000 A 
ATOM     19  S   UNL     1      -4.070  11.722  18.540  0.00  0.00    +0.000 S 
ENDBRANCH  12  15
ENDBRANCH   4   7
BRANCH   1  24
ATOM     20  C   UNL     1       3.866   1.131  18.496  0.00  0.00    +0.000 C 
ATOM     21  C   UNL     1       3.554   2.489  17.877  0.00  0.00    +0.000 C 
ATOM     22  C   UNL     1       4.473   3.574  18.454  0.00  0.00    +0.000 C 
ATOM     23  C   UNL     1       4.141   4.932  17.846  0.00  0.00    +0.000 C 
ATOM     24  N   UNL     1       2.723   5.235  18.046  0.00  0.00    +0.000 N 
ATOM     25  C   UNL     1       1.766   4.259  17.531  0.00  0.00    +0.000 C 
ATOM     26  C   UNL     1       2.083   2.873  18.100  0.00  0.00    +0.000 C 
ENDBRANCH   1  24
TORSDOF 3
ENDMDL
MODEL 4
REMARK VINA RESULT:      -7.7      1.294      2.058
REMARK  Name = 
REMARK  4 active torsions:
REMARK  status: ('A' for Active; 'I' for Inactive)
REMARK    1  A    between atoms: C_1  and  C_2
REMARK    2  A    between atoms: N_5  and  C_6
REMARK    3  A    between atoms: C_9  and  N_10
REMARK    4  A    between atoms: C_15  and  C_16
REMARK                            x       y       z     vdW  Elec       q    Type
REMARK                         _______ _______ _______ _____ _____    ______ ____
ROOT
ATOM      1  C   UNL     1       2.517   6.440  19.085  0.00  0.00    +0.000 A 
ATOM      2  C   UNL     1       2.425   7.729  18.542  0.00  0.00    +0.000 A 
ATOM      3  C   UNL     1       1.818   8.787  19.239  0.00  0.00    +0.000 A 
ATOM      4  C   UNL     1       1.256   8.586  20.501  0.00  0.00    +0.000 A 
ATOM      5  C   UNL     1       1.390   7.318  21.064  0.00  0.00    +0.000 A 
ATOM      6  C   UNL     1       1.985   6.266  20.364  0.00  0.00    +0.000 A 
ENDROOT
BRANCH   4   7
ATOM      7  N   UNL     1       0.622   9.654  21.158  0.00  0.00    +0.000 N 
ATOM      8  C   UNL     1      -0.279  10.580  20.621  0.00  0.00    +0.000 A 
ATOM      9  N   UNL     1      -0.286  11.786  21.207  0.00  0.00    +0.000 NA
ATOM     10  C   UNL     1      -1.035  12.739  20.625  0.00  0.00    +0.000 A 
ATOM     11  C   UNL     1      -1.771  12.538  19.486  0.00  0.00    +0.000 A 
ATOM     12  C   UNL     1      -1.731  11.269  18.966  0.00  0.00    +0.000 A 
ATOM     13  N   UNL     1      -1.015  10.288  19.542  0.00  0.00    +0.000 NA
ATOM     14  H   UNL     1       1.186  10.140  21.839  0.00  0.00    +0.000 HD
BRANCH  12  15
ATOM     15  C   UNL     1      -2.435  10.861  17.743  0.00  0.00    +0.000 A 
ATOM     16  C   UNL     1      -2.006   9.988  16.751  0.00  0.00    +0.000 A 
ATOM     17  C   UNL     1      -2.950   9.849  15.692  0.00  0.00    +0.000 A 
ATOM     18  C   UNL     1      -4.060  10.636  15.888  0.00  0.00    +0.000 A 
ATOM     19  S   UNL     1      -3.965  11.529  17.340  0.00  0.00    +0.000 S 
ENDBRANCH  12  15
ENDBRANCH   4   7
BRANCH   1  24
ATOM     20  C   UNL     1       3.741   1.169  18.682  0.00  0.00    +0.000 C 
ATOM     21  C   UNL     1       3.782   2.611  18.189  0.00  0.00    +0.000 C 
ATOM     22  C   UNL     1       4.459   3.521  19.222  0.00  0.00    +0.000 C 
ATOM     23  C   UNL     1       4.478   4.964  18.730  0.00  0.00    +0.000 C 
ATOM     24  N   UNL     1       3.118   5.398  18.409  0.00  0.00    +0.000 N 
ATOM     25  C   UNL     1       2.387   4.594  17.432  0.00  0.00    +0.000 C 
ATOM     26  C   UNL     1       2.369   3.129  17.879  0.00  0.00    +0.000 C 
ENDBRANCH   1  24
TORSDOF 3
ENDMDL
MODEL 5
REMARK VINA RESULT:      -7.7      3.417      8.432
REMARK  Name = 
REMARK  4 active torsions:
REMARK  status: ('A' for Active; 'I' for Inactive)
REMARK    1  A    between atoms: C_1  and  C_2
REMARK    2  A    between atoms: N_5  and  C_6
REMARK    3  A    between atoms: C_9  and  N_10
REMARK    4  A    between atoms: C_15  and  C_16
REMARK                            x       y       z     vdW  Elec       q    Type
REMARK                         _______ _______ _______ _____ _____    ______ ____
ROOT
ATOM      1  C   UNL     1       1.354   9.649  19.129  0.00  0.00    +0.000 A 
ATOM      2  C   UNL     1       1.998   8.633  18.409  0.00  0.00    +0.000 A 
ATOM      3  C   UNL     1       2.269   7.378  18.979  0.00  0.00    +0.000 A 
ATOM      4  C   UNL     1       1.927   7.101  20.304  0.00  0.00    +0.000 A 
ATOM      5  C   UNL     1       1.243   8.093  21.006  0.00  0.00    +0.000 A 
ATOM      6  C   UNL     1       0.984   9.342  20.440  0.00  0.00    +0.000 A 
ENDROOT
BRANCH   4   7
ATOM      7  N   UNL     1       2.247   5.851  20.859  0.00  0.00    +0.000 N 
ATOM      8  C   UNL     1       2.941   4.795  20.257  0.00  0.00    +0.000 A 
ATOM      9  N   UNL     1       2.624   3.569  20.698  0.00  0.00    +0.000 NA
ATOM     10  C   UNL     1       3.169   2.529  20.042  0.00  0.00    +0.000 A 
ATOM     11  C   UNL     1       4.010   2.664  18.967  0.00  0.00    +0.000 A 
ATOM     12  C   UNL     1       4.305   3.952  18.599  0.00  0.00    +0.000 A 
ATOM     13  N   UNL     1       3.799   5.011  19.253  0.00  0.00    +0.000 NA
ATOM     14  H   UNL     1       1.537   5.446  21.452  0.00  0.00    +0.000 HD
BRANCH  12  15
ATOM     15  C   UNL     1       5.169   4.303  17.464  0.00  0.00    +0.000 A 
ATOM     16  C   UNL     1       4.863   4.287  16.109  0.00  0.00    +0.000 A 
ATOM     17  C   UNL     1       5.965   4.670  15.289  0.00  0.00    +0.000 A 
ATOM     18  C   UNL     1       7.088   4.942  16.035  0.00  0.00    +0.000 A 
ATOM     19  S   UNL     1       6.812   4.743  17.707  0.00  0.00    +0.000 S 
ENDBRANCH  12  15
ENDBRANCH   4   7
BRANCH   1  24
ATOM     20  C   UNL     1       0.651  15.003  19.657  0.00  0.00    +0.000 C 
ATOM     21  C   UNL     1       0.693  13.716  18.841  0.00  0.00    +0.000 C 
ATOM     22  C   UNL     1      -0.345  12.710  19.358  0.00  0.00    +0.000 C 
ATOM     23  C   UNL     1      -0.284  11.419  18.550  0.00  0.00    +0.000 C 
ATOM     24  N   UNL     1       1.078  10.881  18.573  0.00  0.00    +0.000 N 
ATOM     25  C   UNL     1       2.139  11.765  18.099  0.00  0.00    +0.000 C 
ATOM     26  C   UNL     1       2.094  13.088  18.871  0.00  0.00    +0.000 C 
ENDBRANCH   1  24
TORSDOF 3
ENDMDL
MODEL 6
REMARK VINA RESULT:      -7.7      1.497      2.329
REMARK  Name = 
REMARK  4 active torsions:
REMARK  status: ('A' for Active; 'I' for Inactive)
REMARK    1  A    between atoms: C_1  and  C_2
REMARK    2  A    between atoms: N_5  and  C_6
REMARK    3  A    between atoms: C_9  and  N_10
REMARK    4  A    between atoms: C_15  and  C_16
REMARK                            x       y       z     vdW  Elec       q    Type
REMARK                         _______ _______ _______ _____ _____    ______ ____
ROOT
ATOM      1  C   UNL     1       2.235   6.390  18.845  0.00  0.00    +0.000 A 
ATOM      2  C   UNL     1       2.202   7.697  18.341  0.00  0.00    +0.000 A 
ATOM      3  C   UNL     1       1.830   8.791  19.140  0.00  0.00    +0.000 A 
ATOM      4  C   UNL     1       1.451   8.613  20.472  0.00  0.00    +0.000 A 
ATOM      5  C   UNL     1       1.531   7.320  20.989  0.00  0.00    +0.000 A 
ATOM      6  C   UNL     1       1.891   6.234  20.190  0.00  0.00    +0.000 A 
ENDROOT
BRANCH   4   7
ATOM      7  N   UNL     1       1.047   9.721  21.235  0.00  0.00    +0.000 N 
ATOM      8  C   UNL     1       0.155  10.736  20.871  0.00  0.00    +0.000 A 
ATOM      9  N   UNL     1       0.366  11.926  21.453  0.00  0.00    +0.000 NA
ATOM     10  C   UNL     1      -0.383  12.955  21.018  0.00  0.00    +0.000 A 
ATOM     11  C   UNL     1      -1.327  12.843  20.029  0.00  0.00    +0.000 A 
ATOM     12  C   UNL     1      -1.499  11.586  19.508  0.00  0.00    +0.000 A 
ATOM     13  N   UNL     1      -0.786  10.534  19.942  0.00  0.00    +0.000 NA
ATOM     14  H   UNL     1       1.767  10.140  21.805  0.00  0.00    +0.000 HD
BRANCH  12  15
ATOM     15  C   UNL     1      -2.445  11.268  18.430  0.00  0.00    +0.000 A 
ATOM     16  C   UNL     1      -3.763  11.683  18.288  0.00  0.00    +0.000 A 
ATOM     17  C   UNL     1      -4.387  11.153  17.120  0.00  0.00    +0.000 A 
ATOM     18  C   UNL     1      -3.540  10.328  16.417  0.00  0.00    +0.000 A 
ATOM     19  S   UNL     1      -2.007  10.201  17.157  0.00  0.00    +0.000 S 
ENDBRANCH  12  15
ENDBRANCH   4   7
BRANCH   1  24
ATOM     20  C   UNL     1       3.800   1.212  18.414  0.00  0.00    +0.000 C 
ATOM     21  C   UNL     1       3.445   2.574  17.827  0.00  0.00    +0.000 C 
ATOM     22  C   UNL     1       4.387   3.661  18.364  0.00  0.00    +0.000 C 
ATOM     23  C   UNL     1       4.013   5.022  17.788  0.00  0.00    +0.000 C 
ATOM     24  N   UNL     1       2.606   5.312  18.069  0.00  0.00    +0.000 N 
ATOM     25  C   UNL     1       1.629   4.334  17.596  0.00  0.00    +0.000 C 
ATOM     26  C   UNL     1       1.986   2.944  18.133  0.00  0.00    +0.000 C 
ENDBRANCH   1  24
TORSDOF 3
ENDMDL
MODEL 7
REMARK VINA RESULT:      -7.4      3.405      5.926
REMARK  Name = 
REMARK  4 active torsions:
REMARK  status: ('A' for Active; 'I' for Inactive)
REMARK    1  A    between atoms: C_1  and  C_2
REMARK    2  A    between atoms: N_5  and  C_6
REMARK    3  A    between atoms: C_9  and  N_10
REMARK    4  A    between atoms: C_15  and  C_16
REMARK                            x       y       z     vdW  Elec       q    Type
REMARK                         _______ _______ _______ _____ _____    ______ ____
ROOT
ATOM      1  C   UNL     1      -0.310  10.207  18.617  0.00  0.00    +0.000 A 
ATOM      2  C   UNL     1      -1.054   9.708  17.540  0.00  0.00    +0.000 A 
ATOM      3  C   UNL     1      -2.251  10.311  17.121  0.00  0.00    +0.000 A 
ATOM      4  C   UNL     1      -2.763  11.428  17.784  0.00  0.00    +0.000 A 
ATOM      5  C   UNL     1      -2.000  11.956  18.825  0.00  0.00    +0.000 A 
ATOM      6  C   UNL     1      -0.816  11.347  19.245  0.00  0.00    +0.000 A 
ENDROOT
BRANCH   4   7
ATOM      7  N   UNL     1      -3.982  11.987  17.367  0.00  0.00    +0.000 N 
ATOM      8  C   UNL     1      -5.117  12.250  18.142  0.00  0.00    +0.000 A 
ATOM      9  N   UNL     1      -6.287  12.210  17.488  0.00  0.00    +0.000 NA
ATOM     10  C   UNL     1      -7.402  12.319  18.231  0.00  0.00    +0.000 A 
ATOM     11  C   UNL     1      -7.396  12.462  19.594  0.00  0.00    +0.000 A 
ATOM     12  C   UNL     1      -6.159  12.522  20.183  0.00  0.00    +0.000 A 
ATOM     13  N   UNL     1      -5.026  12.446  19.463  0.00  0.00    +0.000 NA
ATOM     14  H   UNL     1      -4.300  11.699  16.454  0.00  0.00    +0.000 HD
BRANCH  12  15
ATOM     15  C   UNL     1      -5.944  12.653  21.630  0.00  0.00    +0.000 A 
ATOM     16  C   UNL     1      -6.888  12.629  22.648  0.00  0.00    +0.000 A 
ATOM     17  C   UNL     1      -6.312  12.812  23.940  0.00  0.00    +0.000 A 
ATOM     18  C   UNL     1      -4.951  12.997  23.873  0.00  0.00    +0.000 A 
ATOM     19  S   UNL     1      -4.375  12.944  22.267  0.00  0.00    +0.000 S 
ENDBRANCH  12  15
ENDBRANCH   4   7
BRANCH   1  24
ATOM     20  C   UNL     1       2.607   5.778  19.767  0.00  0.00    +0.000 C 
ATOM     21  C   UNL     1       2.423   7.287  19.652  0.00  0.00    +0.000 C 
ATOM     22  C   UNL     1       1.290   7.768  20.569  0.00  0.00    +0.000 C 
ATOM     23  C   UNL     1       1.099   9.275  20.433  0.00  0.00    +0.000 C 
ATOM     24  N   UNL     1       0.870   9.624  19.030  0.00  0.00    +0.000 N 
ATOM     25  C   UNL     1       1.896   9.208  18.076  0.00  0.00    +0.000 C 
ATOM     26  C   UNL     1       2.136   7.700  18.200  0.00  0.00    +0.000 C 
ENDBRANCH   1  24
TORSDOF 3
ENDMDL
MODEL 8
REMARK VINA RESULT:      -7.4      3.206      8.396
REMARK  Name = 
REMARK  4 active torsions:
REMARK  status: ('A' for Active; 'I' for Inactive)
REMARK    1  A    between atoms: C_1  and  C_2
REMARK    2  A    between atoms: N_5  and  C_6
REMARK    3  A    between atoms: C_9  and  N_10
REMARK    4  A    between atoms: C_15  and  C_16
REMARK                            x       y       z     vdW  Elec       q    Type
REMARK                         _______ _______ _______ _____ _____    ______ ____
ROOT
ATOM      1  C   UNL     1       1.015   9.952  19.285  0.00  0.00    +0.000 A 
ATOM      2  C   UNL     1       1.712   9.036  18.487  0.00  0.00    +0.000 A 
ATOM      3  C   UNL     1       2.119   7.784  18.978  0.00  0.00    +0.000 A 
ATOM      4  C   UNL     1       1.863   7.412  20.300  0.00  0.00    +0.000 A 
ATOM      5  C   UNL     1       1.126   8.302  21.080  0.00  0.00    +0.000 A 
ATOM      6  C   UNL     1       0.733   9.549  20.592  0.00  0.00    +0.000 A 
ENDROOT
BRANCH   4   7
ATOM      7  N   UNL     1       2.316   6.170  20.773  0.00  0.00    +0.000 N 
ATOM      8  C   UNL     1       2.973   5.164  20.056  0.00  0.00    +0.000 A 
ATOM      9  N   UNL     1       2.780   3.915  20.504  0.00  0.00    +0.000 NA
ATOM     10  C   UNL     1       3.282   2.917  19.754  0.00  0.00    +0.000 A 
ATOM     11  C   UNL     1       3.961   3.117  18.580  0.00  0.00    +0.000 A 
ATOM     12  C   UNL     1       4.140   4.425  18.208  0.00  0.00    +0.000 A 
ATOM     13  N   UNL     1       3.676   5.444  18.952  0.00  0.00    +0.000 NA
ATOM     14  H   UNL     1       1.715   5.718  21.446  0.00  0.00    +0.000 HD
BRANCH  12  15
ATOM     15  C   UNL     1       4.823   4.843  16.977  0.00  0.00    +0.000 A 
ATOM     16  C   UNL     1       4.868   6.106  16.401  0.00  0.00    +0.000 A 
ATOM     17  C   UNL     1       5.612   6.133  15.184  0.00  0.00    +0.000 A 
ATOM     18  C   UNL     1       6.092   4.888  14.850  0.00  0.00    +0.000 A 
ATOM     19  S   UNL     1       5.653   3.702  15.997  0.00  0.00    +0.000 S 
ENDBRANCH  12  15
ENDBRANCH   4   7
BRANCH   1  24
ATOM     20  C   UNL     1      -0.938  14.938  20.168  0.00  0.00    +0.000 C 
ATOM     21  C   UNL     1      -0.438  13.819  19.261  0.00  0.00    +0.000 C 
ATOM     22  C   UNL     1      -1.319  12.571  19.399  0.00  0.00    +0.000 C 
ATOM     23  C   UNL     1      -0.800  11.451  18.503  0.00  0.00    +0.000 C 
ATOM     24  N   UNL     1       0.606  11.181  18.808  0.00  0.00    +0.000 N 
ATOM     25  C   UNL     1       1.527  12.310  18.705  0.00  0.00    +0.000 C 
ATOM     26  C   UNL     1       1.025  13.468  19.572  0.00  0.00    +0.000 C 
ENDBRANCH   1  24
TORSDOF 3
ENDMDL
MODEL 9
REMARK VINA RESULT:      -7.3      3.416      8.178
REMARK  Name = 
REMARK  4 active torsions:
REMARK  status: ('A' for Active; 'I' for Inactive)
REMARK    1  A    between atoms: C_1  and  C_2
REMARK    2  A    between atoms: N_5  and  C_6
REMARK    3  A    between atoms: C_9  and  N_10
REMARK    4  A    between atoms: C_15  and  C_16
REMARK                            x       y       z     vdW  Elec       q    Type
REMARK                         _______ _______ _______ _____ _____    ______ ____
ROOT
ATOM      1  C   UNL     1       1.008  11.205  19.183  0.00  0.00    +0.000 A 
ATOM      2  C   UNL     1       0.820  10.966  20.551  0.00  0.00    +0.000 A 
ATOM      3  C   UNL     1       1.000   9.693  21.114  0.00  0.00    +0.000 A 
ATOM      4  C   UNL     1       1.352   8.599  20.320  0.00  0.00    +0.000 A 
ATOM      5  C   UNL     1       1.588   8.844  18.968  0.00  0.00    +0.000 A 
ATOM      6  C   UNL     1       1.398  10.109  18.410  0.00  0.00    +0.000 A 
ENDROOT
BRANCH   4   7
ATOM      7  N   UNL     1       1.487   7.329  20.905  0.00  0.00    +0.000 N 
ATOM      8  C   UNL     1       2.007   6.166  20.325  0.00  0.00    +0.000 A 
ATOM      9  N   UNL     1       1.516   5.013  20.802  0.00  0.00    +0.000 NA
ATOM     10  C   UNL     1       1.890   3.887  20.169  0.00  0.00    +0.000 A 
ATOM     11  C   UNL     1       2.727   3.867  19.084  0.00  0.00    +0.000 A 
ATOM     12  C   UNL     1       3.207   5.086  18.678  0.00  0.00    +0.000 A 
ATOM     13  N   UNL     1       2.875   6.226  19.308  0.00  0.00    +0.000 NA
ATOM     14  H   UNL     1       0.734   7.051  21.516  0.00  0.00    +0.000 HD
BRANCH  12  15
ATOM     15  C   UNL     1       4.099   5.275  17.526  0.00  0.00    +0.000 A 
ATOM     16  C   UNL     1       4.491   6.463  16.924  0.00  0.00    +0.000 A 
ATOM     17  C   UNL     1       5.352   6.259  15.805  0.00  0.00    +0.000 A 
ATOM     18  C   UNL     1       5.571   4.922  15.566  0.00  0.00    +0.000 A 
ATOM     19  S   UNL     1       4.752   3.927  16.684  0.00  0.00    +0.000 S 
ENDBRANCH  12  15
ENDBRANCH   4   7
BRANCH   1  24
ATOM     20  C   UNL     1       0.519  16.582  19.726  0.00  0.00    +0.000 C 
ATOM     21  C   UNL     1       0.569  15.302  18.898  0.00  0.00    +0.000 C 
ATOM     22  C   UNL     1      -0.556  14.343  19.309  0.00  0.00    +0.000 C 
ATOM     23  C   UNL     1      -0.487  13.058  18.491  0.00  0.00    +0.000 C 
ATOM     24  N   UNL     1       0.840  12.455  18.624  0.00  0.00    +0.000 N 
ATOM     25  C   UNL     1       1.980  13.291  18.256  0.00  0.00    +0.000 C 
ATOM     26  C   UNL     1       1.931  14.606  19.040  0.00  0.00    +0.000 C 
ENDBRANCH   1  24
TORSDOF 3
ENDMDL
