MODEL 1
REMARK VINA RESULT:      -8.3      0.000      0.000
REMARK  Name = 
REMARK  7 active torsions:
REMARK  status: ('A' for Active; 'I' for Inactive)
REMARK    1  A    between atoms: C_1  and  C_2
REMARK    2  A    between atoms: C_2  and  C_3
REMARK    3  A    between atoms: C_3  and  C_4
REMARK    4  A    between atoms: C_4  and  N_5
REMARK    5  A    between atoms: C_12  and  C_14
REMARK    6  A    between atoms: C_14  and  C_15
REMARK    7  A    between atoms: C_23  and  C_24
REMARK                            x       y       z     vdW  Elec       q    Type
REMARK                         _______ _______ _______ _____ _____    ______ ____
ROOT
ATOM      1  N   UNL     1       6.349   3.873  13.534  0.00  0.00    +0.000 N 
ATOM      2  C   UNL     1       7.120   4.902  14.014  0.00  0.00    +0.000 A 
ATOM      3  C   UNL     1       6.563   5.196  15.220  0.00  0.00    +0.000 A 
ATOM      4  C   UNL     1       5.488   4.322  15.404  0.00  0.00    +0.000 A 
ATOM      5  N   UNL     1       4.616   4.365  16.515  0.00  0.00    +0.000 NA
ATOM      6  C   UNL     1       4.898   5.281  17.404  0.00  0.00    +0.000 A 
ATOM      7  N   UNL     1       4.165   5.556  18.547  0.00  0.00    +0.000 N 
ATOM      8  C   UNL     1       2.847   5.179  18.760  0.00  0.00    +0.000 C 
ATOM      9  O   UNL     1       2.132   4.620  17.935  0.00  0.00    +0.000 OA
ATOM     10  N   UNL     1       6.001   6.158  17.318  0.00  0.00    +0.000 N 
ATOM     11  N   UNL     1       6.349   7.113  18.214  0.00  0.00    +0.000 NA
ATOM     12  C   UNL     1       7.400   7.679  17.578  0.00  0.00    +0.000 A 
ATOM     13  N   UNL     1       7.728   7.118  16.358  0.00  0.00    +0.000 NA
ATOM     14  C   UNL     1       6.838   6.175  16.245  0.00  0.00    +0.000 A 
ATOM     15  N   UNL     1       5.362   3.480  14.385  0.00  0.00    +0.000 NA
ATOM     16  H   UNL     1       4.559   6.250  19.178  0.00  0.00    +0.000 HD
ENDROOT
BRANCH  12  17
ATOM     17  C   UNL     1       8.192   8.826  18.112  0.00  0.00    +0.000 A 
ATOM     18  C   UNL     1       8.270  10.073  17.512  0.00  0.00    +0.000 A 
ATOM     19  C   UNL     1       9.126  10.863  18.314  0.00  0.00    +0.000 A 
ATOM     20  C   UNL     1       9.516  10.055  19.356  0.00  0.00    +0.000 A 
ATOM     21  O   UNL     1       8.954   8.823  19.248  0.00  0.00    +0.000 OA
ENDBRANCH  12  17
BRANCH   1  22
ATOM     22  C   UNL     1       6.494   3.239  12.235  0.00  0.00    +0.000 C 
BRANCH  22  23
ATOM     23  C   UNL     1       5.178   2.648  11.734  0.00  0.00    +0.000 C 
BRANCH  23  25
ATOM     24  C   UNL     1       3.354   3.359  10.164  0.00  0.00    +0.000 C 
ATOM     25  C   UNL     1       4.167   3.739  11.392  0.00  0.00    +0.000 C 
ENDBRANCH  23  25
ENDBRANCH  22  23
ENDBRANCH   1  22
BRANCH   8  26
ATOM     26  C   UNL     1       2.303   5.582  20.122  0.00  0.00    +0.000 C 
BRANCH  26  27
ATOM     27  C   UNL     1       1.801   7.005  20.181  0.00  0.00    +0.000 A 
ATOM     28  C   UNL     1       2.065   7.904  19.137  0.00  0.00    +0.000 A 
ATOM     29  C   UNL     1       1.562   9.206  19.174  0.00  0.00    +0.000 A 
ATOM     30  C   UNL     1       0.782   9.625  20.250  0.00  0.00    +0.000 A 
ATOM     31  C   UNL     1       0.506   8.740  21.290  0.00  0.00    +0.000 A 
ATOM     32  C   UNL     1       1.010   7.438  21.255  0.00  0.00    +0.000 A 
ENDBRANCH  26  27
ENDBRANCH   8  26
TORSDOF 6
ENDMDL
MODEL 2
REMARK VINA RESULT:      -7.9      0.638      1.165
REMARK  Name = 
REMARK  7 active torsions:
REMARK  status: ('A' for Active; 'I' for Inactive)
REMARK    1  A    between atoms: C_1  and  C_2
REMARK    2  A    between atoms: C_2  and  C_3
REMARK    3  A    between atoms: C_3  and  C_4
REMARK    4  A    between atoms: C_4  and  N_5
REMARK    5  A    between atoms: C_12  and  C_14
REMARK    6  A    between atoms: C_14  and  C_15
REMARK    7  A    between atoms: C_23  and  C_24
REMARK                            x       y       z     vdW  Elec       q    Type
REMARK                         _______ _______ _______ _____ _____    ______ ____
ROOT
ATOM      1  N   UNL     1       6.250   3.774  13.805  0.00  0.00    +0.000 N 
ATOM      2  C   UNL     1       7.037   4.821  14.213  0.00  0.00    +0.000 A 
ATOM      3  C   UNL     1       6.476   5.216  15.389  0.00  0.00    +0.000 A 
ATOM      4  C   UNL     1       5.382   4.379  15.627  0.00  0.00    +0.000 A 
ATOM      5  N   UNL     1       4.502   4.522  16.724  0.00  0.00    +0.000 NA
ATOM      6  C   UNL     1       4.796   5.497  17.544  0.00  0.00    +0.000 A 
ATOM      7  N   UNL     1       4.058   5.872  18.656  0.00  0.00    +0.000 N 
ATOM      8  C   UNL     1       2.732   5.538  18.884  0.00  0.00    +0.000 C 
ATOM      9  O   UNL     1       2.012   4.932  18.097  0.00  0.00    +0.000 OA
ATOM     10  N   UNL     1       5.916   6.344  17.402  0.00  0.00    +0.000 N 
ATOM     11  N   UNL     1       6.275   7.358  18.228  0.00  0.00    +0.000 NA
ATOM     12  C   UNL     1       7.343   7.854  17.561  0.00  0.00    +0.000 A 
ATOM     13  N   UNL     1       7.669   7.196  16.389  0.00  0.00    +0.000 NA
ATOM     14  C   UNL     1       6.762   6.264  16.340  0.00  0.00    +0.000 A 
ATOM     15  N   UNL     1       5.248   3.465  14.673  0.00  0.00    +0.000 NA
ATOM     16  H   UNL     1       4.461   6.604  19.237  0.00  0.00    +0.000 HD
ENDROOT
BRANCH  12  17
ATOM     17  C   UNL     1       8.153   9.023  18.014  0.00  0.00    +0.000 A 
ATOM     18  C   UNL     1       8.967   9.025  19.136  0.00  0.00    +0.000 A 
ATOM     19  C   UNL     1       9.540  10.314  19.226  0.00  0.00    +0.000 A 
ATOM     20  C   UNL     1       9.046  11.020  18.155  0.00  0.00    +0.000 A 
ATOM     21  O   UNL     1       8.211  10.248  17.412  0.00  0.00    +0.000 OA
ENDBRANCH  12  17
BRANCH   1  22
ATOM     22  C   UNL     1       6.392   3.041  12.559  0.00  0.00    +0.000 C 
BRANCH  22  23
ATOM     23  C   UNL     1       5.573   3.661  11.430  0.00  0.00    +0.000 C 
BRANCH  23  25
ATOM     24  C   UNL     1       3.362   3.700  10.243  0.00  0.00    +0.000 C 
ATOM     25  C   UNL     1       4.144   3.126  11.414  0.00  0.00    +0.000 C 
ENDBRANCH  23  25
ENDBRANCH  22  23
ENDBRANCH   1  22
BRANCH   8  26
ATOM     26  C   UNL     1       2.184   6.053  20.206  0.00  0.00    +0.000 C 
BRANCH  26  27
ATOM     27  C   UNL     1       1.669   7.470  20.142  0.00  0.00    +0.000 A 
ATOM     28  C   UNL     1       1.064   8.066  21.257  0.00  0.00    +0.000 A 
ATOM     29  C   UNL     1       0.628   9.393  21.208  0.00  0.00    +0.000 A 
ATOM     30  C   UNL     1       0.798  10.143  20.046  0.00  0.00    +0.000 A 
ATOM     31  C   UNL     1       1.404   9.565  18.933  0.00  0.00    +0.000 A 
ATOM     32  C   UNL     1       1.838   8.238  18.980  0.00  0.00    +0.000 A 
ENDBRANCH  26  27
ENDBRANCH   8  26
TORSDOF 6
ENDMDL
MODEL 3
REMARK VINA RESULT:      -7.9      0.641      1.291
REMARK  Name = 
REMARK  7 active torsions:
REMARK  status: ('A' for Active; 'I' for Inactive)
REMARK    1  A    between atoms: C_1  and  C_2
REMARK    2  A    between atoms: C_2  and  C_3
REMARK    3  A    between atoms: C_3  and  C_4
REMARK    4  A    between atoms: C_4  and  N_5
REMARK    5  A    between atoms: C_12  and  C_14
REMARK    6  A    between atoms: C_14  and  C_15
REMARK    7  A    between atoms: C_23  and  C_24
REMARK                            x       y       z     vdW  Elec       q    Type
REMARK                         _______ _______ _______ _____ _____    ______ ____
ROOT
ATOM      1  N   UNL     1       6.495   4.002  13.680  0.00  0.00    +0.000 N 
ATOM      2  C   UNL     1       7.277   5.020  14.166  0.00  0.00    +0.000 A 
ATOM      3  C   UNL     1       6.680   5.362  15.341  0.00  0.00    +0.000 A 
ATOM      4  C   UNL     1       5.573   4.524  15.501  0.00  0.00    +0.000 A 
ATOM      5  N   UNL     1       4.659   4.621  16.575  0.00  0.00    +0.000 NA
ATOM      6  C   UNL     1       4.933   5.551  17.452  0.00  0.00    +0.000 A 
ATOM      7  N   UNL     1       4.162   5.877  18.556  0.00  0.00    +0.000 N 
ATOM      8  C   UNL     1       2.827   5.544  18.724  0.00  0.00    +0.000 C 
ATOM      9  O   UNL     1       2.128   4.985  17.885  0.00  0.00    +0.000 OA
ATOM     10  N   UNL     1       6.064   6.393  17.389  0.00  0.00    +0.000 N 
ATOM     11  N   UNL     1       6.404   7.361  18.276  0.00  0.00    +0.000 NA
ATOM     12  C   UNL     1       7.497   7.880  17.669  0.00  0.00    +0.000 A 
ATOM     13  N   UNL     1       7.856   7.277  16.477  0.00  0.00    +0.000 NA
ATOM     14  C   UNL     1       6.943   6.358  16.352  0.00  0.00    +0.000 A 
ATOM     15  N   UNL     1       5.463   3.660  14.499  0.00  0.00    +0.000 NA
ATOM     16  H   UNL     1       4.551   6.575  19.186  0.00  0.00    +0.000 HD
ENDROOT
BRANCH  12  17
ATOM     17  C   UNL     1       8.301   9.016  18.207  0.00  0.00    +0.000 A 
ATOM     18  C   UNL     1       8.435  10.246  17.583  0.00  0.00    +0.000 A 
ATOM     19  C   UNL     1       9.283  11.031  18.399  0.00  0.00    +0.000 A 
ATOM     20  C   UNL     1       9.612  10.237  19.471  0.00  0.00    +0.000 A 
ATOM     21  O   UNL     1       9.020   9.018  19.370  0.00  0.00    +0.000 OA
ENDBRANCH  12  17
BRANCH   1  22
ATOM     22  C   UNL     1       6.673   3.331  12.404  0.00  0.00    +0.000 C 
BRANCH  22  23
ATOM     23  C   UNL     1       5.354   2.807  11.842  0.00  0.00    +0.000 C 
BRANCH  23  25
ATOM     24  C   UNL     1       6.989   1.194  10.831  0.00  0.00    +0.000 C 
ATOM     25  C   UNL     1       5.530   1.446  11.174  0.00  0.00    +0.000 C 
ENDBRANCH  23  25
ENDBRANCH  22  23
ENDBRANCH   1  22
BRANCH   8  26
ATOM     26  C   UNL     1       2.240   5.998  20.052  0.00  0.00    +0.000 C 
BRANCH  26  27
ATOM     27  C   UNL     1       1.706   7.410  20.032  0.00  0.00    +0.000 A 
ATOM     28  C   UNL     1       1.066   7.952  21.156  0.00  0.00    +0.000 A 
ATOM     29  C   UNL     1       0.613   9.274  21.150  0.00  0.00    +0.000 A 
ATOM     30  C   UNL     1       0.800  10.072  20.023  0.00  0.00    +0.000 A 
ATOM     31  C   UNL     1       1.440   9.548  18.902  0.00  0.00    +0.000 A 
ATOM     32  C   UNL     1       1.892   8.226  18.907  0.00  0.00    +0.000 A 
ENDBRANCH  26  27
ENDBRANCH   8  26
TORSDOF 6
ENDMDL
MODEL 4
REMARK VINA RESULT:      -7.4      4.619      9.258
REMARK  Name = 
REMARK  7 active torsions:
REMARK  status: ('A' for Active; 'I' for Inactive)
REMARK    1  A    between atoms: C_1  and  C_2
REMARK    2  A    between atoms: C_2  and  C_3
REMARK    3  A    between atoms: C_3  and  C_4
REMARK    4  A    between atoms: C_4  and  N_5
REMARK    5  A    between atoms: C_12  and  C_14
REMARK    6  A    between atoms: C_14  and  C_15
REMARK    7  A    between atoms: C_23  and  C_24
REMARK                            x       y       z     vdW  Elec       q    Type
REMARK                         _______ _______ _______ _____ _____    ______ ____
ROOT
ATOM      1  N   UNL     1      11.219  13.891  17.613  0.00  0.00    +0.000 N 
ATOM      2  C   UNL     1      10.781  14.055  18.903  0.00  0.00    +0.000 A 
ATOM      3  C   UNL     1      10.264  12.840  19.232  0.00  0.00    +0.000 A 
ATOM      4  C   UNL     1      10.425  12.007  18.121  0.00  0.00    +0.000 A 
ATOM      5  N   UNL     1       9.948  10.678  18.055  0.00  0.00    +0.000 NA
ATOM      6  C   UNL     1       9.352  10.250  19.137  0.00  0.00    +0.000 A 
ATOM      7  N   UNL     1       8.755   9.010  19.298  0.00  0.00    +0.000 N 
ATOM      8  C   UNL     1       8.367   8.171  18.264  0.00  0.00    +0.000 C 
ATOM      9  O   UNL     1       8.430   8.447  17.071  0.00  0.00    +0.000 OA
ATOM     10  N   UNL     1       9.206  11.011  20.317  0.00  0.00    +0.000 N 
ATOM     11  N   UNL     1       8.613  10.614  21.469  0.00  0.00    +0.000 NA
ATOM     12  C   UNL     1       8.687  11.755  22.193  0.00  0.00    +0.000 A 
ATOM     13  N   UNL     1       9.305  12.819  21.561  0.00  0.00    +0.000 NA
ATOM     14  C   UNL     1       9.615  12.305  20.406  0.00  0.00    +0.000 A 
ATOM     15  N   UNL     1      11.040  12.633  17.125  0.00  0.00    +0.000 NA
ATOM     16  H   UNL     1       8.399   8.800  20.228  0.00  0.00    +0.000 HD
ENDROOT
BRANCH  12  17
ATOM     17  C   UNL     1       8.163  11.909  23.582  0.00  0.00    +0.000 A 
ATOM     18  C   UNL     1       6.866  11.611  23.968  0.00  0.00    +0.000 A 
ATOM     19  C   UNL     1       6.769  11.908  25.347  0.00  0.00    +0.000 A 
ATOM     20  C   UNL     1       8.010  12.367  25.720  0.00  0.00    +0.000 A 
ATOM     21  O   UNL     1       8.863  12.368  24.663  0.00  0.00    +0.000 OA
ENDBRANCH  12  17
BRANCH   1  22
ATOM     22  C   UNL     1      11.797  14.928  16.775  0.00  0.00    +0.000 C 
BRANCH  22  23
ATOM     23  C   UNL     1      10.953  16.200  16.770  0.00  0.00    +0.000 C 
BRANCH  23  25
ATOM     24  C   UNL     1      11.298  18.631  17.292  0.00  0.00    +0.000 C 
ATOM     25  C   UNL     1      11.451  17.207  17.803  0.00  0.00    +0.000 C 
ENDBRANCH  23  25
ENDBRANCH  22  23
ENDBRANCH   1  22
BRANCH   8  26
ATOM     26  C   UNL     1       7.769   6.853  18.731  0.00  0.00    +0.000 C 
BRANCH  26  27
ATOM     27  C   UNL     1       6.935   6.157  17.683  0.00  0.00    +0.000 A 
ATOM     28  C   UNL     1       5.638   6.600  17.387  0.00  0.00    +0.000 A 
ATOM     29  C   UNL     1       4.884   5.981  16.386  0.00  0.00    +0.000 A 
ATOM     30  C   UNL     1       5.421   4.917  15.663  0.00  0.00    +0.000 A 
ATOM     31  C   UNL     1       6.710   4.471  15.943  0.00  0.00    +0.000 A 
ATOM     32  C   UNL     1       7.463   5.087  16.945  0.00  0.00    +0.000 A 
ENDBRANCH  26  27
ENDBRANCH   8  26
TORSDOF 6
ENDMDL
MODEL 5
REMARK VINA RESULT:      -7.4      2.267      6.236
REMARK  Name = 
REMARK  7 active torsions:
REMARK  status: ('A' for Active; 'I' for Inactive)
REMARK    1  A    between atoms: C_1  and  C_2
REMARK    2  A    between atoms: C_2  and  C_3
REMARK    3  A    between atoms: C_3  and  C_4
REMARK    4  A    between atoms: C_4  and  N_5
REMARK    5  A    between atoms: C_12  and  C_14
REMARK    6  A    between atoms: C_14  and  C_15
REMARK    7  A    between atoms: C_23  and  C_24
REMARK                            x       y       z     vdW  Elec       q    Type
REMARK                         _______ _______ _______ _____ _____    ______ ____
ROOT
ATOM      1  N   UNL     1       6.389   3.917  13.246  0.00  0.00    +0.000 N 
ATOM      2  C   UNL     1       5.604   3.429  14.260  0.00  0.00    +0.000 A 
ATOM      3  C   UNL     1       5.751   4.343  15.258  0.00  0.00    +0.000 A 
ATOM      4  C   UNL     1       6.613   5.337  14.786  0.00  0.00    +0.000 A 
ATOM      5  N   UNL     1       7.062   6.428  15.565  0.00  0.00    +0.000 NA
ATOM      6  C   UNL     1       6.588   6.470  16.783  0.00  0.00    +0.000 A 
ATOM      7  N   UNL     1       6.919   7.404  17.750  0.00  0.00    +0.000 N 
ATOM      8  C   UNL     1       8.047   8.212  17.728  0.00  0.00    +0.000 C 
ATOM      9  O   UNL     1       8.940   8.152  16.889  0.00  0.00    +0.000 OA
ATOM     10  N   UNL     1       5.668   5.538  17.309  0.00  0.00    +0.000 N 
ATOM     11  N   UNL     1       5.134   5.542  18.555  0.00  0.00    +0.000 NA
ATOM     12  C   UNL     1       4.415   4.395  18.521  0.00  0.00    +0.000 A 
ATOM     13  N   UNL     1       4.463   3.701  17.326  0.00  0.00    +0.000 NA
ATOM     14  C   UNL     1       5.244   4.453  16.606  0.00  0.00    +0.000 A 
ATOM     15  N   UNL     1       6.991   5.103  13.535  0.00  0.00    +0.000 NA
ATOM     16  H   UNL     1       6.405   7.346  18.627  0.00  0.00    +0.000 HD
ENDROOT
BRANCH  12  17
ATOM     17  C   UNL     1       3.604   3.873  19.659  0.00  0.00    +0.000 A 
ATOM     18  C   UNL     1       2.636   4.600  20.331  0.00  0.00    +0.000 A 
ATOM     19  C   UNL     1       2.118   3.760  21.344  0.00  0.00    +0.000 A 
ATOM     20  C   UNL     1       2.797   2.571  21.228  0.00  0.00    +0.000 A 
ATOM     21  O   UNL     1       3.695   2.625  20.210  0.00  0.00    +0.000 OA
ENDBRANCH  12  17
BRANCH   1  22
ATOM     22  C   UNL     1       6.628   3.266  11.969  0.00  0.00    +0.000 C 
BRANCH  22  23
ATOM     23  C   UNL     1       5.796   1.996  11.807  0.00  0.00    +0.000 C 
BRANCH  23  25
ATOM     24  C   UNL     1       5.980  -0.460  11.327  0.00  0.00    +0.000 C 
ATOM     25  C   UNL     1       6.563   0.916  11.049  0.00  0.00    +0.000 C 
ENDBRANCH  23  25
ENDBRANCH  22  23
ENDBRANCH   1  22
BRANCH   8  26
ATOM     26  C   UNL     1       8.140   9.174  18.902  0.00  0.00    +0.000 C 
BRANCH  26  27
ATOM     27  C   UNL     1       8.926  10.428  18.601  0.00  0.00    +0.000 A 
ATOM     28  C   UNL     1      10.216  10.608  19.119  0.00  0.00    +0.000 A 
ATOM     29  C   UNL     1      10.959  11.749  18.803  0.00  0.00    +0.000 A 
ATOM     30  C   UNL     1      10.423  12.721  17.960  0.00  0.00    +0.000 A 
ATOM     31  C   UNL     1       9.145  12.551  17.433  0.00  0.00    +0.000 A 
ATOM     32  C   UNL     1       8.401  11.412  17.750  0.00  0.00    +0.000 A 
ENDBRANCH  26  27
ENDBRANCH   8  26
TORSDOF 6
ENDMDL
MODEL 6
REMARK VINA RESULT:      -7.3      2.984      8.534
REMARK  Name = 
REMARK  7 active torsions:
REMARK  status: ('A' for Active; 'I' for Inactive)
REMARK    1  A    between atoms: C_1  and  C_2
REMARK    2  A    between atoms: C_2  and  C_3
REMARK    3  A    between atoms: C_3  and  C_4
REMARK    4  A    between atoms: C_4  and  N_5
REMARK    5  A    between atoms: C_12  and  C_14
REMARK    6  A    between atoms: C_14  and  C_15
REMARK    7  A    between atoms: C_23  and  C_24
REMARK                            x       y       z     vdW  Elec       q    Type
REMARK                         _______ _______ _______ _____ _____    ______ ____
ROOT
ATOM      1  N   UNL     1       1.124  10.057  18.548  0.00  0.00    +0.000 N 
ATOM      2  C   UNL     1       0.898   8.964  19.345  0.00  0.00    +0.000 A 
ATOM      3  C   UNL     1       1.883   8.092  18.995  0.00  0.00    +0.000 A 
ATOM      4  C   UNL     1       2.654   8.713  18.008  0.00  0.00    +0.000 A 
ATOM      5  N   UNL     1       3.736   8.092  17.343  0.00  0.00    +0.000 NA
ATOM      6  C   UNL     1       4.000   6.874  17.736  0.00  0.00    +0.000 A 
ATOM      7  N   UNL     1       4.971   6.042  17.202  0.00  0.00    +0.000 N 
ATOM      8  C   UNL     1       5.566   6.203  15.960  0.00  0.00    +0.000 C 
ATOM      9  O   UNL     1       5.257   7.059  15.137  0.00  0.00    +0.000 OA
ATOM     10  N   UNL     1       3.306   6.205  18.767  0.00  0.00    +0.000 N 
ATOM     11  N   UNL     1       3.547   4.951  19.224  0.00  0.00    +0.000 NA
ATOM     12  C   UNL     1       2.544   4.818  20.123  0.00  0.00    +0.000 A 
ATOM     13  N   UNL     1       1.717   5.918  20.256  0.00  0.00    +0.000 NA
ATOM     14  C   UNL     1       2.235   6.753  19.402  0.00  0.00    +0.000 A 
ATOM     15  N   UNL     1       2.215   9.938  17.742  0.00  0.00    +0.000 NA
ATOM     16  H   UNL     1       5.104   5.148  17.670  0.00  0.00    +0.000 HD
ENDROOT
BRANCH  12  17
ATOM     17  C   UNL     1       2.303   3.596  20.945  0.00  0.00    +0.000 A 
ATOM     18  C   UNL     1       3.193   2.540  21.059  0.00  0.00    +0.000 A 
ATOM     19  C   UNL     1       2.590   1.583  21.907  0.00  0.00    +0.000 A 
ATOM     20  C   UNL     1       1.372   2.111  22.262  0.00  0.00    +0.000 A 
ATOM     21  O   UNL     1       1.189   3.330  21.691  0.00  0.00    +0.000 OA
ENDBRANCH  12  17
BRANCH   1  22
ATOM     22  C   UNL     1       0.297  11.250  18.490  0.00  0.00    +0.000 C 
BRANCH  22  23
ATOM     23  C   UNL     1      -1.193  10.920  18.529  0.00  0.00    +0.000 C 
BRANCH  23  25
ATOM     24  C   UNL     1      -3.095   9.745  17.386  0.00  0.00    +0.000 C 
ATOM     25  C   UNL     1      -1.605  10.047  17.346  0.00  0.00    +0.000 C 
ENDBRANCH  23  25
ENDBRANCH  22  23
ENDBRANCH   1  22
BRANCH   8  26
ATOM     26  C   UNL     1       6.629   5.162  15.645  0.00  0.00    +0.000 C 
BRANCH  26  27
ATOM     27  C   UNL     1       6.611   4.688  14.212  0.00  0.00    +0.000 A 
ATOM     28  C   UNL     1       7.569   5.141  13.293  0.00  0.00    +0.000 A 
ATOM     29  C   UNL     1       7.577   4.667  11.979  0.00  0.00    +0.000 A 
ATOM     30  C   UNL     1       6.633   3.727  11.569  0.00  0.00    +0.000 A 
ATOM     31  C   UNL     1       5.681   3.263  12.473  0.00  0.00    +0.000 A 
ATOM     32  C   UNL     1       5.670   3.738  13.786  0.00  0.00    +0.000 A 
ENDBRANCH  26  27
ENDBRANCH   8  26
TORSDOF 6
ENDMDL
MODEL 7
REMARK VINA RESULT:      -7.2      6.917     11.741
REMARK  Name = 
REMARK  7 active torsions:
REMARK  status: ('A' for Active; 'I' for Inactive)
REMARK    1  A    between atoms: C_1  and  C_2
REMARK    2  A    between atoms: C_2  and  C_3
REMARK    3  A    between atoms: C_3  and  C_4
REMARK    4  A    between atoms: C_4  and  N_5
REMARK    5  A    between atoms: C_12  and  C_14
REMARK    6  A    between atoms: C_14  and  C_15
REMARK    7  A    between atoms: C_23  and  C_24
REMARK                            x       y       z     vdW  Elec       q    Type
REMARK                         _______ _______ _______ _____ _____    ______ ____
ROOT
ATOM      1  N   UNL     1      -4.645  12.839  20.205  0.00  0.00    +0.000 N 
ATOM      2  C   UNL     1      -4.979  12.504  18.917  0.00  0.00    +0.000 A 
ATOM      3  C   UNL     1      -3.895  11.818  18.463  0.00  0.00    +0.000 A 
ATOM      4  C   UNL     1      -2.967  11.772  19.508  0.00  0.00    +0.000 A 
ATOM      5  N   UNL     1      -1.680  11.199  19.397  0.00  0.00    +0.000 NA
ATOM      6  C   UNL     1      -1.408  10.672  18.232  0.00  0.00    +0.000 A 
ATOM      7  N   UNL     1      -0.201  10.103  17.861  0.00  0.00    +0.000 N 
ATOM      8  C   UNL     1       1.011  10.310  18.503  0.00  0.00    +0.000 C 
ATOM      9  O   UNL     1       1.190  11.085  19.437  0.00  0.00    +0.000 OA
ATOM     10  N   UNL     1      -2.314  10.627  17.150  0.00  0.00    +0.000 N 
ATOM     11  N   UNL     1      -2.091  10.082  15.929  0.00  0.00    +0.000 NA
ATOM     12  C   UNL     1      -3.244  10.406  15.299  0.00  0.00    +0.000 A 
ATOM     13  N   UNL     1      -4.165  11.098  16.065  0.00  0.00    +0.000 NA
ATOM     14  C   UNL     1      -3.545  11.202  17.205  0.00  0.00    +0.000 A 
ATOM     15  N   UNL     1      -3.428  12.372  20.599  0.00  0.00    +0.000 NA
ATOM     16  H   UNL     1      -0.172   9.668  16.941  0.00  0.00    +0.000 HD
ENDROOT
BRANCH  12  17
ATOM     17  C   UNL     1      -3.558  10.060  13.881  0.00  0.00    +0.000 A 
ATOM     18  C   UNL     1      -4.839   9.934  13.370  0.00  0.00    +0.000 A 
ATOM     19  C   UNL     1      -4.705   9.583  12.007  0.00  0.00    +0.000 A 
ATOM     20  C   UNL     1      -3.354   9.519  11.767  0.00  0.00    +0.000 A 
ATOM     21  O   UNL     1      -2.649   9.811  12.891  0.00  0.00    +0.000 OA
ENDBRANCH  12  17
BRANCH   1  22
ATOM     22  C   UNL     1      -5.449  13.644  21.108  0.00  0.00    +0.000 C 
BRANCH  22  23
ATOM     23  C   UNL     1      -6.944  13.485  20.843  0.00  0.00    +0.000 C 
BRANCH  23  25
ATOM     24  C   UNL     1      -7.088  12.840  23.264  0.00  0.00    +0.000 C 
ATOM     25  C   UNL     1      -7.598  12.554  21.861  0.00  0.00    +0.000 C 
ENDBRANCH  23  25
ENDBRANCH  22  23
ENDBRANCH   1  22
BRANCH   8  26
ATOM     26  C   UNL     1       2.169   9.527  17.903  0.00  0.00    +0.000 C 
BRANCH  26  27
ATOM     27  C   UNL     1       2.343   8.149  18.493  0.00  0.00    +0.000 A 
ATOM     28  C   UNL     1       3.067   7.161  17.810  0.00  0.00    +0.000 A 
ATOM     29  C   UNL     1       3.264   5.900  18.378  0.00  0.00    +0.000 A 
ATOM     30  C   UNL     1       2.748   5.613  19.641  0.00  0.00    +0.000 A 
ATOM     31  C   UNL     1       2.033   6.588  20.333  0.00  0.00    +0.000 A 
ATOM     32  C   UNL     1       1.833   7.848  19.765  0.00  0.00    +0.000 A 
ENDBRANCH  26  27
ENDBRANCH   8  26
TORSDOF 6
ENDMDL
MODEL 8
REMARK VINA RESULT:      -7.2      7.061     10.324
REMARK  Name = 
REMARK  7 active torsions:
REMARK  status: ('A' for Active; 'I' for Inactive)
REMARK    1  A    between atoms: C_1  and  C_2
REMARK    2  A    between atoms: C_2  and  C_3
REMARK    3  A    between atoms: C_3  and  C_4
REMARK    4  A    between atoms: C_4  and  N_5
REMARK    5  A    between atoms: C_12  and  C_14
REMARK    6  A    between atoms: C_14  and  C_15
REMARK    7  A    between atoms: C_23  and  C_24
REMARK                            x       y       z     vdW  Elec       q    Type
REMARK                         _______ _______ _______ _____ _____    ______ ____
ROOT
ATOM      1  N   UNL     1       1.206   9.650  18.321  0.00  0.00    +0.000 N 
ATOM      2  C   UNL     1       1.154  10.441  19.440  0.00  0.00    +0.000 A 
ATOM      3  C   UNL     1      -0.130  10.892  19.466  0.00  0.00    +0.000 A 
ATOM      4  C   UNL     1      -0.784  10.340  18.360  0.00  0.00    +0.000 A 
ATOM      5  N   UNL     1      -2.121  10.632  18.008  0.00  0.00    +0.000 NA
ATOM      6  C   UNL     1      -2.740  11.451  18.816  0.00  0.00    +0.000 A 
ATOM      7  N   UNL     1      -4.030  11.930  18.655  0.00  0.00    +0.000 N 
ATOM      8  C   UNL     1      -4.742  11.923  17.465  0.00  0.00    +0.000 C 
ATOM      9  O   UNL     1      -4.297  11.564  16.380  0.00  0.00    +0.000 OA
ATOM     10  N   UNL     1      -2.166  12.000  19.984  0.00  0.00    +0.000 N 
ATOM     11  N   UNL     1      -2.764  12.840  20.863  0.00  0.00    +0.000 NA
ATOM     12  C   UNL     1      -1.734  13.094  21.703  0.00  0.00    +0.000 A 
ATOM     13  N   UNL     1      -0.549  12.448  21.402  0.00  0.00    +0.000 NA
ATOM     14  C   UNL     1      -0.871  11.776  20.334  0.00  0.00    +0.000 A 
ATOM     15  N   UNL     1       0.020   9.548  17.661  0.00  0.00    +0.000 NA
ATOM     16  H   UNL     1      -4.396  12.502  19.413  0.00  0.00    +0.000 HD
ENDROOT
BRANCH  12  17
ATOM     17  C   UNL     1      -1.815  13.995  22.890  0.00  0.00    +0.000 A 
ATOM     18  C   UNL     1      -2.932  14.739  23.235  0.00  0.00    +0.000 A 
ATOM     19  C   UNL     1      -2.599  15.465  24.402  0.00  0.00    +0.000 A 
ATOM     20  C   UNL     1      -1.303  15.119  24.702  0.00  0.00    +0.000 A 
ATOM     21  O   UNL     1      -0.820  14.226  23.798  0.00  0.00    +0.000 OA
ENDBRANCH  12  17
BRANCH   1  22
ATOM     22  C   UNL     1       2.390   8.981  17.809  0.00  0.00    +0.000 C 
BRANCH  22  23
ATOM     23  C   UNL     1       2.298   7.464  17.948  0.00  0.00    +0.000 C 
BRANCH  23  25
ATOM     24  C   UNL     1       3.646   5.388  17.527  0.00  0.00    +0.000 C 
ATOM     25  C   UNL     1       3.682   6.823  18.029  0.00  0.00    +0.000 C 
ENDBRANCH  23  25
ENDBRANCH  22  23
ENDBRANCH   1  22
BRANCH   8  26
ATOM     26  C   UNL     1      -6.153  12.477  17.587  0.00  0.00    +0.000 C 
BRANCH  26  27
ATOM     27  C   UNL     1      -6.734  12.365  18.976  0.00  0.00    +0.000 A 
ATOM     28  C   UNL     1      -6.974  13.511  19.749  0.00  0.00    +0.000 A 
ATOM     29  C   UNL     1      -7.553  13.407  21.016  0.00  0.00    +0.000 A 
ATOM     30  C   UNL     1      -7.906  12.158  21.524  0.00  0.00    +0.000 A 
ATOM     31  C   UNL     1      -7.680  11.013  20.764  0.00  0.00    +0.000 A 
ATOM     32  C   UNL     1      -7.099  11.115  19.498  0.00  0.00    +0.000 A 
ENDBRANCH  26  27
ENDBRANCH   8  26
TORSDOF 6
ENDMDL
MODEL 9
REMARK VINA RESULT:      -7.1      6.742      9.861
REMARK  Name = 
REMARK  7 active torsions:
REMARK  status: ('A' for Active; 'I' for Inactive)
REMARK    1  A    between atoms: C_1  and  C_2
REMARK    2  A    between atoms: C_2  and  C_3
REMARK    3  A    between atoms: C_3  and  C_4
REMARK    4  A    between atoms: C_4  and  N_5
REMARK    5  A    between atoms: C_12  and  C_14
REMARK    6  A    between atoms: C_14  and  C_15
REMARK    7  A    between atoms: C_23  and  C_24
REMARK                            x       y       z     vdW  Elec       q    Type
REMARK                         _______ _______ _______ _____ _____    ______ ____
ROOT
ATOM      1  N   UNL     1       1.516   9.300  18.213  0.00  0.00    +0.000 N 
ATOM      2  C   UNL     1       1.523  10.150  19.290  0.00  0.00    +0.000 A 
ATOM      3  C   UNL     1       0.257  10.648  19.325  0.00  0.00    +0.000 A 
ATOM      4  C   UNL     1      -0.447  10.064  18.268  0.00  0.00    +0.000 A 
ATOM      5  N   UNL     1      -1.783  10.386  17.935  0.00  0.00    +0.000 NA
ATOM      6  C   UNL     1      -2.349  11.269  18.715  0.00  0.00    +0.000 A 
ATOM      7  N   UNL     1      -3.626  11.785  18.563  0.00  0.00    +0.000 N 
ATOM      8  C   UNL     1      -4.370  11.742  17.394  0.00  0.00    +0.000 C 
ATOM      9  O   UNL     1      -3.969  11.311  16.318  0.00  0.00    +0.000 OA
ATOM     10  N   UNL     1      -1.724  11.855  19.837  0.00  0.00    +0.000 N 
ATOM     11  N   UNL     1      -2.267  12.762  20.686  0.00  0.00    +0.000 NA
ATOM     12  C   UNL     1      -1.205  13.021  21.484  0.00  0.00    +0.000 A 
ATOM     13  N   UNL     1      -0.053  12.317  21.186  0.00  0.00    +0.000 NA
ATOM     14  C   UNL     1      -0.428  11.603  20.164  0.00  0.00    +0.000 A 
ATOM     15  N   UNL     1       0.309   9.208  17.591  0.00  0.00    +0.000 NA
ATOM     16  H   UNL     1      -3.950  12.409  19.299  0.00  0.00    +0.000 HD
ENDROOT
BRANCH  12  17
ATOM     17  C   UNL     1      -1.222  13.985  22.624  0.00  0.00    +0.000 A 
ATOM     18  C   UNL     1      -0.491  15.161  22.667  0.00  0.00    +0.000 A 
ATOM     19  C   UNL     1      -0.769  15.773  23.911  0.00  0.00    +0.000 A 
ATOM     20  C   UNL     1      -1.653  14.937  24.551  0.00  0.00    +0.000 A 
ATOM     21  O   UNL     1      -1.939  13.855  23.780  0.00  0.00    +0.000 OA
ENDBRANCH  12  17
BRANCH   1  22
ATOM     22  C   UNL     1       2.661   8.563  17.706  0.00  0.00    +0.000 C 
BRANCH  22  23
ATOM     23  C   UNL     1       2.576   7.075  18.034  0.00  0.00    +0.000 C 
BRANCH  23  25
ATOM     24  C   UNL     1       4.658   6.679  16.689  0.00  0.00    +0.000 C 
ATOM     25  C   UNL     1       3.953   6.416  18.010  0.00  0.00    +0.000 C 
ENDBRANCH  23  25
ENDBRANCH  22  23
ENDBRANCH   1  22
BRANCH   8  26
ATOM     26  C   UNL     1      -5.757  12.353  17.523  0.00  0.00    +0.000 C 
BRANCH  26  27
ATOM     27  C   UNL     1      -6.516  11.891  18.743  0.00  0.00    +0.000 A 
ATOM     28  C   UNL     1      -6.762  10.528  18.963  0.00  0.00    +0.000 A 
ATOM     29  C   UNL     1      -7.425  10.099  20.115  0.00  0.00    +0.000 A 
ATOM     30  C   UNL     1      -7.845  11.027  21.067  0.00  0.00    +0.000 A 
ATOM     31  C   UNL     1      -7.601  12.383  20.865  0.00  0.00    +0.000 A 
ATOM     32  C   UNL     1      -6.939  12.813  19.712  0.00  0.00    +0.000 A 
ENDBRANCH  26  27
ENDBRANCH   8  26
TORSDOF 6
ENDMDL
