MODEL 1
REMARK VINA RESULT:      -9.1      0.000      0.000
REMARK  Name = 
REMARK  12 active torsions:
REMARK  status: ('A' for Active; 'I' for Inactive)
REMARK    1  A    between atoms: C_1  and  C_2
REMARK    2  A    between atoms: C_2  and  N_3
REMARK    3  A    between atoms: N_3  and  C_4
REMARK    4  A    between atoms: N_3  and  C_30
REMARK    5  A    between atoms: C_4  and  C_5
REMARK    6  A    between atoms: C_5  and  C_6
REMARK    7  A    between atoms: C_5  and  N_13
REMARK    8  A    between atoms: C_6  and  C_7
REMARK    9  A    between atoms: C_14  and  C_16
REMARK   10  A    between atoms: C_16  and  N_17
REMARK   11  A    between atoms: N_24  and  C_25
REMARK   12  A    between atoms: N_28  and  C_29
REMARK                            x       y       z     vdW  Elec       q    Type
REMARK                         _______ _______ _______ _____ _____    ______ ____
ROOT
ATOM      1  C   UNL     1       4.337   4.031  17.231  0.00  0.00    +0.000 C 
ENDROOT
BRANCH   1   2
ATOM      2  N   UNL     1       3.399   5.190  17.264  0.00  0.00    +0.000 N 
ATOM      3  C   UNL     1       3.573   6.208  18.171  0.00  0.00    +0.000 C 
ATOM      4  O   UNL     1       4.364   6.106  19.084  0.00  0.00    +0.000 OA
ATOM      5  H   UNL     1       2.914   5.400  16.405  0.00  0.00    +0.000 HD
BRANCH   3   6
ATOM      6  C   UNL     1       2.745   7.483  18.013  0.00  0.00    +0.000 C 
BRANCH   6   7
ATOM      7  N   UNL     1       2.088   7.855  19.255  0.00  0.00    +0.000 N 
ATOM      8  C   UNL     1       1.891   7.076  20.370  0.00  0.00    +0.000 A 
ATOM      9  N   UNL     1       1.170   7.703  21.284  0.00  0.00    +0.000 NA
ATOM     10  C   UNL     1       0.906   8.924  20.750  0.00  0.00    +0.000 A 
ATOM     11  C   UNL     1       1.498   9.056  19.520  0.00  0.00    +0.000 A 
ATOM     12  C   UNL     1       1.419  10.251  18.759  0.00  0.00    +0.000 A 
ATOM     13  O   UNL     1       2.062  10.397  17.718  0.00  0.00    +0.000 OA
ATOM     14  N   UNL     1       0.583  11.204  19.306  0.00  0.00    +0.000 N 
ATOM     15  C   UNL     1       0.378  12.423  18.557  0.00  0.00    +0.000 C 
ATOM     16  C   UNL     1      -0.060  11.109  20.564  0.00  0.00    +0.000 A 
ATOM     17  O   UNL     1      -0.756  12.031  20.983  0.00  0.00    +0.000 OA
ATOM     18  N   UNL     1       0.136   9.927  21.285  0.00  0.00    +0.000 N 
ATOM     19  C   UNL     1      -0.517   9.747  22.567  0.00  0.00    +0.000 C 
ENDBRANCH   6   7
ENDBRANCH   3   6
ENDBRANCH   1   2
BRANCH   1  20
ATOM     20  C   UNL     1       4.992   3.813  15.827  0.00  0.00    +0.000 C 
BRANCH  20  21
ATOM     21  N   UNL     1       6.176   4.691  15.549  0.00  0.00    +0.000 N 
BRANCH  21  22
ATOM     22  C   UNL     1       6.828   5.367  16.606  0.00  0.00    +0.000 A 
ATOM     23  C   UNL     1       6.962   6.776  16.641  0.00  0.00    +0.000 A 
ATOM     24  C   UNL     1       7.584   7.448  17.703  0.00  0.00    +0.000 A 
ATOM     25  C   UNL     1       8.101   6.732  18.770  0.00  0.00    +0.000 A 
ATOM     26  C   UNL     1       8.007   5.350  18.764  0.00  0.00    +0.000 A 
ATOM     27  C   UNL     1       7.378   4.688  17.703  0.00  0.00    +0.000 A 
ENDBRANCH  21  22
BRANCH  21  29
ATOM     28  C   UNL     1       6.442   3.853  13.093  0.00  0.00    +0.000 C 
ATOM     29  C   UNL     1       6.885   4.733  14.245  0.00  0.00    +0.000 C 
ENDBRANCH  21  29
ENDBRANCH  20  21
ENDBRANCH   1  20
BRANCH   1  30
ATOM     30  C   UNL     1       3.797   2.677  17.882  0.00  0.00    +0.000 C 
BRANCH  30  31
ATOM     31  C   UNL     1       2.898   2.671  19.118  0.00  0.00    +0.000 A 
ATOM     32  C   UNL     1       1.502   2.746  18.991  0.00  0.00    +0.000 A 
ATOM     33  C   UNL     1       0.683   2.954  20.110  0.00  0.00    +0.000 A 
ATOM     34  C   UNL     1       1.228   2.956  21.391  0.00  0.00    +0.000 A 
ATOM     35  C   UNL     1       2.582   2.669  21.547  0.00  0.00    +0.000 A 
ATOM     36  C   UNL     1       3.413   2.538  20.421  0.00  0.00    +0.000 A 
ENDBRANCH  30  31
ENDBRANCH   1  30
TORSDOF 9
ENDMDL
MODEL 2
REMARK VINA RESULT:      -8.8      2.358      4.026
REMARK  Name = 
REMARK  12 active torsions:
REMARK  status: ('A' for Active; 'I' for Inactive)
REMARK    1  A    between atoms: C_1  and  C_2
REMARK    2  A    between atoms: C_2  and  N_3
REMARK    3  A    between atoms: N_3  and  C_4
REMARK    4  A    between atoms: N_3  and  C_30
REMARK    5  A    between atoms: C_4  and  C_5
REMARK    6  A    between atoms: C_5  and  C_6
REMARK    7  A    between atoms: C_5  and  N_13
REMARK    8  A    between atoms: C_6  and  C_7
REMARK    9  A    between atoms: C_14  and  C_16
REMARK   10  A    between atoms: C_16  and  N_17
REMARK   11  A    between atoms: N_24  and  C_25
REMARK   12  A    between atoms: N_28  and  C_29
REMARK                            x       y       z     vdW  Elec       q    Type
REMARK                         _______ _______ _______ _____ _____    ______ ____
ROOT
ATOM      1  C   UNL     1       2.840   7.205  18.249  0.00  0.00    +0.000 C 
ENDROOT
BRANCH   1   2
ATOM      2  N   UNL     1       2.142   8.500  18.009  0.00  0.00    +0.000 N 
ATOM      3  C   UNL     1       1.462   9.130  19.025  0.00  0.00    +0.000 C 
ATOM      4  O   UNL     1       1.249   8.570  20.078  0.00  0.00    +0.000 OA
ATOM      5  H   UNL     1       2.493   9.067  17.252  0.00  0.00    +0.000 HD
BRANCH   3   6
ATOM      6  C   UNL     1       0.971  10.560  18.804  0.00  0.00    +0.000 C 
BRANCH   6   7
ATOM      7  N   UNL     1      -0.457  10.603  18.533  0.00  0.00    +0.000 N 
ATOM      8  C   UNL     1      -1.138   9.989  17.509  0.00  0.00    +0.000 A 
ATOM      9  N   UNL     1      -2.419  10.319  17.506  0.00  0.00    +0.000 NA
ATOM     10  C   UNL     1      -2.570  11.158  18.565  0.00  0.00    +0.000 A 
ATOM     11  C   UNL     1      -1.385  11.312  19.237  0.00  0.00    +0.000 A 
ATOM     12  C   UNL     1      -1.270  12.101  20.410  0.00  0.00    +0.000 A 
ATOM     13  O   UNL     1      -0.231  12.126  21.073  0.00  0.00    +0.000 OA
ATOM     14  N   UNL     1      -2.417  12.802  20.723  0.00  0.00    +0.000 N 
ATOM     15  C   UNL     1      -2.367  13.697  21.858  0.00  0.00    +0.000 C 
ATOM     16  C   UNL     1      -3.660  12.687  20.054  0.00  0.00    +0.000 A 
ATOM     17  O   UNL     1      -4.638  13.325  20.433  0.00  0.00    +0.000 OA
ATOM     18  N   UNL     1      -3.706  11.824  18.954  0.00  0.00    +0.000 N 
ATOM     19  C   UNL     1      -4.936  11.680  18.201  0.00  0.00    +0.000 C 
ENDBRANCH   6   7
ENDBRANCH   3   6
ENDBRANCH   1   2
BRANCH   1  20
ATOM     20  C   UNL     1       4.331   7.216  17.772  0.00  0.00    +0.000 C 
BRANCH  20  21
ATOM     21  N   UNL     1       5.016   5.884  17.833  0.00  0.00    +0.000 N 
BRANCH  21  22
ATOM     22  C   UNL     1       5.551   5.301  16.662  0.00  0.00    +0.000 A 
ATOM     23  C   UNL     1       4.798   4.444  15.824  0.00  0.00    +0.000 A 
ATOM     24  C   UNL     1       5.321   3.888  14.648  0.00  0.00    +0.000 A 
ATOM     25  C   UNL     1       6.623   4.166  14.268  0.00  0.00    +0.000 A 
ATOM     26  C   UNL     1       7.401   4.985  15.072  0.00  0.00    +0.000 A 
ATOM     27  C   UNL     1       6.867   5.541  16.241  0.00  0.00    +0.000 A 
ENDBRANCH  21  22
BRANCH  21  29
ATOM     28  C   UNL     1       5.083   3.736  19.314  0.00  0.00    +0.000 C 
ATOM     29  C   UNL     1       5.390   5.205  19.100  0.00  0.00    +0.000 C 
ENDBRANCH  21  29
ENDBRANCH  20  21
ENDBRANCH   1  20
BRANCH   1  30
ATOM     30  C   UNL     1       2.054   5.892  17.799  0.00  0.00    +0.000 C 
BRANCH  30  31
ATOM     31  C   UNL     1       1.732   4.761  18.776  0.00  0.00    +0.000 A 
ATOM     32  C   UNL     1       1.747   4.983  20.162  0.00  0.00    +0.000 A 
ATOM     33  C   UNL     1       1.664   3.917  21.068  0.00  0.00    +0.000 A 
ATOM     34  C   UNL     1       1.429   2.622  20.613  0.00  0.00    +0.000 A 
ATOM     35  C   UNL     1       1.199   2.419  19.254  0.00  0.00    +0.000 A 
ATOM     36  C   UNL     1       1.359   3.476  18.341  0.00  0.00    +0.000 A 
ENDBRANCH  30  31
ENDBRANCH   1  30
TORSDOF 9
ENDMDL
MODEL 3
REMARK VINA RESULT:      -8.7      2.028      3.917
REMARK  Name = 
REMARK  12 active torsions:
REMARK  status: ('A' for Active; 'I' for Inactive)
REMARK    1  A    between atoms: C_1  and  C_2
REMARK    2  A    between atoms: C_2  and  N_3
REMARK    3  A    between atoms: N_3  and  C_4
REMARK    4  A    between atoms: N_3  and  C_30
REMARK    5  A    between atoms: C_4  and  C_5
REMARK    6  A    between atoms: C_5  and  C_6
REMARK    7  A    between atoms: C_5  and  N_13
REMARK    8  A    between atoms: C_6  and  C_7
REMARK    9  A    between atoms: C_14  and  C_16
REMARK   10  A    between atoms: C_16  and  N_17
REMARK   11  A    between atoms: N_24  and  C_25
REMARK   12  A    between atoms: N_28  and  C_29
REMARK                            x       y       z     vdW  Elec       q    Type
REMARK                         _______ _______ _______ _____ _____    ______ ____
ROOT
ATOM      1  C   UNL     1       2.920   6.825  18.159  0.00  0.00    +0.000 C 
ENDROOT
BRANCH   1   2
ATOM      2  N   UNL     1       2.386   8.197  17.917  0.00  0.00    +0.000 N 
ATOM      3  C   UNL     1       1.812   8.917  18.938  0.00  0.00    +0.000 C 
ATOM      4  O   UNL     1       1.552   8.397  20.001  0.00  0.00    +0.000 OA
ATOM      5  H   UNL     1       2.791   8.707  17.147  0.00  0.00    +0.000 HD
BRANCH   3   6
ATOM      6  C   UNL     1       1.501  10.396  18.710  0.00  0.00    +0.000 C 
BRANCH   6   7
ATOM      7  N   UNL     1       0.071  10.658  18.758  0.00  0.00    +0.000 N 
ATOM      8  C   UNL     1      -0.892  10.239  17.872  0.00  0.00    +0.000 A 
ATOM      9  N   UNL     1      -2.079  10.740  18.167  0.00  0.00    +0.000 NA
ATOM     10  C   UNL     1      -1.878  11.493  19.280  0.00  0.00    +0.000 A 
ATOM     11  C   UNL     1      -0.571  11.422  19.687  0.00  0.00    +0.000 A 
ATOM     12  C   UNL     1      -0.096  12.079  20.851  0.00  0.00    +0.000 A 
ATOM     13  O   UNL     1       1.047  11.901  21.273  0.00  0.00    +0.000 OA
ATOM     14  N   UNL     1      -1.034  12.900  21.447  0.00  0.00    +0.000 N 
ATOM     15  C   UNL     1      -0.614  13.673  22.594  0.00  0.00    +0.000 C 
ATOM     16  C   UNL     1      -2.390  13.017  21.057  0.00  0.00    +0.000 A 
ATOM     17  O   UNL     1      -3.159  13.747  21.677  0.00  0.00    +0.000 OA
ATOM     18  N   UNL     1      -2.794  12.271  19.945  0.00  0.00    +0.000 N 
ATOM     19  C   UNL     1      -4.160  12.366  19.470  0.00  0.00    +0.000 C 
ENDBRANCH   6   7
ENDBRANCH   3   6
ENDBRANCH   1   2
BRANCH   1  20
ATOM     20  C   UNL     1       4.178   6.496  17.286  0.00  0.00    +0.000 C 
BRANCH  20  21
ATOM     21  N   UNL     1       5.138   5.532  17.916  0.00  0.00    +0.000 N 
BRANCH  21  22
ATOM     22  C   UNL     1       4.752   4.194  18.158  0.00  0.00    +0.000 A 
ATOM     23  C   UNL     1       4.978   3.549  19.397  0.00  0.00    +0.000 A 
ATOM     24  C   UNL     1       4.570   2.230  19.646  0.00  0.00    +0.000 A 
ATOM     25  C   UNL     1       3.924   1.506  18.658  0.00  0.00    +0.000 A 
ATOM     26  C   UNL     1       3.702   2.095  17.424  0.00  0.00    +0.000 A 
ATOM     27  C   UNL     1       4.107   3.415  17.188  0.00  0.00    +0.000 A 
ENDBRANCH  21  22
BRANCH  21  29
ATOM     28  C   UNL     1       7.204   7.089  17.569  0.00  0.00    +0.000 C 
ATOM     29  C   UNL     1       6.585   5.814  18.107  0.00  0.00    +0.000 C 
ENDBRANCH  21  29
ENDBRANCH  20  21
ENDBRANCH   1  20
BRANCH   1  30
ATOM     30  C   UNL     1       1.845   5.647  18.168  0.00  0.00    +0.000 C 
BRANCH  30  31
ATOM     31  C   UNL     1       1.654   4.730  19.376  0.00  0.00    +0.000 A 
ATOM     32  C   UNL     1       2.180   5.075  20.631  0.00  0.00    +0.000 A 
ATOM     33  C   UNL     1       2.198   4.155  21.688  0.00  0.00    +0.000 A 
ATOM     34  C   UNL     1       1.570   2.919  21.556  0.00  0.00    +0.000 A 
ATOM     35  C   UNL     1       0.859   2.646  20.389  0.00  0.00    +0.000 A 
ATOM     36  C   UNL     1       0.908   3.539  19.305  0.00  0.00    +0.000 A 
ENDBRANCH  30  31
ENDBRANCH   1  30
TORSDOF 9
ENDMDL
MODEL 4
REMARK VINA RESULT:      -8.6      2.467      4.066
REMARK  Name = 
REMARK  12 active torsions:
REMARK  status: ('A' for Active; 'I' for Inactive)
REMARK    1  A    between atoms: C_1  and  C_2
REMARK    2  A    between atoms: C_2  and  N_3
REMARK    3  A    between atoms: N_3  and  C_4
REMARK    4  A    between atoms: N_3  and  C_30
REMARK    5  A    between atoms: C_4  and  C_5
REMARK    6  A    between atoms: C_5  and  C_6
REMARK    7  A    between atoms: C_5  and  N_13
REMARK    8  A    between atoms: C_6  and  C_7
REMARK    9  A    between atoms: C_14  and  C_16
REMARK   10  A    between atoms: C_16  and  N_17
REMARK   11  A    between atoms: N_24  and  C_25
REMARK   12  A    between atoms: N_28  and  C_29
REMARK                            x       y       z     vdW  Elec       q    Type
REMARK                         _______ _______ _______ _____ _____    ______ ____
ROOT
ATOM      1  C   UNL     1       2.763   7.238  18.281  0.00  0.00    +0.000 C 
ENDROOT
BRANCH   1   2
ATOM      2  N   UNL     1       2.002   8.499  18.046  0.00  0.00    +0.000 N 
ATOM      3  C   UNL     1       1.370   9.142  19.084  0.00  0.00    +0.000 C 
ATOM      4  O   UNL     1       1.250   8.613  20.167  0.00  0.00    +0.000 OA
ATOM      5  H   UNL     1       2.280   9.050  17.248  0.00  0.00    +0.000 HD
BRANCH   3   6
ATOM      6  C   UNL     1       0.812  10.545  18.849  0.00  0.00    +0.000 C 
BRANCH   6   7
ATOM      7  N   UNL     1      -0.580  10.507  18.427  0.00  0.00    +0.000 N 
ATOM      8  C   UNL     1      -1.114   9.847  17.347  0.00  0.00    +0.000 A 
ATOM      9  N   UNL     1      -2.403  10.107  17.204  0.00  0.00    +0.000 NA
ATOM     10  C   UNL     1      -2.710  10.947  18.226  0.00  0.00    +0.000 A 
ATOM     11  C   UNL     1      -1.613  11.172  19.018  0.00  0.00    +0.000 A 
ATOM     12  C   UNL     1      -1.666  11.979  20.184  0.00  0.00    +0.000 A 
ATOM     13  O   UNL     1      -0.706  12.066  20.952  0.00  0.00    +0.000 OA
ATOM     14  N   UNL     1      -2.876  12.619  20.362  0.00  0.00    +0.000 N 
ATOM     15  C   UNL     1      -2.994  13.527  21.481  0.00  0.00    +0.000 C 
ATOM     16  C   UNL     1      -4.032  12.430  19.567  0.00  0.00    +0.000 A 
ATOM     17  O   UNL     1      -5.077  13.018  19.830  0.00  0.00    +0.000 OA
ATOM     18  N   UNL     1      -3.915  11.555  18.483  0.00  0.00    +0.000 N 
ATOM     19  C   UNL     1      -5.049  11.336  17.606  0.00  0.00    +0.000 C 
ENDBRANCH   6   7
ENDBRANCH   3   6
ENDBRANCH   1   2
BRANCH   1  20
ATOM     20  C   UNL     1       4.213   7.280  17.692  0.00  0.00    +0.000 C 
BRANCH  20  21
ATOM     21  N   UNL     1       4.978   5.998  17.828  0.00  0.00    +0.000 N 
BRANCH  21  22
ATOM     22  C   UNL     1       5.395   5.289  16.679  0.00  0.00    +0.000 A 
ATOM     23  C   UNL     1       6.261   5.850  15.710  0.00  0.00    +0.000 A 
ATOM     24  C   UNL     1       6.696   5.136  14.584  0.00  0.00    +0.000 A 
ATOM     25  C   UNL     1       6.275   3.832  14.383  0.00  0.00    +0.000 A 
ATOM     26  C   UNL     1       5.411   3.253  15.299  0.00  0.00    +0.000 A 
ATOM     27  C   UNL     1       4.988   3.972  16.423  0.00  0.00    +0.000 A 
ENDBRANCH  21  22
BRANCH  21  29
ATOM     28  C   UNL     1       7.044   5.565  19.362  0.00  0.00    +0.000 C 
ATOM     29  C   UNL     1       5.550   5.510  19.110  0.00  0.00    +0.000 C 
ENDBRANCH  21  29
ENDBRANCH  20  21
ENDBRANCH   1  20
BRANCH   1  30
ATOM     30  C   UNL     1       1.993   5.883  17.942  0.00  0.00    +0.000 C 
BRANCH  30  31
ATOM     31  C   UNL     1       1.903   4.728  18.939  0.00  0.00    +0.000 A 
ATOM     32  C   UNL     1       1.734   3.407  18.495  0.00  0.00    +0.000 A 
ATOM     33  C   UNL     1       1.438   2.372  19.393  0.00  0.00    +0.000 A 
ATOM     34  C   UNL     1       1.439   2.609  20.765  0.00  0.00    +0.000 A 
ATOM     35  C   UNL     1       1.816   3.867  21.231  0.00  0.00    +0.000 A 
ATOM     36  C   UNL     1       2.036   4.920  20.327  0.00  0.00    +0.000 A 
ENDBRANCH  30  31
ENDBRANCH   1  30
TORSDOF 9
ENDMDL
MODEL 5
REMARK VINA RESULT:      -8.5      2.156      3.719
REMARK  Name = 
REMARK  12 active torsions:
REMARK  status: ('A' for Active; 'I' for Inactive)
REMARK    1  A    between atoms: C_1  and  C_2
REMARK    2  A    between atoms: C_2  and  N_3
REMARK    3  A    between atoms: N_3  and  C_4
REMARK    4  A    between atoms: N_3  and  C_30
REMARK    5  A    between atoms: C_4  and  C_5
REMARK    6  A    between atoms: C_5  and  C_6
REMARK    7  A    between atoms: C_5  and  N_13
REMARK    8  A    between atoms: C_6  and  C_7
REMARK    9  A    between atoms: C_14  and  C_16
REMARK   10  A    between atoms: C_16  and  N_17
REMARK   11  A    between atoms: N_24  and  C_25
REMARK   12  A    between atoms: N_28  and  C_29
REMARK                            x       y       z     vdW  Elec       q    Type
REMARK                         _______ _______ _______ _____ _____    ______ ____
ROOT
ATOM      1  C   UNL     1       2.883   7.174  18.191  0.00  0.00    +0.000 C 
ENDROOT
BRANCH   1   2
ATOM      2  N   UNL     1       2.115   8.407  17.850  0.00  0.00    +0.000 N 
ATOM      3  C   UNL     1       1.464   9.120  18.828  0.00  0.00    +0.000 C 
ATOM      4  O   UNL     1       1.334   8.675  19.948  0.00  0.00    +0.000 OA
ATOM      5  H   UNL     1       2.399   8.897  17.016  0.00  0.00    +0.000 HD
BRANCH   3   6
ATOM      6  C   UNL     1       0.898  10.497  18.480  0.00  0.00    +0.000 C 
BRANCH   6   7
ATOM      7  N   UNL     1       0.437  11.205  19.664  0.00  0.00    +0.000 N 
ATOM      8  C   UNL     1       1.152  11.498  20.801  0.00  0.00    +0.000 A 
ATOM      9  N   UNL     1       0.393  12.068  21.721  0.00  0.00    +0.000 NA
ATOM     10  C   UNL     1      -0.840  12.157  21.159  0.00  0.00    +0.000 A 
ATOM     11  C   UNL     1      -0.826  11.672  19.876  0.00  0.00    +0.000 A 
ATOM     12  C   UNL     1      -1.974  11.686  19.042  0.00  0.00    +0.000 A 
ATOM     13  O   UNL     1      -1.912  11.366  17.854  0.00  0.00    +0.000 OA
ATOM     14  N   UNL     1      -3.123  12.100  19.685  0.00  0.00    +0.000 N 
ATOM     15  C   UNL     1      -4.358  12.069  18.934  0.00  0.00    +0.000 C 
ATOM     16  C   UNL     1      -3.191  12.597  21.009  0.00  0.00    +0.000 A 
ATOM     17  O   UNL     1      -4.259  12.980  21.481  0.00  0.00    +0.000 OA
ATOM     18  N   UNL     1      -1.996  12.623  21.735  0.00  0.00    +0.000 N 
ATOM     19  C   UNL     1      -1.996  13.090  23.108  0.00  0.00    +0.000 C 
ENDBRANCH   6   7
ENDBRANCH   3   6
ENDBRANCH   1   2
BRANCH   1  20
ATOM     20  C   UNL     1       4.373   7.232  17.716  0.00  0.00    +0.000 C 
BRANCH  20  21
ATOM     21  N   UNL     1       5.085   5.912  17.736  0.00  0.00    +0.000 N 
BRANCH  21  22
ATOM     22  C   UNL     1       5.592   5.355  16.539  0.00  0.00    +0.000 A 
ATOM     23  C   UNL     1       6.936   5.522  16.132  0.00  0.00    +0.000 A 
ATOM     24  C   UNL     1       7.446   4.946  14.959  0.00  0.00    +0.000 A 
ATOM     25  C   UNL     1       6.623   4.185  14.145  0.00  0.00    +0.000 A 
ATOM     26  C   UNL     1       5.294   4.014  14.499  0.00  0.00    +0.000 A 
ATOM     27  C   UNL     1       4.797   4.588  15.676  0.00  0.00    +0.000 A 
ENDBRANCH  21  22
BRANCH  21  29
ATOM     28  C   UNL     1       5.148   3.776  19.233  0.00  0.00    +0.000 C 
ATOM     29  C   UNL     1       5.515   5.225  18.981  0.00  0.00    +0.000 C 
ENDBRANCH  21  29
ENDBRANCH  20  21
ENDBRANCH   1  20
BRANCH   1  30
ATOM     30  C   UNL     1       2.172   5.789  17.842  0.00  0.00    +0.000 C 
BRANCH  30  31
ATOM     31  C   UNL     1       1.807   4.768  18.920  0.00  0.00    +0.000 A 
ATOM     32  C   UNL     1       1.956   5.077  20.282  0.00  0.00    +0.000 A 
ATOM     33  C   UNL     1       1.829   4.088  21.267  0.00  0.00    +0.000 A 
ATOM     34  C   UNL     1       1.419   2.802  20.926  0.00  0.00    +0.000 A 
ATOM     35  C   UNL     1       1.061   2.538  19.605  0.00  0.00    +0.000 A 
ATOM     36  C   UNL     1       1.263   3.508  18.609  0.00  0.00    +0.000 A 
ENDBRANCH  30  31
ENDBRANCH   1  30
TORSDOF 9
ENDMDL
MODEL 6
REMARK VINA RESULT:      -8.3      0.677      2.467
REMARK  Name = 
REMARK  12 active torsions:
REMARK  status: ('A' for Active; 'I' for Inactive)
REMARK    1  A    between atoms: C_1  and  C_2
REMARK    2  A    between atoms: C_2  and  N_3
REMARK    3  A    between atoms: N_3  and  C_4
REMARK    4  A    between atoms: N_3  and  C_30
REMARK    5  A    between atoms: C_4  and  C_5
REMARK    6  A    between atoms: C_5  and  C_6
REMARK    7  A    between atoms: C_5  and  N_13
REMARK    8  A    between atoms: C_6  and  C_7
REMARK    9  A    between atoms: C_14  and  C_16
REMARK   10  A    between atoms: C_16  and  N_17
REMARK   11  A    between atoms: N_24  and  C_25
REMARK   12  A    between atoms: N_28  and  C_29
REMARK                            x       y       z     vdW  Elec       q    Type
REMARK                         _______ _______ _______ _____ _____    ______ ____
ROOT
ATOM      1  C   UNL     1       4.337   3.885  17.403  0.00  0.00    +0.000 C 
ENDROOT
BRANCH   1   2
ATOM      2  N   UNL     1       3.410   5.052  17.373  0.00  0.00    +0.000 N 
ATOM      3  C   UNL     1       3.565   6.095  18.256  0.00  0.00    +0.000 C 
ATOM      4  O   UNL     1       4.326   6.012  19.195  0.00  0.00    +0.000 OA
ATOM      5  H   UNL     1       2.952   5.241  16.494  0.00  0.00    +0.000 HD
BRANCH   3   6
ATOM      6  C   UNL     1       2.753   7.371  18.037  0.00  0.00    +0.000 C 
BRANCH   6   7
ATOM      7  N   UNL     1       2.090   7.803  19.257  0.00  0.00    +0.000 N 
ATOM      8  C   UNL     1       1.829   7.059  20.382  0.00  0.00    +0.000 A 
ATOM      9  N   UNL     1       1.124   7.743  21.268  0.00  0.00    +0.000 NA
ATOM     10  C   UNL     1       0.936   8.964  20.703  0.00  0.00    +0.000 A 
ATOM     11  C   UNL     1       1.560   9.039  19.484  0.00  0.00    +0.000 A 
ATOM     12  C   UNL     1       1.561  10.220  18.698  0.00  0.00    +0.000 A 
ATOM     13  O   UNL     1       2.232  10.309  17.669  0.00  0.00    +0.000 OA
ATOM     14  N   UNL     1       0.765  11.227  19.207  0.00  0.00    +0.000 N 
ATOM     15  C   UNL     1       0.641  12.440  18.430  0.00  0.00    +0.000 C 
ATOM     16  C   UNL     1       0.092  11.193  20.452  0.00  0.00    +0.000 A 
ATOM     17  O   UNL     1      -0.562  12.159  20.838  0.00  0.00    +0.000 OA
ATOM     18  N   UNL     1       0.210  10.018  21.202  0.00  0.00    +0.000 N 
ATOM     19  C   UNL     1      -0.478   9.900  22.472  0.00  0.00    +0.000 C 
ENDBRANCH   6   7
ENDBRANCH   3   6
ENDBRANCH   1   2
BRANCH   1  20
ATOM     20  C   UNL     1       4.976   3.576  16.007  0.00  0.00    +0.000 C 
BRANCH  20  21
ATOM     21  N   UNL     1       6.192   4.392  15.684  0.00  0.00    +0.000 N 
BRANCH  21  22
ATOM     22  C   UNL     1       6.655   4.488  14.352  0.00  0.00    +0.000 A 
ATOM     23  C   UNL     1       6.127   3.698  13.303  0.00  0.00    +0.000 A 
ATOM     24  C   UNL     1       6.568   3.813  11.977  0.00  0.00    +0.000 A 
ATOM     25  C   UNL     1       7.560   4.723  11.651  0.00  0.00    +0.000 A 
ATOM     26  C   UNL     1       8.116   5.502  12.653  0.00  0.00    +0.000 A 
ATOM     27  C   UNL     1       7.665   5.384  13.973  0.00  0.00    +0.000 A 
ENDBRANCH  21  22
BRANCH  21  29
ATOM     28  C   UNL     1       7.618   4.791  17.832  0.00  0.00    +0.000 C 
ATOM     29  C   UNL     1       6.841   5.322  16.644  0.00  0.00    +0.000 C 
ENDBRANCH  21  29
ENDBRANCH  20  21
ENDBRANCH   1  20
BRANCH   1  30
ATOM     30  C   UNL     1       3.795   2.579  18.140  0.00  0.00    +0.000 C 
BRANCH  30  31
ATOM     31  C   UNL     1       2.854   2.656  19.343  0.00  0.00    +0.000 A 
ATOM     32  C   UNL     1       1.473   2.829  19.165  0.00  0.00    +0.000 A 
ATOM     33  C   UNL     1       0.632   3.113  20.250  0.00  0.00    +0.000 A 
ATOM     34  C   UNL     1       1.130   3.094  21.551  0.00  0.00    +0.000 A 
ATOM     35  C   UNL     1       2.454   2.713  21.759  0.00  0.00    +0.000 A 
ATOM     36  C   UNL     1       3.312   2.506  20.666  0.00  0.00    +0.000 A 
ENDBRANCH  30  31
ENDBRANCH   1  30
TORSDOF 9
ENDMDL
MODEL 7
REMARK VINA RESULT:      -8.3      1.792      3.335
REMARK  Name = 
REMARK  12 active torsions:
REMARK  status: ('A' for Active; 'I' for Inactive)
REMARK    1  A    between atoms: C_1  and  C_2
REMARK    2  A    between atoms: C_2  and  N_3
REMARK    3  A    between atoms: N_3  and  C_4
REMARK    4  A    between atoms: N_3  and  C_30
REMARK    5  A    between atoms: C_4  and  C_5
REMARK    6  A    between atoms: C_5  and  C_6
REMARK    7  A    between atoms: C_5  and  N_13
REMARK    8  A    between atoms: C_6  and  C_7
REMARK    9  A    between atoms: C_14  and  C_16
REMARK   10  A    between atoms: C_16  and  N_17
REMARK   11  A    between atoms: N_24  and  C_25
REMARK   12  A    between atoms: N_28  and  C_29
REMARK                            x       y       z     vdW  Elec       q    Type
REMARK                         _______ _______ _______ _____ _____    ______ ____
ROOT
ATOM      1  C   UNL     1       3.820   6.615  17.794  0.00  0.00    +0.000 C 
ENDROOT
BRANCH   1   2
ATOM      2  N   UNL     1       2.810   7.649  17.426  0.00  0.00    +0.000 N 
ATOM      3  C   UNL     1       2.097   8.311  18.397  0.00  0.00    +0.000 C 
ATOM      4  O   UNL     1       2.126   7.948  19.553  0.00  0.00    +0.000 OA
ATOM      5  H   UNL     1       2.942   8.110  16.538  0.00  0.00    +0.000 HD
BRANCH   3   6
ATOM      6  C   UNL     1       1.257   9.523  17.995  0.00  0.00    +0.000 C 
BRANCH   6   7
ATOM      7  N   UNL     1       0.807  10.275  19.156  0.00  0.00    +0.000 N 
ATOM      8  C   UNL     1      -0.066   9.868  20.136  0.00  0.00    +0.000 A 
ATOM      9  N   UNL     1      -0.328  10.840  20.992  0.00  0.00    +0.000 NA
ATOM     10  C   UNL     1       0.406  11.899  20.560  0.00  0.00    +0.000 A 
ATOM     11  C   UNL     1       1.147  11.561  19.457  0.00  0.00    +0.000 A 
ATOM     12  C   UNL     1       2.037  12.468  18.828  0.00  0.00    +0.000 A 
ATOM     13  O   UNL     1       2.788  12.110  17.919  0.00  0.00    +0.000 OA
ATOM     14  N   UNL     1       1.981  13.748  19.341  0.00  0.00    +0.000 N 
ATOM     15  C   UNL     1       2.796  14.761  18.708  0.00  0.00    +0.000 C 
ATOM     16  C   UNL     1       1.224  14.150  20.469  0.00  0.00    +0.000 A 
ATOM     17  O   UNL     1       1.270  15.308  20.875  0.00  0.00    +0.000 OA
ATOM     18  N   UNL     1       0.433  13.171  21.079  0.00  0.00    +0.000 N 
ATOM     19  C   UNL     1      -0.393  13.517  22.219  0.00  0.00    +0.000 C 
ENDBRANCH   6   7
ENDBRANCH   3   6
ENDBRANCH   1   2
BRANCH   1  20
ATOM     20  C   UNL     1       5.200   6.830  17.088  0.00  0.00    +0.000 C 
BRANCH  20  21
ATOM     21  N   UNL     1       5.985   5.574  16.858  0.00  0.00    +0.000 N 
BRANCH  21  22
ATOM     22  C   UNL     1       6.167   5.075  15.548  0.00  0.00    +0.000 A 
ATOM     23  C   UNL     1       7.321   5.358  14.778  0.00  0.00    +0.000 A 
ATOM     24  C   UNL     1       7.513   4.840  13.489  0.00  0.00    +0.000 A 
ATOM     25  C   UNL     1       6.552   4.021  12.919  0.00  0.00    +0.000 A 
ATOM     26  C   UNL     1       5.399   3.736  13.633  0.00  0.00    +0.000 A 
ATOM     27  C   UNL     1       5.219   4.252  14.922  0.00  0.00    +0.000 A 
ENDBRANCH  21  22
BRANCH  21  29
ATOM     28  C   UNL     1       7.342   5.696  19.083  0.00  0.00    +0.000 C 
ATOM     29  C   UNL     1       6.806   4.910  17.903  0.00  0.00    +0.000 C 
ENDBRANCH  21  29
ENDBRANCH  20  21
ENDBRANCH   1  20
BRANCH   1  30
ATOM     30  C   UNL     1       3.322   5.100  17.737  0.00  0.00    +0.000 C 
BRANCH  30  31
ATOM     31  C   UNL     1       2.523   4.464  18.874  0.00  0.00    +0.000 A 
ATOM     32  C   UNL     1       2.830   4.747  20.214  0.00  0.00    +0.000 A 
ATOM     33  C   UNL     1       2.252   4.015  21.261  0.00  0.00    +0.000 A 
ATOM     34  C   UNL     1       1.256   3.078  20.999  0.00  0.00    +0.000 A 
ATOM     35  C   UNL     1       0.790   2.938  19.693  0.00  0.00    +0.000 A 
ATOM     36  C   UNL     1       1.424   3.617  18.638  0.00  0.00    +0.000 A 
ENDBRANCH  30  31
ENDBRANCH   1  30
TORSDOF 9
ENDMDL
MODEL 8
REMARK VINA RESULT:      -8.2      2.060      3.653
REMARK  Name = 
REMARK  12 active torsions:
REMARK  status: ('A' for Active; 'I' for Inactive)
REMARK    1  A    between atoms: C_1  and  C_2
REMARK    2  A    between atoms: C_2  and  N_3
REMARK    3  A    between atoms: N_3  and  C_4
REMARK    4  A    between atoms: N_3  and  C_30
REMARK    5  A    between atoms: C_4  and  C_5
REMARK    6  A    between atoms: C_5  and  C_6
REMARK    7  A    between atoms: C_5  and  N_13
REMARK    8  A    between atoms: C_6  and  C_7
REMARK    9  A    between atoms: C_14  and  C_16
REMARK   10  A    between atoms: C_16  and  N_17
REMARK   11  A    between atoms: N_24  and  C_25
REMARK   12  A    between atoms: N_28  and  C_29
REMARK                            x       y       z     vdW  Elec       q    Type
REMARK                         _______ _______ _______ _____ _____    ______ ____
ROOT
ATOM      1  C   UNL     1       2.789   6.953  18.938  0.00  0.00    +0.000 C 
ENDROOT
BRANCH   1   2
ATOM      2  N   UNL     1       2.223   8.203  18.354  0.00  0.00    +0.000 N 
ATOM      3  C   UNL     1       1.516   9.086  19.136  0.00  0.00    +0.000 C 
ATOM      4  O   UNL     1       1.169   8.789  20.258  0.00  0.00    +0.000 OA
ATOM      5  H   UNL     1       2.684   8.564  17.532  0.00  0.00    +0.000 HD
BRANCH   3   6
ATOM      6  C   UNL     1       1.166  10.459  18.562  0.00  0.00    +0.000 C 
BRANCH   6   7
ATOM      7  N   UNL     1      -0.245  10.768  18.729  0.00  0.00    +0.000 N 
ATOM      8  C   UNL     1      -1.296  10.355  17.945  0.00  0.00    +0.000 A 
ATOM      9  N   UNL     1      -2.436  10.902  18.329  0.00  0.00    +0.000 NA
ATOM     10  C   UNL     1      -2.115  11.679  19.397  0.00  0.00    +0.000 A 
ATOM     11  C   UNL     1      -0.779  11.577  19.688  0.00  0.00    +0.000 A 
ATOM     12  C   UNL     1      -0.183  12.250  20.786  0.00  0.00    +0.000 A 
ATOM     13  O   UNL     1       0.988  12.047  21.109  0.00  0.00    +0.000 OA
ATOM     14  N   UNL     1      -1.039  13.116  21.437  0.00  0.00    +0.000 N 
ATOM     15  C   UNL     1      -0.496  13.907  22.518  0.00  0.00    +0.000 C 
ATOM     16  C   UNL     1      -2.421  13.266  21.166  0.00  0.00    +0.000 A 
ATOM     17  O   UNL     1      -3.110  14.037  21.829  0.00  0.00    +0.000 OA
ATOM     18  N   UNL     1      -2.944  12.503  20.117  0.00  0.00    +0.000 N 
ATOM     19  C   UNL     1      -4.344  12.629  19.762  0.00  0.00    +0.000 C 
ENDBRANCH   6   7
ENDBRANCH   3   6
ENDBRANCH   1   2
BRANCH   1  20
ATOM     20  C   UNL     1       3.030   5.834  17.870  0.00  0.00    +0.000 C 
BRANCH  20  21
ATOM     21  N   UNL     1       4.309   5.071  18.045  0.00  0.00    +0.000 N 
BRANCH  21  22
ATOM     22  C   UNL     1       5.544   5.754  18.125  0.00  0.00    +0.000 A 
ATOM     23  C   UNL     1       6.549   5.405  19.057  0.00  0.00    +0.000 A 
ATOM     24  C   UNL     1       7.785   6.065  19.117  0.00  0.00    +0.000 A 
ATOM     25  C   UNL     1       8.059   7.106  18.246  0.00  0.00    +0.000 A 
ATOM     26  C   UNL     1       7.092   7.492  17.330  0.00  0.00    +0.000 A 
ATOM     27  C   UNL     1       5.865   6.822  17.274  0.00  0.00    +0.000 A 
ENDBRANCH  21  22
BRANCH  21  29
ATOM     28  C   UNL     1       3.585   2.609  17.573  0.00  0.00    +0.000 C 
ATOM     29  C   UNL     1       4.368   3.625  18.381  0.00  0.00    +0.000 C 
ENDBRANCH  21  29
ENDBRANCH  20  21
ENDBRANCH   1  20
BRANCH   1  30
ATOM     30  C   UNL     1       2.071   6.410  20.256  0.00  0.00    +0.000 C 
BRANCH  30  31
ATOM     31  C   UNL     1       1.818   4.920  20.488  0.00  0.00    +0.000 A 
ATOM     32  C   UNL     1       2.505   4.223  21.495  0.00  0.00    +0.000 A 
ATOM     33  C   UNL     1       2.442   2.826  21.581  0.00  0.00    +0.000 A 
ATOM     34  C   UNL     1       1.587   2.106  20.750  0.00  0.00    +0.000 A 
ATOM     35  C   UNL     1       0.740   2.803  19.891  0.00  0.00    +0.000 A 
ATOM     36  C   UNL     1       0.861   4.197  19.753  0.00  0.00    +0.000 A 
ENDBRANCH  30  31
ENDBRANCH   1  30
TORSDOF 9
ENDMDL
MODEL 9
REMARK VINA RESULT:      -7.9      1.225      2.228
REMARK  Name = 
REMARK  12 active torsions:
REMARK  status: ('A' for Active; 'I' for Inactive)
REMARK    1  A    between atoms: C_1  and  C_2
REMARK    2  A    between atoms: C_2  and  N_3
REMARK    3  A    between atoms: N_3  and  C_4
REMARK    4  A    between atoms: N_3  and  C_30
REMARK    5  A    between atoms: C_4  and  C_5
REMARK    6  A    between atoms: C_5  and  C_6
REMARK    7  A    between atoms: C_5  and  N_13
REMARK    8  A    between atoms: C_6  and  C_7
REMARK    9  A    between atoms: C_14  and  C_16
REMARK   10  A    between atoms: C_16  and  N_17
REMARK   11  A    between atoms: N_24  and  C_25
REMARK   12  A    between atoms: N_28  and  C_29
REMARK                            x       y       z     vdW  Elec       q    Type
REMARK                         _______ _______ _______ _____ _____    ______ ____
ROOT
ATOM      1  C   UNL     1       4.329   4.568  17.738  0.00  0.00    +0.000 C 
ENDROOT
BRANCH   1   2
ATOM      2  N   UNL     1       4.051   5.749  18.606  0.00  0.00    +0.000 N 
ATOM      3  C   UNL     1       2.803   6.327  18.626  0.00  0.00    +0.000 C 
ATOM      4  O   UNL     1       1.959   6.023  17.812  0.00  0.00    +0.000 OA
ATOM      5  H   UNL     1       4.634   5.854  19.422  0.00  0.00    +0.000 HD
BRANCH   3   6
ATOM      6  C   UNL     1       2.494   7.371  19.699  0.00  0.00    +0.000 C 
BRANCH   6   7
ATOM      7  N   UNL     1       1.795   8.520  19.146  0.00  0.00    +0.000 N 
ATOM      8  C   UNL     1       1.907   9.045  17.881  0.00  0.00    +0.000 A 
ATOM      9  N   UNL     1       1.197  10.152  17.746  0.00  0.00    +0.000 NA
ATOM     10  C   UNL     1       0.601  10.339  18.952  0.00  0.00    +0.000 A 
ATOM     11  C   UNL     1       0.920   9.322  19.816  0.00  0.00    +0.000 A 
ATOM     12  C   UNL     1       0.396   9.246  21.132  0.00  0.00    +0.000 A 
ATOM     13  O   UNL     1       0.590   8.262  21.848  0.00  0.00    +0.000 OA
ATOM     14  N   UNL     1      -0.343  10.352  21.501  0.00  0.00    +0.000 N 
ATOM     15  C   UNL     1      -0.849  10.399  22.855  0.00  0.00    +0.000 C 
ATOM     16  C   UNL     1      -0.689  11.431  20.652  0.00  0.00    +0.000 A 
ATOM     17  O   UNL     1      -1.386  12.355  21.063  0.00  0.00    +0.000 OA
ATOM     18  N   UNL     1      -0.196  11.387  19.344  0.00  0.00    +0.000 N 
ATOM     19  C   UNL     1      -0.483  12.473  18.427  0.00  0.00    +0.000 C 
ENDBRANCH   6   7
ENDBRANCH   3   6
ENDBRANCH   1   2
BRANCH   1  20
ATOM     20  C   UNL     1       4.647   4.961  16.256  0.00  0.00    +0.000 C 
BRANCH  20  21
ATOM     21  N   UNL     1       6.090   5.273  15.991  0.00  0.00    +0.000 N 
BRANCH  21  22
ATOM     22  C   UNL     1       6.839   6.032  16.918  0.00  0.00    +0.000 A 
ATOM     23  C   UNL     1       7.462   5.453  18.050  0.00  0.00    +0.000 A 
ATOM     24  C   UNL     1       8.228   6.202  18.955  0.00  0.00    +0.000 A 
ATOM     25  C   UNL     1       8.396   7.563  18.762  0.00  0.00    +0.000 A 
ATOM     26  C   UNL     1       7.786   8.172  17.676  0.00  0.00    +0.000 A 
ATOM     27  C   UNL     1       7.029   7.414  16.775  0.00  0.00    +0.000 A 
ENDBRANCH  21  22
BRANCH  21  29
ATOM     28  C   UNL     1       6.201   3.959  13.739  0.00  0.00    +0.000 C 
ATOM     29  C   UNL     1       6.886   4.639  14.908  0.00  0.00    +0.000 C 
ENDBRANCH  21  29
ENDBRANCH  20  21
ENDBRANCH   1  20
BRANCH   1  30
ATOM     30  C   UNL     1       3.297   3.357  17.852  0.00  0.00    +0.000 C 
BRANCH  30  31
ATOM     31  C   UNL     1       2.608   2.997  19.169  0.00  0.00    +0.000 A 
ATOM     32  C   UNL     1       1.208   2.937  19.254  0.00  0.00    +0.000 A 
ATOM     33  C   UNL     1       0.562   2.819  20.492  0.00  0.00    +0.000 A 
ATOM     34  C   UNL     1       1.300   2.622  21.656  0.00  0.00    +0.000 A 
ATOM     35  C   UNL     1       2.681   2.465  21.559  0.00  0.00    +0.000 A 
ATOM     36  C   UNL     1       3.331   2.662  20.328  0.00  0.00    +0.000 A 
ENDBRANCH  30  31
ENDBRANCH   1  30
TORSDOF 9
ENDMDL
