MODEL 1
REMARK VINA RESULT:      -7.4      0.000      0.000
REMARK  Name = 
REMARK  4 active torsions:
REMARK  status: ('A' for Active; 'I' for Inactive)
REMARK    1  A    between atoms: C_1  and  C_2
REMARK    2  A    between atoms: C_2  and  C_4
REMARK    3  A    between atoms: C_7  and  N_8
REMARK    4  A    between atoms: C_9  and  C_11
REMARK                            x       y       z     vdW  Elec       q    Type
REMARK                         _______ _______ _______ _____ _____    ______ ____
ROOT
ATOM      1  N   UNL     1       4.755   3.828  17.667  0.00  0.00    +0.000 N 
ATOM      2  C   UNL     1       3.706   4.600  18.131  0.00  0.00    +0.000 C 
ATOM      3  O   UNL     1       3.272   5.614  17.585  0.00  0.00    +0.000 OA
ATOM      4  H   UNL     1       4.885   2.907  18.064  0.00  0.00    +0.000 HD
ENDROOT
BRANCH   2   5
ATOM      5  C   UNL     1       3.026   4.105  19.367  0.00  0.00    +0.000 A 
ATOM      6  C   UNL     1       1.704   4.478  19.801  0.00  0.00    +0.000 A 
ATOM      7  C   UNL     1       1.143   3.848  20.841  0.00  0.00    +0.000 A 
ATOM      8  C   UNL     1       1.855   2.774  21.571  0.00  0.00    +0.000 A 
ATOM      9  O   UNL     1       1.313   2.200  22.508  0.00  0.00    +0.000 OA
ATOM     10  O   UNL     1       3.119   2.470  21.152  0.00  0.00    +0.000 OA
ATOM     11  C   UNL     1       3.658   3.132  20.039  0.00  0.00    +0.000 A 
ENDBRANCH   2   5
BRANCH   1  15
ATOM     12  C   UNL     1       7.102   4.856  14.289  0.00  0.00    +0.000 A 
ATOM     13  C   UNL     1       7.522   5.223  15.566  0.00  0.00    +0.000 A 
ATOM     14  C   UNL     1       6.761   4.872  16.682  0.00  0.00    +0.000 A 
ATOM     15  C   UNL     1       5.566   4.159  16.553  0.00  0.00    +0.000 A 
ATOM     16  C   UNL     1       5.165   3.754  15.275  0.00  0.00    +0.000 A 
ATOM     17  C   UNL     1       5.924   4.111  14.148  0.00  0.00    +0.000 A 
BRANCH  12  19
ATOM     18  C   UNL     1       7.436   4.739  11.732  0.00  0.00    +0.000 C 
ATOM     19  C   UNL     1       7.887   5.242  13.081  0.00  0.00    +0.000 C 
ATOM     20  O   UNL     1       8.877   5.960  13.201  0.00  0.00    +0.000 OA
ENDBRANCH  12  19
ENDBRANCH   1  15
TORSDOF 3
ENDMDL
MODEL 2
REMARK VINA RESULT:      -7.2      0.162      1.112
REMARK  Name = 
REMARK  4 active torsions:
REMARK  status: ('A' for Active; 'I' for Inactive)
REMARK    1  A    between atoms: C_1  and  C_2
REMARK    2  A    between atoms: C_2  and  C_4
REMARK    3  A    between atoms: C_7  and  N_8
REMARK    4  A    between atoms: C_9  and  C_11
REMARK                            x       y       z     vdW  Elec       q    Type
REMARK                         _______ _______ _______ _____ _____    ______ ____
ROOT
ATOM      1  N   UNL     1       4.588   3.868  17.584  0.00  0.00    +0.000 N 
ATOM      2  C   UNL     1       3.552   4.630  18.093  0.00  0.00    +0.000 C 
ATOM      3  O   UNL     1       3.099   5.652  17.579  0.00  0.00    +0.000 OA
ATOM      4  H   UNL     1       4.731   2.941  17.961  0.00  0.00    +0.000 HD
ENDROOT
BRANCH   2   5
ATOM      5  C   UNL     1       2.910   4.111  19.340  0.00  0.00    +0.000 A 
ATOM      6  C   UNL     1       1.569   4.406  19.777  0.00  0.00    +0.000 A 
ATOM      7  C   UNL     1       1.054   3.757  20.829  0.00  0.00    +0.000 A 
ATOM      8  C   UNL     1       1.835   2.741  21.570  0.00  0.00    +0.000 A 
ATOM      9  O   UNL     1       1.335   2.147  22.518  0.00  0.00    +0.000 OA
ATOM     10  O   UNL     1       3.114   2.510  21.147  0.00  0.00    +0.000 OA
ATOM     11  C   UNL     1       3.605   3.189  20.022  0.00  0.00    +0.000 A 
ENDBRANCH   2   5
BRANCH   1  15
ATOM     12  C   UNL     1       6.988   4.878  14.238  0.00  0.00    +0.000 A 
ATOM     13  C   UNL     1       5.735   4.301  14.047  0.00  0.00    +0.000 A 
ATOM     14  C   UNL     1       4.933   3.983  15.144  0.00  0.00    +0.000 A 
ATOM     15  C   UNL     1       5.364   4.221  16.453  0.00  0.00    +0.000 A 
ATOM     16  C   UNL     1       6.606   4.837  16.645  0.00  0.00    +0.000 A 
ATOM     17  C   UNL     1       7.418   5.154  15.544  0.00  0.00    +0.000 A 
BRANCH  12  19
ATOM     18  C   UNL     1       7.513   4.660  11.720  0.00  0.00    +0.000 C 
ATOM     19  C   UNL     1       7.871   5.204  13.081  0.00  0.00    +0.000 C 
ATOM     20  O   UNL     1       8.865   5.907  13.251  0.00  0.00    +0.000 OA
ENDBRANCH  12  19
ENDBRANCH   1  15
TORSDOF 3
ENDMDL
MODEL 3
REMARK VINA RESULT:      -7.0      0.732      1.589
REMARK  Name = 
REMARK  4 active torsions:
REMARK  status: ('A' for Active; 'I' for Inactive)
REMARK    1  A    between atoms: C_1  and  C_2
REMARK    2  A    between atoms: C_2  and  C_4
REMARK    3  A    between atoms: C_7  and  N_8
REMARK    4  A    between atoms: C_9  and  C_11
REMARK                            x       y       z     vdW  Elec       q    Type
REMARK                         _______ _______ _______ _____ _____    ______ ____
ROOT
ATOM      1  N   UNL     1       4.586   3.497  17.465  0.00  0.00    +0.000 N 
ATOM      2  C   UNL     1       3.571   4.220  18.066  0.00  0.00    +0.000 C 
ATOM      3  O   UNL     1       3.134   5.299  17.670  0.00  0.00    +0.000 OA
ATOM      4  H   UNL     1       4.714   2.532  17.739  0.00  0.00    +0.000 HD
ENDROOT
BRANCH   2   5
ATOM      5  C   UNL     1       2.933   3.583  19.259  0.00  0.00    +0.000 A 
ATOM      6  C   UNL     1       3.615   2.794  20.252  0.00  0.00    +0.000 A 
ATOM      7  C   UNL     1       2.965   2.409  21.357  0.00  0.00    +0.000 A 
ATOM      8  C   UNL     1       1.546   2.768  21.586  0.00  0.00    +0.000 A 
ATOM      9  O   UNL     1       0.978   2.419  22.614  0.00  0.00    +0.000 OA
ATOM     10  O   UNL     1       0.923   3.490  20.608  0.00  0.00    +0.000 OA
ATOM     11  C   UNL     1       1.648   3.900  19.480  0.00  0.00    +0.000 A 
ENDBRANCH   2   5
BRANCH   1  15
ATOM     12  C   UNL     1       6.971   4.817  14.218  0.00  0.00    +0.000 A 
ATOM     13  C   UNL     1       5.748   4.195  13.976  0.00  0.00    +0.000 A 
ATOM     14  C   UNL     1       4.952   3.774  15.041  0.00  0.00    +0.000 A 
ATOM     15  C   UNL     1       5.356   3.953  16.367  0.00  0.00    +0.000 A 
ATOM     16  C   UNL     1       6.565   4.615  16.613  0.00  0.00    +0.000 A 
ATOM     17  C   UNL     1       7.373   5.034  15.543  0.00  0.00    +0.000 A 
BRANCH  12  19
ATOM     18  C   UNL     1       7.493   4.831  11.690  0.00  0.00    +0.000 C 
ATOM     19  C   UNL     1       7.849   5.253  13.094  0.00  0.00    +0.000 C 
ATOM     20  O   UNL     1       8.838   5.946  13.326  0.00  0.00    +0.000 OA
ENDBRANCH  12  19
ENDBRANCH   1  15
TORSDOF 3
ENDMDL
MODEL 4
REMARK VINA RESULT:      -6.9      1.145      1.407
REMARK  Name = 
REMARK  4 active torsions:
REMARK  status: ('A' for Active; 'I' for Inactive)
REMARK    1  A    between atoms: C_1  and  C_2
REMARK    2  A    between atoms: C_2  and  C_4
REMARK    3  A    between atoms: C_7  and  N_8
REMARK    4  A    between atoms: C_9  and  C_11
REMARK                            x       y       z     vdW  Elec       q    Type
REMARK                         _______ _______ _______ _____ _____    ______ ____
ROOT
ATOM      1  N   UNL     1       4.098   4.196  17.615  0.00  0.00    +0.000 N 
ATOM      2  C   UNL     1       4.539   3.808  18.867  0.00  0.00    +0.000 C 
ATOM      3  O   UNL     1       5.717   3.704  19.207  0.00  0.00    +0.000 OA
ATOM      4  H   UNL     1       3.127   4.461  17.509  0.00  0.00    +0.000 HD
ENDROOT
BRANCH   2   5
ATOM      5  C   UNL     1       3.474   3.559  19.887  0.00  0.00    +0.000 A 
ATOM      6  C   UNL     1       2.101   3.979  19.784  0.00  0.00    +0.000 A 
ATOM      7  C   UNL     1       1.207   3.561  20.689  0.00  0.00    +0.000 A 
ATOM      8  C   UNL     1       1.597   2.678  21.811  0.00  0.00    +0.000 A 
ATOM      9  O   UNL     1       0.757   2.294  22.617  0.00  0.00    +0.000 OA
ATOM     10  O   UNL     1       2.915   2.326  21.896  0.00  0.00    +0.000 OA
ATOM     11  C   UNL     1       3.813   2.760  20.910  0.00  0.00    +0.000 A 
ENDBRANCH   2   5
BRANCH   1  15
ATOM     12  C   UNL     1       6.679   4.912  14.329  0.00  0.00    +0.000 A 
ATOM     13  C   UNL     1       6.322   3.607  14.662  0.00  0.00    +0.000 A 
ATOM     14  C   UNL     1       5.459   3.367  15.732  0.00  0.00    +0.000 A 
ATOM     15  C   UNL     1       4.941   4.416  16.498  0.00  0.00    +0.000 A 
ATOM     16  C   UNL     1       5.267   5.729  16.139  0.00  0.00    +0.000 A 
ATOM     17  C   UNL     1       6.140   5.974  15.067  0.00  0.00    +0.000 A 
BRANCH  12  19
ATOM     18  C   UNL     1       7.347   4.562  11.860  0.00  0.00    +0.000 C 
ATOM     19  C   UNL     1       7.619   5.189  13.204  0.00  0.00    +0.000 C 
ATOM     20  O   UNL     1       8.590   5.921  13.388  0.00  0.00    +0.000 OA
ENDBRANCH  12  19
ENDBRANCH   1  15
TORSDOF 3
ENDMDL
MODEL 5
REMARK VINA RESULT:      -6.8      1.019      1.033
REMARK  Name = 
REMARK  4 active torsions:
REMARK  status: ('A' for Active; 'I' for Inactive)
REMARK    1  A    between atoms: C_1  and  C_2
REMARK    2  A    between atoms: C_2  and  C_4
REMARK    3  A    between atoms: C_7  and  N_8
REMARK    4  A    between atoms: C_9  and  C_11
REMARK                            x       y       z     vdW  Elec       q    Type
REMARK                         _______ _______ _______ _____ _____    ______ ____
ROOT
ATOM      1  N   UNL     1       4.285   4.247  17.644  0.00  0.00    +0.000 N 
ATOM      2  C   UNL     1       4.687   3.909  18.924  0.00  0.00    +0.000 C 
ATOM      3  O   UNL     1       5.853   3.859  19.315  0.00  0.00    +0.000 OA
ATOM      4  H   UNL     1       3.311   4.472  17.492  0.00  0.00    +0.000 HD
ENDROOT
BRANCH   2   5
ATOM      5  C   UNL     1       3.591   3.649  19.908  0.00  0.00    +0.000 A 
ATOM      6  C   UNL     1       2.234   4.116  19.792  0.00  0.00    +0.000 A 
ATOM      7  C   UNL     1       1.306   3.687  20.656  0.00  0.00    +0.000 A 
ATOM      8  C   UNL     1       1.641   2.742  21.746  0.00  0.00    +0.000 A 
ATOM      9  O   UNL     1       0.771   2.349  22.513  0.00  0.00    +0.000 OA
ATOM     10  O   UNL     1       2.945   2.345  21.844  0.00  0.00    +0.000 OA
ATOM     11  C   UNL     1       3.879   2.794  20.900  0.00  0.00    +0.000 A 
ENDBRANCH   2   5
BRANCH   1  15
ATOM     12  C   UNL     1       6.842   4.910  14.329  0.00  0.00    +0.000 A 
ATOM     13  C   UNL     1       6.979   5.684  15.479  0.00  0.00    +0.000 A 
ATOM     14  C   UNL     1       6.151   5.458  16.580  0.00  0.00    +0.000 A 
ATOM     15  C   UNL     1       5.165   4.467  16.557  0.00  0.00    +0.000 A 
ATOM     16  C   UNL     1       5.054   3.662  15.418  0.00  0.00    +0.000 A 
ATOM     17  C   UNL     1       5.881   3.890  14.306  0.00  0.00    +0.000 A 
BRANCH  12  19
ATOM     18  C   UNL     1       7.404   4.392  11.863  0.00  0.00    +0.000 C 
ATOM     19  C   UNL     1       7.700   5.150  13.133  0.00  0.00    +0.000 C 
ATOM     20  O   UNL     1       8.624   5.958  13.198  0.00  0.00    +0.000 OA
ENDBRANCH  12  19
ENDBRANCH   1  15
TORSDOF 3
ENDMDL
MODEL 6
REMARK VINA RESULT:      -6.8      4.174      5.072
REMARK  Name = 
REMARK  4 active torsions:
REMARK  status: ('A' for Active; 'I' for Inactive)
REMARK    1  A    between atoms: C_1  and  C_2
REMARK    2  A    between atoms: C_2  and  C_4
REMARK    3  A    between atoms: C_7  and  N_8
REMARK    4  A    between atoms: C_9  and  C_11
REMARK                            x       y       z     vdW  Elec       q    Type
REMARK                         _______ _______ _______ _____ _____    ______ ____
ROOT
ATOM      1  N   UNL     1       2.767   7.165  18.979  0.00  0.00    +0.000 N 
ATOM      2  C   UNL     1       1.995   8.284  18.726  0.00  0.00    +0.000 C 
ATOM      3  O   UNL     1       1.826   8.798  17.621  0.00  0.00    +0.000 OA
ATOM      4  H   UNL     1       2.661   6.702  19.872  0.00  0.00    +0.000 HD
ENDROOT
BRANCH   2   5
ATOM      5  C   UNL     1       1.272   8.860  19.901  0.00  0.00    +0.000 A 
ATOM      6  C   UNL     1       1.216   8.278  21.217  0.00  0.00    +0.000 A 
ATOM      7  C   UNL     1       0.669   8.966  22.227  0.00  0.00    +0.000 A 
ATOM      8  C   UNL     1       0.105  10.320  22.024  0.00  0.00    +0.000 A 
ATOM      9  O   UNL     1      -0.375  10.937  22.968  0.00  0.00    +0.000 OA
ATOM     10  O   UNL     1       0.146  10.827  20.756  0.00  0.00    +0.000 OA
ATOM     11  C   UNL     1       0.756  10.087  19.733  0.00  0.00    +0.000 A 
ENDBRANCH   2   5
BRANCH   1  15
ATOM     12  C   UNL     1       5.271   5.254  16.141  0.00  0.00    +0.000 A 
ATOM     13  C   UNL     1       4.320   4.513  16.840  0.00  0.00    +0.000 A 
ATOM     14  C   UNL     1       3.482   5.141  17.763  0.00  0.00    +0.000 A 
ATOM     15  C   UNL     1       3.577   6.513  18.017  0.00  0.00    +0.000 A 
ATOM     16  C   UNL     1       4.504   7.264  17.286  0.00  0.00    +0.000 A 
ATOM     17  C   UNL     1       5.354   6.635  16.361  0.00  0.00    +0.000 A 
BRANCH  12  19
ATOM     18  C   UNL     1       5.612   3.981  13.921  0.00  0.00    +0.000 C 
ATOM     19  C   UNL     1       6.193   4.599  15.169  0.00  0.00    +0.000 C 
ATOM     20  O   UNL     1       7.401   4.577  15.394  0.00  0.00    +0.000 OA
ENDBRANCH  12  19
ENDBRANCH   1  15
TORSDOF 3
ENDMDL
MODEL 7
REMARK VINA RESULT:      -6.7      4.101      4.791
REMARK  Name = 
REMARK  4 active torsions:
REMARK  status: ('A' for Active; 'I' for Inactive)
REMARK    1  A    between atoms: C_1  and  C_2
REMARK    2  A    between atoms: C_2  and  C_4
REMARK    3  A    between atoms: C_7  and  N_8
REMARK    4  A    between atoms: C_9  and  C_11
REMARK                            x       y       z     vdW  Elec       q    Type
REMARK                         _______ _______ _______ _____ _____    ______ ____
ROOT
ATOM      1  N   UNL     1       2.784   7.194  18.823  0.00  0.00    +0.000 N 
ATOM      2  C   UNL     1       2.063   8.340  18.541  0.00  0.00    +0.000 C 
ATOM      3  O   UNL     1       1.969   8.868  17.434  0.00  0.00    +0.000 OA
ATOM      4  H   UNL     1       2.615   6.727  19.705  0.00  0.00    +0.000 HD
ENDROOT
BRANCH   2   5
ATOM      5  C   UNL     1       1.298   8.930  19.683  0.00  0.00    +0.000 A 
ATOM      6  C   UNL     1       0.327   9.989  19.582  0.00  0.00    +0.000 A 
ATOM      7  C   UNL     1      -0.405  10.324  20.651  0.00  0.00    +0.000 A 
ATOM      8  C   UNL     1      -0.237   9.636  21.951  0.00  0.00    +0.000 A 
ATOM      9  O   UNL     1      -0.933   9.949  22.911  0.00  0.00    +0.000 OA
ATOM     10  O   UNL     1       0.715   8.659  22.019  0.00  0.00    +0.000 OA
ATOM     11  C   UNL     1       1.439   8.317  20.867  0.00  0.00    +0.000 A 
ENDBRANCH   2   5
BRANCH   1  15
ATOM     12  C   UNL     1       5.370   5.225  16.102  0.00  0.00    +0.000 A 
ATOM     13  C   UNL     1       4.360   4.511  16.742  0.00  0.00    +0.000 A 
ATOM     14  C   UNL     1       3.495   5.158  17.626  0.00  0.00    +0.000 A 
ATOM     15  C   UNL     1       3.622   6.523  17.899  0.00  0.00    +0.000 A 
ATOM     16  C   UNL     1       4.610   7.250  17.225  0.00  0.00    +0.000 A 
ATOM     17  C   UNL     1       5.487   6.601  16.340  0.00  0.00    +0.000 A 
BRANCH  12  19
ATOM     18  C   UNL     1       5.777   3.897  13.926  0.00  0.00    +0.000 C 
ATOM     19  C   UNL     1       6.321   4.548  15.173  0.00  0.00    +0.000 C 
ATOM     20  O   UNL     1       7.522   4.535  15.433  0.00  0.00    +0.000 OA
ENDBRANCH  12  19
ENDBRANCH   1  15
TORSDOF 3
ENDMDL
MODEL 8
REMARK VINA RESULT:      -6.6      4.590      8.029
REMARK  Name = 
REMARK  4 active torsions:
REMARK  status: ('A' for Active; 'I' for Inactive)
REMARK    1  A    between atoms: C_1  and  C_2
REMARK    2  A    between atoms: C_2  and  C_4
REMARK    3  A    between atoms: C_7  and  N_8
REMARK    4  A    between atoms: C_9  and  C_11
REMARK                            x       y       z     vdW  Elec       q    Type
REMARK                         _______ _______ _______ _____ _____    ______ ____
ROOT
ATOM      1  N   UNL     1       3.131   7.613  18.243  0.00  0.00    +0.000 N 
ATOM      2  C   UNL     1       3.167   6.236  18.380  0.00  0.00    +0.000 C 
ATOM      3  O   UNL     1       2.235   5.535  18.771  0.00  0.00    +0.000 OA
ATOM      4  H   UNL     1       3.865   8.060  17.710  0.00  0.00    +0.000 HD
ENDROOT
BRANCH   2   5
ATOM      5  C   UNL     1       4.435   5.569  17.953  0.00  0.00    +0.000 A 
ATOM      6  C   UNL     1       4.870   5.390  16.592  0.00  0.00    +0.000 A 
ATOM      7  C   UNL     1       6.097   4.917  16.342  0.00  0.00    +0.000 A 
ATOM      8  C   UNL     1       7.027   4.561  17.438  0.00  0.00    +0.000 A 
ATOM      9  O   UNL     1       8.152   4.147  17.184  0.00  0.00    +0.000 OA
ATOM     10  O   UNL     1       6.569   4.713  18.716  0.00  0.00    +0.000 OA
ATOM     11  C   UNL     1       5.288   5.241  18.935  0.00  0.00    +0.000 A 
ENDBRANCH   2   5
BRANCH   1  15
ATOM     12  C   UNL     1      -0.046  10.108  19.529  0.00  0.00    +0.000 A 
ATOM     13  C   UNL     1       0.283  10.041  18.177  0.00  0.00    +0.000 A 
ATOM     14  C   UNL     1       1.317   9.208  17.746  0.00  0.00    +0.000 A 
ATOM     15  C   UNL     1       2.050   8.433  18.649  0.00  0.00    +0.000 A 
ATOM     16  C   UNL     1       1.694   8.468  20.002  0.00  0.00    +0.000 A 
ATOM     17  C   UNL     1       0.659   9.310  20.441  0.00  0.00    +0.000 A 
BRANCH  12  19
ATOM     18  C   UNL     1      -2.129  11.543  19.017  0.00  0.00    +0.000 C 
ATOM     19  C   UNL     1      -1.130  11.010  20.014  0.00  0.00    +0.000 C 
ATOM     20  O   UNL     1      -1.196  11.298  21.207  0.00  0.00    +0.000 OA
ENDBRANCH  12  19
ENDBRANCH   1  15
TORSDOF 3
ENDMDL
MODEL 9
REMARK VINA RESULT:      -6.6      4.065      4.900
REMARK  Name = 
REMARK  4 active torsions:
REMARK  status: ('A' for Active; 'I' for Inactive)
REMARK    1  A    between atoms: C_1  and  C_2
REMARK    2  A    between atoms: C_2  and  C_4
REMARK    3  A    between atoms: C_7  and  N_8
REMARK    4  A    between atoms: C_9  and  C_11
REMARK                            x       y       z     vdW  Elec       q    Type
REMARK                         _______ _______ _______ _____ _____    ______ ____
ROOT
ATOM      1  N   UNL     1       2.835   7.110  18.761  0.00  0.00    +0.000 N 
ATOM      2  C   UNL     1       2.157   8.282  18.476  0.00  0.00    +0.000 C 
ATOM      3  O   UNL     1       2.199   8.887  17.405  0.00  0.00    +0.000 OA
ATOM      4  H   UNL     1       2.560   6.585  19.580  0.00  0.00    +0.000 HD
ENDROOT
BRANCH   2   5
ATOM      5  C   UNL     1       1.261   8.799  19.555  0.00  0.00    +0.000 A 
ATOM      6  C   UNL     1       1.195   8.293  20.902  0.00  0.00    +0.000 A 
ATOM      7  C   UNL     1       0.467   8.940  21.821  0.00  0.00    +0.000 A 
ATOM      8  C   UNL     1      -0.289  10.168  21.485  0.00  0.00    +0.000 A 
ATOM      9  O   UNL     1      -0.933  10.753  22.348  0.00  0.00    +0.000 OA
ATOM     10  O   UNL     1      -0.229  10.600  20.190  0.00  0.00    +0.000 OA
ATOM     11  C   UNL     1       0.570   9.911  19.266  0.00  0.00    +0.000 A 
ENDBRANCH   2   5
BRANCH   1  15
ATOM     12  C   UNL     1       5.579   5.241  16.125  0.00  0.00    +0.000 A 
ATOM     13  C   UNL     1       5.762   6.573  16.490  0.00  0.00    +0.000 A 
ATOM     14  C   UNL     1       4.871   7.188  17.371  0.00  0.00    +0.000 A 
ATOM     15  C   UNL     1       3.777   6.497  17.899  0.00  0.00    +0.000 A 
ATOM     16  C   UNL     1       3.615   5.147  17.565  0.00  0.00    +0.000 A 
ATOM     17  C   UNL     1       4.506   4.526  16.674  0.00  0.00    +0.000 A 
BRANCH  12  19
ATOM     18  C   UNL     1       5.930   3.937  13.925  0.00  0.00    +0.000 C 
ATOM     19  C   UNL     1       6.505   4.572  15.166  0.00  0.00    +0.000 C 
ATOM     20  O   UNL     1       7.713   4.552  15.398  0.00  0.00    +0.000 OA
ENDBRANCH  12  19
ENDBRANCH   1  15
TORSDOF 3
ENDMDL
