MODEL 1
REMARK VINA RESULT:      -6.9      0.000      0.000
REMARK  Name = 
REMARK  9 active torsions:
REMARK  status: ('A' for Active; 'I' for Inactive)
REMARK    1  A    between atoms: C_1  and  C_2
REMARK    2  A    between atoms: C_2  and  C_3
REMARK    3  A    between atoms: C_3  and  S_4
REMARK    4  A    between atoms: S_4  and  N_7
REMARK    5  A    between atoms: N_7  and  C_8
REMARK    6  A    between atoms: C_8  and  C_9
REMARK    7  A    between atoms: C_9  and  N_10
REMARK    8  A    between atoms: C_14  and  C_15
REMARK    9  A    between atoms: C_14  and  C_16
REMARK                            x       y       z     vdW  Elec       q    Type
REMARK                         _______ _______ _______ _____ _____    ______ ____
ROOT
ATOM      1  C   UNL     1       4.532   4.343  16.741  0.00  0.00    +0.000 C 
ENDROOT
BRANCH   1   2
ATOM      2  N   UNL     1       5.727   3.989  15.960  0.00  0.00    +0.000 NA
ATOM      3  H   UNL     1       5.866   3.000  15.761  0.00  0.00    +0.000 HD
BRANCH   2   4
ATOM      4  S   UNL     1       7.120   4.912  16.100  0.00  0.00    +0.000 S 
ATOM      5  O   UNL     1       7.522   5.363  14.789  0.00  0.00    +0.000 OA
ATOM      6  O   UNL     1       8.018   4.198  16.978  0.00  0.00    +0.000 OA
BRANCH   4   7
ATOM      7  C   UNL     1       6.538   6.350  16.996  0.00  0.00    +0.000 C 
BRANCH   7   9
ATOM      8  C   UNL     1       7.816   8.409  17.725  0.00  0.00    +0.000 C 
ATOM      9  C   UNL     1       7.676   6.905  17.850  0.00  0.00    +0.000 C 
ENDBRANCH   7   9
ENDBRANCH   4   7
ENDBRANCH   2   4
ENDBRANCH   1   2
BRANCH   1  10
ATOM     10  C   UNL     1       4.150   3.302  17.821  0.00  0.00    +0.000 C 
BRANCH  10  11
ATOM     11  N   UNL     1       4.396   3.678  19.223  0.00  0.00    +0.000 NA
ATOM     12  C   UNL     1       4.153   5.099  19.520  0.00  0.00    +0.000 C 
ATOM     13  C   UNL     1       2.662   5.470  19.556  0.00  0.00    +0.000 C 
ATOM     14  O   UNL     1       1.922   4.679  20.495  0.00  0.00    +0.000 OA
ATOM     15  C   UNL     1       2.079   3.258  20.306  0.00  0.00    +0.000 C 
ATOM     16  C   UNL     1       1.207   2.780  19.134  0.00  0.00    +0.000 C 
ATOM     17  C   UNL     1       1.519   2.600  21.580  0.00  0.00    +0.000 C 
ATOM     18  C   UNL     1       3.589   2.875  20.172  0.00  0.00    +0.000 C 
ENDBRANCH  10  11
ENDBRANCH   1  10
TORSDOF 6
ENDMDL
MODEL 2
REMARK VINA RESULT:      -6.6      1.896      2.564
REMARK  Name = 
REMARK  9 active torsions:
REMARK  status: ('A' for Active; 'I' for Inactive)
REMARK    1  A    between atoms: C_1  and  C_2
REMARK    2  A    between atoms: C_2  and  C_3
REMARK    3  A    between atoms: C_3  and  S_4
REMARK    4  A    between atoms: S_4  and  N_7
REMARK    5  A    between atoms: N_7  and  C_8
REMARK    6  A    between atoms: C_8  and  C_9
REMARK    7  A    between atoms: C_9  and  N_10
REMARK    8  A    between atoms: C_14  and  C_15
REMARK    9  A    between atoms: C_14  and  C_16
REMARK                            x       y       z     vdW  Elec       q    Type
REMARK                         _______ _______ _______ _____ _____    ______ ____
ROOT
ATOM      1  C   UNL     1       4.258   4.074  16.560  0.00  0.00    +0.000 C 
ENDROOT
BRANCH   1   2
ATOM      2  N   UNL     1       5.659   3.699  16.318  0.00  0.00    +0.000 NA
ATOM      3  H   UNL     1       5.997   2.864  16.793  0.00  0.00    +0.000 HD
BRANCH   2   4
ATOM      4  S   UNL     1       6.803   4.888  16.022  0.00  0.00    +0.000 S 
ATOM      5  O   UNL     1       8.031   4.543  16.697  0.00  0.00    +0.000 OA
ATOM      6  O   UNL     1       6.151   6.163  16.213  0.00  0.00    +0.000 OA
BRANCH   4   7
ATOM      7  C   UNL     1       7.100   4.705  14.265  0.00  0.00    +0.000 C 
BRANCH   7   9
ATOM      8  C   UNL     1       6.294   3.392  12.256  0.00  0.00    +0.000 C 
ATOM      9  C   UNL     1       5.958   3.904  13.642  0.00  0.00    +0.000 C 
ENDBRANCH   7   9
ENDBRANCH   4   7
ENDBRANCH   2   4
ENDBRANCH   1   2
BRANCH   1  10
ATOM     10  C   UNL     1       3.590   3.305  17.727  0.00  0.00    +0.000 C 
BRANCH  10  11
ATOM     11  N   UNL     1       4.123   3.552  19.077  0.00  0.00    +0.000 NA
ATOM     12  C   UNL     1       4.106   4.966  19.485  0.00  0.00    +0.000 C 
ATOM     13  C   UNL     1       2.699   5.491  19.814  0.00  0.00    +0.000 C 
ATOM     14  O   UNL     1       2.050   4.719  20.832  0.00  0.00    +0.000 OA
ATOM     15  C   UNL     1       2.002   3.306  20.546  0.00  0.00    +0.000 C 
ATOM     16  C   UNL     1       0.886   3.009  19.531  0.00  0.00    +0.000 C 
ATOM     17  C   UNL     1       1.602   2.623  21.865  0.00  0.00    +0.000 C 
ATOM     18  C   UNL     1       3.408   2.775  20.116  0.00  0.00    +0.000 C 
ENDBRANCH  10  11
ENDBRANCH   1  10
TORSDOF 6
ENDMDL
MODEL 3
REMARK VINA RESULT:      -6.5      1.246      1.908
REMARK  Name = 
REMARK  9 active torsions:
REMARK  status: ('A' for Active; 'I' for Inactive)
REMARK    1  A    between atoms: C_1  and  C_2
REMARK    2  A    between atoms: C_2  and  C_3
REMARK    3  A    between atoms: C_3  and  S_4
REMARK    4  A    between atoms: S_4  and  N_7
REMARK    5  A    between atoms: N_7  and  C_8
REMARK    6  A    between atoms: C_8  and  C_9
REMARK    7  A    between atoms: C_9  and  N_10
REMARK    8  A    between atoms: C_14  and  C_15
REMARK    9  A    between atoms: C_14  and  C_16
REMARK                            x       y       z     vdW  Elec       q    Type
REMARK                         _______ _______ _______ _____ _____    ______ ____
ROOT
ATOM      1  C   UNL     1       4.784   4.204  16.016  0.00  0.00    +0.000 C 
ENDROOT
BRANCH   1   2
ATOM      2  N   UNL     1       6.078   3.733  16.533  0.00  0.00    +0.000 NA
ATOM      3  H   UNL     1       6.049   2.991  17.229  0.00  0.00    +0.000 HD
BRANCH   2   4
ATOM      4  S   UNL     1       7.367   4.798  16.649  0.00  0.00    +0.000 S 
ATOM      5  O   UNL     1       7.673   5.317  15.337  0.00  0.00    +0.000 OA
ATOM      6  O   UNL     1       8.367   4.167  17.480  0.00  0.00    +0.000 OA
BRANCH   4   7
ATOM      7  C   UNL     1       6.667   6.146  17.598  0.00  0.00    +0.000 C 
BRANCH   7   9
ATOM      8  C   UNL     1       7.904   8.354  17.660  0.00  0.00    +0.000 C 
ATOM      9  C   UNL     1       7.796   6.955  18.233  0.00  0.00    +0.000 C 
ENDBRANCH   7   9
ENDBRANCH   4   7
ENDBRANCH   2   4
ENDBRANCH   1   2
BRANCH   1  10
ATOM     10  C   UNL     1       3.694   4.379  17.103  0.00  0.00    +0.000 C 
BRANCH  10  11
ATOM     11  N   UNL     1       2.775   3.249  17.311  0.00  0.00    +0.000 NA
ATOM     12  C   UNL     1       3.426   2.019  17.790  0.00  0.00    +0.000 C 
ATOM     13  C   UNL     1       3.862   2.092  19.262  0.00  0.00    +0.000 C 
ATOM     14  O   UNL     1       2.772   2.398  20.142  0.00  0.00    +0.000 OA
ATOM     15  C   UNL     1       2.050   3.592  19.775  0.00  0.00    +0.000 C 
ATOM     16  C   UNL     1       2.830   4.840  20.217  0.00  0.00    +0.000 C 
ATOM     17  C   UNL     1       0.747   3.563  20.594  0.00  0.00    +0.000 C 
ATOM     18  C   UNL     1       1.682   3.577  18.256  0.00  0.00    +0.000 C 
ENDBRANCH  10  11
ENDBRANCH   1  10
TORSDOF 6
ENDMDL
MODEL 4
REMARK VINA RESULT:      -6.4      2.196      3.265
REMARK  Name = 
REMARK  9 active torsions:
REMARK  status: ('A' for Active; 'I' for Inactive)
REMARK    1  A    between atoms: C_1  and  C_2
REMARK    2  A    between atoms: C_2  and  C_3
REMARK    3  A    between atoms: C_3  and  S_4
REMARK    4  A    between atoms: S_4  and  N_7
REMARK    5  A    between atoms: N_7  and  C_8
REMARK    6  A    between atoms: C_8  and  C_9
REMARK    7  A    between atoms: C_9  and  N_10
REMARK    8  A    between atoms: C_14  and  C_15
REMARK    9  A    between atoms: C_14  and  C_16
REMARK                            x       y       z     vdW  Elec       q    Type
REMARK                         _______ _______ _______ _____ _____    ______ ____
ROOT
ATOM      1  C   UNL     1       6.359   4.686  17.976  0.00  0.00    +0.000 C 
ENDROOT
BRANCH   1   2
ATOM      2  N   UNL     1       6.851   4.262  16.657  0.00  0.00    +0.000 NA
ATOM      3  H   UNL     1       7.695   3.693  16.646  0.00  0.00    +0.000 HD
BRANCH   2   4
ATOM      4  S   UNL     1       6.611   5.244  15.320  0.00  0.00    +0.000 S 
ATOM      5  O   UNL     1       7.873   5.454  14.652  0.00  0.00    +0.000 OA
ATOM      6  O   UNL     1       5.771   6.341  15.743  0.00  0.00    +0.000 OA
BRANCH   4   7
ATOM      7  C   UNL     1       5.619   4.202  14.252  0.00  0.00    +0.000 C 
BRANCH   7   9
ATOM      8  C   UNL     1       5.667   2.936  12.060  0.00  0.00    +0.000 C 
ATOM      9  C   UNL     1       6.421   3.857  12.999  0.00  0.00    +0.000 C 
ENDBRANCH   7   9
ENDBRANCH   4   7
ENDBRANCH   2   4
ENDBRANCH   1   2
BRANCH   1  10
ATOM     10  C   UNL     1       5.106   3.916  18.461  0.00  0.00    +0.000 C 
BRANCH  10  11
ATOM     11  N   UNL     1       3.798   4.442  18.039  0.00  0.00    +0.000 NA
ATOM     12  C   UNL     1       3.075   3.578  17.091  0.00  0.00    +0.000 C 
ATOM     13  C   UNL     1       2.492   2.313  17.739  0.00  0.00    +0.000 C 
ATOM     14  O   UNL     1       1.617   2.611  18.835  0.00  0.00    +0.000 OA
ATOM     15  C   UNL     1       2.215   3.457  19.839  0.00  0.00    +0.000 C 
ATOM     16  C   UNL     1       3.150   2.632  20.738  0.00  0.00    +0.000 C 
ATOM     17  C   UNL     1       1.054   3.942  20.725  0.00  0.00    +0.000 C 
ATOM     18  C   UNL     1       2.897   4.703  19.187  0.00  0.00    +0.000 C 
ENDBRANCH  10  11
ENDBRANCH   1  10
TORSDOF 6
ENDMDL
MODEL 5
REMARK VINA RESULT:      -6.4      1.993      3.014
REMARK  Name = 
REMARK  9 active torsions:
REMARK  status: ('A' for Active; 'I' for Inactive)
REMARK    1  A    between atoms: C_1  and  C_2
REMARK    2  A    between atoms: C_2  and  C_3
REMARK    3  A    between atoms: C_3  and  S_4
REMARK    4  A    between atoms: S_4  and  N_7
REMARK    5  A    between atoms: N_7  and  C_8
REMARK    6  A    between atoms: C_8  and  C_9
REMARK    7  A    between atoms: C_9  and  N_10
REMARK    8  A    between atoms: C_14  and  C_15
REMARK    9  A    between atoms: C_14  and  C_16
REMARK                            x       y       z     vdW  Elec       q    Type
REMARK                         _______ _______ _______ _____ _____    ______ ____
ROOT
ATOM      1  C   UNL     1       4.406   5.430  17.077  0.00  0.00    +0.000 C 
ENDROOT
BRANCH   1   2
ATOM      2  N   UNL     1       5.447   4.525  16.566  0.00  0.00    +0.000 NA
ATOM      3  H   UNL     1       5.418   3.563  16.897  0.00  0.00    +0.000 HD
BRANCH   2   4
ATOM      4  S   UNL     1       6.966   5.127  16.190  0.00  0.00    +0.000 S 
ATOM      5  O   UNL     1       7.969   4.331  16.855  0.00  0.00    +0.000 OA
ATOM      6  O   UNL     1       6.902   6.564  16.333  0.00  0.00    +0.000 OA
BRANCH   4   7
ATOM      7  C   UNL     1       7.093   4.777  14.437  0.00  0.00    +0.000 C 
BRANCH   7   9
ATOM      8  C   UNL     1       5.946   3.437  12.621  0.00  0.00    +0.000 C 
ATOM      9  C   UNL     1       5.791   4.140  13.955  0.00  0.00    +0.000 C 
ENDBRANCH   7   9
ENDBRANCH   4   7
ENDBRANCH   2   4
ENDBRANCH   1   2
BRANCH   1  10
ATOM     10  C   UNL     1       3.977   5.141  18.536  0.00  0.00    +0.000 C 
BRANCH  10  11
ATOM     11  N   UNL     1       2.531   5.083  18.804  0.00  0.00    +0.000 NA
ATOM     12  C   UNL     1       1.766   4.282  17.835  0.00  0.00    +0.000 C 
ATOM     13  C   UNL     1       1.977   2.768  17.990  0.00  0.00    +0.000 C 
ATOM     14  O   UNL     1       1.661   2.303  19.309  0.00  0.00    +0.000 OA
ATOM     15  C   UNL     1       2.353   3.014  20.355  0.00  0.00    +0.000 C 
ATOM     16  C   UNL     1       3.803   2.514  20.467  0.00  0.00    +0.000 C 
ATOM     17  C   UNL     1       1.644   2.629  21.665  0.00  0.00    +0.000 C 
ATOM     18  C   UNL     1       2.229   4.559  20.157  0.00  0.00    +0.000 C 
ENDBRANCH  10  11
ENDBRANCH   1  10
TORSDOF 6
ENDMDL
MODEL 6
REMARK VINA RESULT:      -6.4      0.994      1.299
REMARK  Name = 
REMARK  9 active torsions:
REMARK  status: ('A' for Active; 'I' for Inactive)
REMARK    1  A    between atoms: C_1  and  C_2
REMARK    2  A    between atoms: C_2  and  C_3
REMARK    3  A    between atoms: C_3  and  S_4
REMARK    4  A    between atoms: S_4  and  N_7
REMARK    5  A    between atoms: N_7  and  C_8
REMARK    6  A    between atoms: C_8  and  C_9
REMARK    7  A    between atoms: C_9  and  N_10
REMARK    8  A    between atoms: C_14  and  C_15
REMARK    9  A    between atoms: C_14  and  C_16
REMARK                            x       y       z     vdW  Elec       q    Type
REMARK                         _______ _______ _______ _____ _____    ______ ____
ROOT
ATOM      1  C   UNL     1       4.203   4.302  16.635  0.00  0.00    +0.000 C 
ENDROOT
BRANCH   1   2
ATOM      2  N   UNL     1       5.427   4.167  15.831  0.00  0.00    +0.000 NA
ATOM      3  H   UNL     1       5.734   3.218  15.623  0.00  0.00    +0.000 HD
BRANCH   2   4
ATOM      4  S   UNL     1       6.638   5.319  15.952  0.00  0.00    +0.000 S 
ATOM      5  O   UNL     1       6.042   6.607  16.216  0.00  0.00    +0.000 OA
ATOM      6  O   UNL     1       7.546   5.102  14.849  0.00  0.00    +0.000 OA
BRANCH   4   7
ATOM      7  C   UNL     1       7.494   4.820  17.445  0.00  0.00    +0.000 C 
BRANCH   7   9
ATOM      8  C   UNL     1       7.868   5.632  19.814  0.00  0.00    +0.000 C 
ATOM      9  C   UNL     1       7.642   6.028  18.368  0.00  0.00    +0.000 C 
ENDBRANCH   7   9
ENDBRANCH   4   7
ENDBRANCH   2   4
ENDBRANCH   1   2
BRANCH   1  10
ATOM     10  C   UNL     1       4.035   3.212  17.721  0.00  0.00    +0.000 C 
BRANCH  10  11
ATOM     11  N   UNL     1       4.352   3.599  19.106  0.00  0.00    +0.000 NA
ATOM     12  C   UNL     1       4.160   5.029  19.394  0.00  0.00    +0.000 C 
ATOM     13  C   UNL     1       2.682   5.440  19.491  0.00  0.00    +0.000 C 
ATOM     14  O   UNL     1       1.965   4.681  20.472  0.00  0.00    +0.000 OA
ATOM     15  C   UNL     1       2.076   3.254  20.295  0.00  0.00    +0.000 C 
ATOM     16  C   UNL     1       1.141   2.785  19.169  0.00  0.00    +0.000 C 
ATOM     17  C   UNL     1       1.555   2.627  21.601  0.00  0.00    +0.000 C 
ATOM     18  C   UNL     1       3.567   2.829  20.100  0.00  0.00    +0.000 C 
ENDBRANCH  10  11
ENDBRANCH   1  10
TORSDOF 6
ENDMDL
MODEL 7
REMARK VINA RESULT:      -6.3      2.189      3.157
REMARK  Name = 
REMARK  9 active torsions:
REMARK  status: ('A' for Active; 'I' for Inactive)
REMARK    1  A    between atoms: C_1  and  C_2
REMARK    2  A    between atoms: C_2  and  C_3
REMARK    3  A    between atoms: C_3  and  S_4
REMARK    4  A    between atoms: S_4  and  N_7
REMARK    5  A    between atoms: N_7  and  C_8
REMARK    6  A    between atoms: C_8  and  C_9
REMARK    7  A    between atoms: C_9  and  N_10
REMARK    8  A    between atoms: C_14  and  C_15
REMARK    9  A    between atoms: C_14  and  C_16
REMARK                            x       y       z     vdW  Elec       q    Type
REMARK                         _______ _______ _______ _____ _____    ______ ____
ROOT
ATOM      1  C   UNL     1       6.363   4.731  18.661  0.00  0.00    +0.000 C 
ENDROOT
BRANCH   1   2
ATOM      2  N   UNL     1       6.683   4.398  17.264  0.00  0.00    +0.000 NA
ATOM      3  H   UNL     1       7.382   3.673  17.117  0.00  0.00    +0.000 HD
BRANCH   2   4
ATOM      4  S   UNL     1       6.593   5.582  16.081  0.00  0.00    +0.000 S 
ATOM      5  O   UNL     1       7.594   6.589  16.342  0.00  0.00    +0.000 OA
ATOM      6  O   UNL     1       5.196   5.910  15.912  0.00  0.00    +0.000 OA
BRANCH   4   7
ATOM      7  C   UNL     1       7.109   4.696  14.612  0.00  0.00    +0.000 C 
BRANCH   7   9
ATOM      8  C   UNL     1       6.114   3.534  12.596  0.00  0.00    +0.000 C 
ATOM      9  C   UNL     1       5.920   3.922  14.048  0.00  0.00    +0.000 C 
ENDBRANCH   7   9
ENDBRANCH   4   7
ENDBRANCH   2   4
ENDBRANCH   1   2
BRANCH   1  10
ATOM     10  C   UNL     1       5.097   4.026  19.205  0.00  0.00    +0.000 C 
BRANCH  10  11
ATOM     11  N   UNL     1       3.909   4.026  18.336  0.00  0.00    +0.000 NA
ATOM     12  C   UNL     1       3.730   2.793  17.555  0.00  0.00    +0.000 C 
ATOM     13  C   UNL     1       3.259   1.597  18.398  0.00  0.00    +0.000 C 
ATOM     14  O   UNL     1       2.039   1.868  19.101  0.00  0.00    +0.000 OA
ATOM     15  C   UNL     1       2.090   3.062  19.910  0.00  0.00    +0.000 C 
ATOM     16  C   UNL     1       2.847   2.784  21.218  0.00  0.00    +0.000 C 
ATOM     17  C   UNL     1       0.632   3.373  20.291  0.00  0.00    +0.000 C 
ATOM     18  C   UNL     1       2.657   4.267  19.092  0.00  0.00    +0.000 C 
ENDBRANCH  10  11
ENDBRANCH   1  10
TORSDOF 6
ENDMDL
MODEL 8
REMARK VINA RESULT:      -6.2      2.183      3.235
REMARK  Name = 
REMARK  9 active torsions:
REMARK  status: ('A' for Active; 'I' for Inactive)
REMARK    1  A    between atoms: C_1  and  C_2
REMARK    2  A    between atoms: C_2  and  C_3
REMARK    3  A    between atoms: C_3  and  S_4
REMARK    4  A    between atoms: S_4  and  N_7
REMARK    5  A    between atoms: N_7  and  C_8
REMARK    6  A    between atoms: C_8  and  C_9
REMARK    7  A    between atoms: C_9  and  N_10
REMARK    8  A    between atoms: C_14  and  C_15
REMARK    9  A    between atoms: C_14  and  C_16
REMARK                            x       y       z     vdW  Elec       q    Type
REMARK                         _______ _______ _______ _____ _____    ______ ____
ROOT
ATOM      1  C   UNL     1       4.886   6.167  15.890  0.00  0.00    +0.000 C 
ENDROOT
BRANCH   1   2
ATOM      2  N   UNL     1       6.345   6.330  15.798  0.00  0.00    +0.000 NA
ATOM      3  H   UNL     1       6.688   7.269  15.607  0.00  0.00    +0.000 HD
BRANCH   2   4
ATOM      4  S   UNL     1       7.291   5.071  15.223  0.00  0.00    +0.000 S 
ATOM      5  O   UNL     1       7.811   4.320  16.340  0.00  0.00    +0.000 OA
ATOM      6  O   UNL     1       8.149   5.618  14.196  0.00  0.00    +0.000 OA
BRANCH   4   7
ATOM      7  C   UNL     1       6.086   4.029  14.403  0.00  0.00    +0.000 C 
BRANCH   7   9
ATOM      8  C   UNL     1       5.451   3.071  12.148  0.00  0.00    +0.000 C 
ATOM      9  C   UNL     1       6.411   3.959  12.913  0.00  0.00    +0.000 C 
ENDBRANCH   7   9
ENDBRANCH   4   7
ENDBRANCH   2   4
ENDBRANCH   1   2
BRANCH   1  10
ATOM     10  C   UNL     1       4.352   6.051  17.338  0.00  0.00    +0.000 C 
BRANCH  10  11
ATOM     11  N   UNL     1       4.755   4.860  18.102  0.00  0.00    +0.000 NA
ATOM     12  C   UNL     1       4.684   5.023  19.563  0.00  0.00    +0.000 C 
ATOM     13  C   UNL     1       3.247   5.034  20.108  0.00  0.00    +0.000 C 
ATOM     14  O   UNL     1       2.516   3.854  19.750  0.00  0.00    +0.000 OA
ATOM     15  C   UNL     1       2.511   3.583  18.333  0.00  0.00    +0.000 C 
ATOM     16  C   UNL     1       1.497   4.494  17.622  0.00  0.00    +0.000 C 
ATOM     17  C   UNL     1       2.001   2.139  18.182  0.00  0.00    +0.000 C 
ATOM     18  C   UNL     1       3.957   3.663  17.744  0.00  0.00    +0.000 C 
ENDBRANCH  10  11
ENDBRANCH   1  10
TORSDOF 6
ENDMDL
MODEL 9
REMARK VINA RESULT:      -6.2      1.977      2.984
REMARK  Name = 
REMARK  9 active torsions:
REMARK  status: ('A' for Active; 'I' for Inactive)
REMARK    1  A    between atoms: C_1  and  C_2
REMARK    2  A    between atoms: C_2  and  C_3
REMARK    3  A    between atoms: C_3  and  S_4
REMARK    4  A    between atoms: S_4  and  N_7
REMARK    5  A    between atoms: N_7  and  C_8
REMARK    6  A    between atoms: C_8  and  C_9
REMARK    7  A    between atoms: C_9  and  N_10
REMARK    8  A    between atoms: C_14  and  C_15
REMARK    9  A    between atoms: C_14  and  C_16
REMARK                            x       y       z     vdW  Elec       q    Type
REMARK                         _______ _______ _______ _____ _____    ______ ____
ROOT
ATOM      1  C   UNL     1       6.120   4.818  19.070  0.00  0.00    +0.000 C 
ENDROOT
BRANCH   1   2
ATOM      2  N   UNL     1       6.178   5.872  18.047  0.00  0.00    +0.000 NA
ATOM      3  H   UNL     1       5.330   6.416  17.902  0.00  0.00    +0.000 HD
BRANCH   2   4
ATOM      4  S   UNL     1       7.165   5.680  16.705  0.00  0.00    +0.000 S 
ATOM      5  O   UNL     1       7.921   4.458  16.844  0.00  0.00    +0.000 OA
ATOM      6  O   UNL     1       7.798   6.954  16.456  0.00  0.00    +0.000 OA
BRANCH   4   7
ATOM      7  C   UNL     1       5.976   5.416  15.391  0.00  0.00    +0.000 C 
BRANCH   7   9
ATOM      8  C   UNL     1       6.057   3.783  13.458  0.00  0.00    +0.000 C 
ATOM      9  C   UNL     1       6.016   3.950  14.963  0.00  0.00    +0.000 C 
ENDBRANCH   7   9
ENDBRANCH   4   7
ENDBRANCH   2   4
ENDBRANCH   1   2
BRANCH   1  10
ATOM     10  C   UNL     1       4.688   4.497  19.566  0.00  0.00    +0.000 C 
BRANCH  10  11
ATOM     11  N   UNL     1       3.661   4.280  18.535  0.00  0.00    +0.000 NA
ATOM     12  C   UNL     1       3.839   3.048  17.751  0.00  0.00    +0.000 C 
ATOM     13  C   UNL     1       3.496   1.770  18.532  0.00  0.00    +0.000 C 
ATOM     14  O   UNL     1       2.158   1.786  19.049  0.00  0.00    +0.000 OA
ATOM     15  C   UNL     1       1.858   2.953  19.842  0.00  0.00    +0.000 C 
ATOM     16  C   UNL     1       2.459   2.807  21.249  0.00  0.00    +0.000 C 
ATOM     17  C   UNL     1       0.328   2.967  20.006  0.00  0.00    +0.000 C 
ATOM     18  C   UNL     1       2.291   4.259  19.100  0.00  0.00    +0.000 C 
ENDBRANCH  10  11
ENDBRANCH   1  10
TORSDOF 6
ENDMDL
