MODEL 1
REMARK VINA RESULT:      -7.4      0.000      0.000
REMARK  Name = 
REMARK  6 active torsions:
REMARK  status: ('A' for Active; 'I' for Inactive)
REMARK    1  A    between atoms: C_1  and  N_2
REMARK    2  A    between atoms: N_2  and  C_3
REMARK    3  A    between atoms: N_2  and  C_4
REMARK    4  A    between atoms: C_4  and  C_5
REMARK    5  A    between atoms: C_5  and  O_6
REMARK    6  A    between atoms: C_5  and  C_7
REMARK                            x       y       z     vdW  Elec       q    Type
REMARK                         _______ _______ _______ _____ _____    ______ ____
ROOT
ATOM      1  C   UNL     1       4.735   4.849  17.840  0.00  0.00    +0.000 A 
ATOM      2  C   UNL     1       4.631   3.714  18.666  0.00  0.00    +0.000 A 
ATOM      3  C   UNL     1       3.695   3.618  19.687  0.00  0.00    +0.000 A 
ATOM      4  C   UNL     1       3.641   2.444  20.460  0.00  0.00    +0.000 A 
ATOM      5  C   UNL     1       2.715   2.300  21.488  0.00  0.00    +0.000 A 
ATOM      6  C   UNL     1       1.834   3.335  21.755  0.00  0.00    +0.000 A 
ATOM      7  C   UNL     1       1.878   4.501  20.988  0.00  0.00    +0.000 A 
ATOM      8  C   UNL     1       2.807   4.686  19.931  0.00  0.00    +0.000 A 
ATOM      9  C   UNL     1       2.900   5.872  19.116  0.00  0.00    +0.000 A 
ATOM     10  C   UNL     1       2.021   6.972  19.275  0.00  0.00    +0.000 A 
ATOM     11  C   UNL     1       2.123   8.139  18.517  0.00  0.00    +0.000 A 
ATOM     12  C   UNL     1       3.117   8.244  17.567  0.00  0.00    +0.000 A 
ATOM     13  C   UNL     1       3.986   7.173  17.353  0.00  0.00    +0.000 A 
ATOM     14  C   UNL     1       3.890   5.962  18.092  0.00  0.00    +0.000 A 
ENDROOT
BRANCH   1  15
ATOM     15  C   UNL     1       5.737   4.801  16.692  0.00  0.00    +0.000 C 
BRANCH  15  16
ATOM     16  O   UNL     1       5.726   3.480  16.124  0.00  0.00    +0.000 OA
ATOM     17  H   UNL     1       6.631   3.135  16.209  0.00  0.00    +0.000 HD
ENDBRANCH  15  16
BRANCH  15  18
ATOM     18  C   UNL     1       7.179   5.191  17.133  0.00  0.00    +0.000 C 
BRANCH  18  20
ATOM     19  C   UNL     1       8.092   5.821  19.312  0.00  0.00    +0.000 C 
ATOM     20  N   UNL     1       7.230   6.231  18.197  0.00  0.00    +0.000 NA
ATOM     21  C   UNL     1       7.731   7.495  17.642  0.00  0.00    +0.000 C 
ENDBRANCH  18  20
ENDBRANCH  15  18
ENDBRANCH   1  15
TORSDOF 4
ENDMDL
MODEL 2
REMARK VINA RESULT:      -7.2      1.826      4.285
REMARK  Name = 
REMARK  6 active torsions:
REMARK  status: ('A' for Active; 'I' for Inactive)
REMARK    1  A    between atoms: C_1  and  N_2
REMARK    2  A    between atoms: N_2  and  C_3
REMARK    3  A    between atoms: N_2  and  C_4
REMARK    4  A    between atoms: C_4  and  C_5
REMARK    5  A    between atoms: C_5  and  O_6
REMARK    6  A    between atoms: C_5  and  C_7
REMARK                            x       y       z     vdW  Elec       q    Type
REMARK                         _______ _______ _______ _____ _____    ______ ____
ROOT
ATOM      1  C   UNL     1       3.948   4.808  17.948  0.00  0.00    +0.000 A 
ATOM      2  C   UNL     1       3.691   6.124  17.518  0.00  0.00    +0.000 A 
ATOM      3  C   UNL     1       2.916   7.011  18.253  0.00  0.00    +0.000 A 
ATOM      4  C   UNL     1       2.718   8.315  17.766  0.00  0.00    +0.000 A 
ATOM      5  C   UNL     1       1.955   9.240  18.472  0.00  0.00    +0.000 A 
ATOM      6  C   UNL     1       1.378   8.865  19.674  0.00  0.00    +0.000 A 
ATOM      7  C   UNL     1       1.575   7.573  20.167  0.00  0.00    +0.000 A 
ATOM      8  C   UNL     1       2.347   6.601  19.477  0.00  0.00    +0.000 A 
ATOM      9  C   UNL     1       2.573   5.253  19.936  0.00  0.00    +0.000 A 
ATOM     10  C   UNL     1       2.066   4.779  21.172  0.00  0.00    +0.000 A 
ATOM     11  C   UNL     1       2.249   3.467  21.611  0.00  0.00    +0.000 A 
ATOM     12  C   UNL     1       2.950   2.580  20.821  0.00  0.00    +0.000 A 
ATOM     13  C   UNL     1       3.495   3.013  19.611  0.00  0.00    +0.000 A 
ATOM     14  C   UNL     1       3.349   4.349  19.149  0.00  0.00    +0.000 A 
ENDROOT
BRANCH   1  15
ATOM     15  C   UNL     1       4.890   3.958  17.103  0.00  0.00    +0.000 C 
BRANCH  15  16
ATOM     16  O   UNL     1       6.178   3.921  17.743  0.00  0.00    +0.000 OA
ATOM     17  H   UNL     1       6.726   4.590  17.298  0.00  0.00    +0.000 HD
ENDBRANCH  15  16
BRANCH  15  18
ATOM     18  C   UNL     1       5.024   4.476  15.641  0.00  0.00    +0.000 C 
BRANCH  18  20
ATOM     19  C   UNL     1       5.976   3.693  13.528  0.00  0.00    +0.000 C 
ATOM     20  N   UNL     1       6.248   4.003  14.937  0.00  0.00    +0.000 NA
ATOM     21  C   UNL     1       7.298   5.027  15.009  0.00  0.00    +0.000 C 
ENDBRANCH  18  20
ENDBRANCH  15  18
ENDBRANCH   1  15
TORSDOF 4
ENDMDL
MODEL 3
REMARK VINA RESULT:      -7.1      2.465      5.192
REMARK  Name = 
REMARK  6 active torsions:
REMARK  status: ('A' for Active; 'I' for Inactive)
REMARK    1  A    between atoms: C_1  and  N_2
REMARK    2  A    between atoms: N_2  and  C_3
REMARK    3  A    between atoms: N_2  and  C_4
REMARK    4  A    between atoms: C_4  and  C_5
REMARK    5  A    between atoms: C_5  and  O_6
REMARK    6  A    between atoms: C_5  and  C_7
REMARK                            x       y       z     vdW  Elec       q    Type
REMARK                         _______ _______ _______ _____ _____    ______ ____
ROOT
ATOM      1  C   UNL     1       4.106   3.858  18.670  0.00  0.00    +0.000 A 
ATOM      2  C   UNL     1       4.901   3.362  17.619  0.00  0.00    +0.000 A 
ATOM      3  C   UNL     1       5.272   4.142  16.532  0.00  0.00    +0.000 A 
ATOM      4  C   UNL     1       6.082   3.581  15.529  0.00  0.00    +0.000 A 
ATOM      5  C   UNL     1       6.484   4.327  14.426  0.00  0.00    +0.000 A 
ATOM      6  C   UNL     1       6.074   5.645  14.314  0.00  0.00    +0.000 A 
ATOM      7  C   UNL     1       5.273   6.211  15.309  0.00  0.00    +0.000 A 
ATOM      8  C   UNL     1       4.843   5.483  16.450  0.00  0.00    +0.000 A 
ATOM      9  C   UNL     1       4.010   6.016  17.499  0.00  0.00    +0.000 A 
ATOM     10  C   UNL     1       3.570   7.364  17.506  0.00  0.00    +0.000 A 
ATOM     11  C   UNL     1       2.735   7.882  18.497  0.00  0.00    +0.000 A 
ATOM     12  C   UNL     1       2.310   7.062  19.521  0.00  0.00    +0.000 A 
ATOM     13  C   UNL     1       2.745   5.736  19.572  0.00  0.00    +0.000 A 
ATOM     14  C   UNL     1       3.616   5.187  18.592  0.00  0.00    +0.000 A 
ENDROOT
BRANCH   1  15
ATOM     15  C   UNL     1       3.843   2.935  19.855  0.00  0.00    +0.000 C 
BRANCH  15  16
ATOM     16  O   UNL     1       5.053   2.222  20.163  0.00  0.00    +0.000 OA
ATOM     17  H   UNL     1       5.572   2.192  19.341  0.00  0.00    +0.000 HD
ENDBRANCH  15  16
BRANCH  15  18
ATOM     18  C   UNL     1       2.675   1.938  19.597  0.00  0.00    +0.000 C 
BRANCH  18  20
ATOM     19  C   UNL     1       1.742   2.919  21.633  0.00  0.00    +0.000 C 
ATOM     20  N   UNL     1       1.438   2.236  20.371  0.00  0.00    +0.000 NA
ATOM     21  C   UNL     1       0.536   3.077  19.574  0.00  0.00    +0.000 C 
ENDBRANCH  18  20
ENDBRANCH  15  18
ENDBRANCH   1  15
TORSDOF 4
ENDMDL
MODEL 4
REMARK VINA RESULT:      -7.1      2.347      5.058
REMARK  Name = 
REMARK  6 active torsions:
REMARK  status: ('A' for Active; 'I' for Inactive)
REMARK    1  A    between atoms: C_1  and  N_2
REMARK    2  A    between atoms: N_2  and  C_3
REMARK    3  A    between atoms: N_2  and  C_4
REMARK    4  A    between atoms: C_4  and  C_5
REMARK    5  A    between atoms: C_5  and  O_6
REMARK    6  A    between atoms: C_5  and  C_7
REMARK                            x       y       z     vdW  Elec       q    Type
REMARK                         _______ _______ _______ _____ _____    ______ ____
ROOT
ATOM      1  C   UNL     1       3.760   4.623  19.097  0.00  0.00    +0.000 A 
ATOM      2  C   UNL     1       2.919   5.536  19.762  0.00  0.00    +0.000 A 
ATOM      3  C   UNL     1       2.633   6.795  19.251  0.00  0.00    +0.000 A 
ATOM      4  C   UNL     1       1.771   7.645  19.965  0.00  0.00    +0.000 A 
ATOM      5  C   UNL     1       1.451   8.912  19.488  0.00  0.00    +0.000 A 
ATOM      6  C   UNL     1       1.996   9.343  18.290  0.00  0.00    +0.000 A 
ATOM      7  C   UNL     1       2.850   8.502  17.573  0.00  0.00    +0.000 A 
ATOM      8  C   UNL     1       3.200   7.202  18.025  0.00  0.00    +0.000 A 
ATOM      9  C   UNL     1       4.083   6.299  17.329  0.00  0.00    +0.000 A 
ATOM     10  C   UNL     1       4.661   6.621  16.076  0.00  0.00    +0.000 A 
ATOM     11  C   UNL     1       5.543   5.771  15.409  0.00  0.00    +0.000 A 
ATOM     12  C   UNL     1       5.879   4.561  15.979  0.00  0.00    +0.000 A 
ATOM     13  C   UNL     1       5.308   4.188  17.197  0.00  0.00    +0.000 A 
ATOM     14  C   UNL     1       4.386   5.021  17.887  0.00  0.00    +0.000 A 
ENDROOT
BRANCH   1  15
ATOM     15  C   UNL     1       3.924   3.236  19.708  0.00  0.00    +0.000 C 
BRANCH  15  16
ATOM     16  O   UNL     1       5.316   2.877  19.675  0.00  0.00    +0.000 OA
ATOM     17  H   UNL     1       5.388   2.006  20.101  0.00  0.00    +0.000 HD
ENDBRANCH  15  16
BRANCH  15  18
ATOM     18  C   UNL     1       3.066   2.153  18.988  0.00  0.00    +0.000 C 
BRANCH  18  20
ATOM     19  C   UNL     1       1.669   2.444  20.974  0.00  0.00    +0.000 C 
ATOM     20  N   UNL     1       1.727   1.931  19.600  0.00  0.00    +0.000 NA
ATOM     21  C   UNL     1       0.691   2.590  18.797  0.00  0.00    +0.000 C 
ENDBRANCH  18  20
ENDBRANCH  15  18
ENDBRANCH   1  15
TORSDOF 4
ENDMDL
MODEL 5
REMARK VINA RESULT:      -7.1      1.381      1.394
REMARK  Name = 
REMARK  6 active torsions:
REMARK  status: ('A' for Active; 'I' for Inactive)
REMARK    1  A    between atoms: C_1  and  N_2
REMARK    2  A    between atoms: N_2  and  C_3
REMARK    3  A    between atoms: N_2  and  C_4
REMARK    4  A    between atoms: C_4  and  C_5
REMARK    5  A    between atoms: C_5  and  O_6
REMARK    6  A    between atoms: C_5  and  C_7
REMARK                            x       y       z     vdW  Elec       q    Type
REMARK                         _______ _______ _______ _____ _____    ______ ____
ROOT
ATOM      1  C   UNL     1       4.501   5.278  16.857  0.00  0.00    +0.000 A 
ATOM      2  C   UNL     1       4.259   3.925  17.161  0.00  0.00    +0.000 A 
ATOM      3  C   UNL     1       3.201   3.518  17.964  0.00  0.00    +0.000 A 
ATOM      4  C   UNL     1       3.014   2.147  18.210  0.00  0.00    +0.000 A 
ATOM      5  C   UNL     1       1.964   1.693  19.002  0.00  0.00    +0.000 A 
ATOM      6  C   UNL     1       1.091   2.612  19.560  0.00  0.00    +0.000 A 
ATOM      7  C   UNL     1       1.268   3.976  19.316  0.00  0.00    +0.000 A 
ATOM      8  C   UNL     1       2.326   4.478  18.513  0.00  0.00    +0.000 A 
ATOM      9  C   UNL     1       2.558   5.874  18.239  0.00  0.00    +0.000 A 
ATOM     10  C   UNL     1       1.702   6.895  18.724  0.00  0.00    +0.000 A 
ATOM     11  C   UNL     1       1.935   8.251  18.493  0.00  0.00    +0.000 A 
ATOM     12  C   UNL     1       3.042   8.633  17.765  0.00  0.00    +0.000 A 
ATOM     13  C   UNL     1       3.894   7.661  17.240  0.00  0.00    +0.000 A 
ATOM     14  C   UNL     1       3.669   6.271  17.435  0.00  0.00    +0.000 A 
ENDROOT
BRANCH   1  15
ATOM     15  C   UNL     1       5.635   5.594  15.888  0.00  0.00    +0.000 C 
BRANCH  15  16
ATOM     16  O   UNL     1       5.609   4.635  14.817  0.00  0.00    +0.000 OA
ATOM     17  H   UNL     1       6.512   4.597  14.457  0.00  0.00    +0.000 HD
ENDBRANCH  15  16
BRANCH  15  18
ATOM     18  C   UNL     1       7.032   5.602  16.576  0.00  0.00    +0.000 C 
BRANCH  18  20
ATOM     19  C   UNL     1       7.831   5.679  18.886  0.00  0.00    +0.000 C 
ATOM     20  N   UNL     1       7.083   6.387  17.841  0.00  0.00    +0.000 NA
ATOM     21  C   UNL     1       7.713   7.691  17.599  0.00  0.00    +0.000 C 
ENDBRANCH  18  20
ENDBRANCH  15  18
ENDBRANCH   1  15
TORSDOF 4
ENDMDL
MODEL 6
REMARK VINA RESULT:      -7.0      1.101      3.956
REMARK  Name = 
REMARK  6 active torsions:
REMARK  status: ('A' for Active; 'I' for Inactive)
REMARK    1  A    between atoms: C_1  and  N_2
REMARK    2  A    between atoms: N_2  and  C_3
REMARK    3  A    between atoms: N_2  and  C_4
REMARK    4  A    between atoms: C_4  and  C_5
REMARK    5  A    between atoms: C_5  and  O_6
REMARK    6  A    between atoms: C_5  and  C_7
REMARK                            x       y       z     vdW  Elec       q    Type
REMARK                         _______ _______ _______ _____ _____    ______ ____
ROOT
ATOM      1  C   UNL     1       4.004   5.078  18.004  0.00  0.00    +0.000 A 
ATOM      2  C   UNL     1       3.703   6.386  17.578  0.00  0.00    +0.000 A 
ATOM      3  C   UNL     1       2.860   7.227  18.290  0.00  0.00    +0.000 A 
ATOM      4  C   UNL     1       2.621   8.527  17.809  0.00  0.00    +0.000 A 
ATOM      5  C   UNL     1       1.789   9.407  18.494  0.00  0.00    +0.000 A 
ATOM      6  C   UNL     1       1.183   8.991  19.668  0.00  0.00    +0.000 A 
ATOM      7  C   UNL     1       1.420   7.703  20.154  0.00  0.00    +0.000 A 
ATOM      8  C   UNL     1       2.262   6.777  19.486  0.00  0.00    +0.000 A 
ATOM      9  C   UNL     1       2.532   5.435  19.940  0.00  0.00    +0.000 A 
ATOM     10  C   UNL     1       1.999   4.922  21.149  0.00  0.00    +0.000 A 
ATOM     11  C   UNL     1       2.225   3.615  21.581  0.00  0.00    +0.000 A 
ATOM     12  C   UNL     1       2.997   2.771  20.811  0.00  0.00    +0.000 A 
ATOM     13  C   UNL     1       3.569   3.243  19.629  0.00  0.00    +0.000 A 
ATOM     14  C   UNL     1       3.379   4.577  19.175  0.00  0.00    +0.000 A 
ENDROOT
BRANCH   1  15
ATOM     15  C   UNL     1       5.017   4.282  17.188  0.00  0.00    +0.000 C 
BRANCH  15  16
ATOM     16  O   UNL     1       4.612   2.902  17.168  0.00  0.00    +0.000 OA
ATOM     17  H   UNL     1       4.311   2.689  18.068  0.00  0.00    +0.000 HD
ENDBRANCH  15  16
BRANCH  15  18
ATOM     18  C   UNL     1       6.469   4.414  17.735  0.00  0.00    +0.000 C 
BRANCH  18  20
ATOM     19  C   UNL     1       7.015   5.023  15.430  0.00  0.00    +0.000 C 
ATOM     20  N   UNL     1       7.389   5.170  16.841  0.00  0.00    +0.000 NA
ATOM     21  C   UNL     1       7.378   6.595  17.195  0.00  0.00    +0.000 C 
ENDBRANCH  18  20
ENDBRANCH  15  18
ENDBRANCH   1  15
TORSDOF 4
ENDMDL
MODEL 7
REMARK VINA RESULT:      -6.8      2.321      2.906
REMARK  Name = 
REMARK  6 active torsions:
REMARK  status: ('A' for Active; 'I' for Inactive)
REMARK    1  A    between atoms: C_1  and  N_2
REMARK    2  A    between atoms: N_2  and  C_3
REMARK    3  A    between atoms: N_2  and  C_4
REMARK    4  A    between atoms: C_4  and  C_5
REMARK    5  A    between atoms: C_5  and  O_6
REMARK    6  A    between atoms: C_5  and  C_7
REMARK                            x       y       z     vdW  Elec       q    Type
REMARK                         _______ _______ _______ _____ _____    ______ ____
ROOT
ATOM      1  C   UNL     1       4.735   4.060  16.878  0.00  0.00    +0.000 A 
ATOM      2  C   UNL     1       4.143   2.923  17.460  0.00  0.00    +0.000 A 
ATOM      3  C   UNL     1       3.038   3.002  18.297  0.00  0.00    +0.000 A 
ATOM      4  C   UNL     1       2.493   1.820  18.828  0.00  0.00    +0.000 A 
ATOM      5  C   UNL     1       1.382   1.851  19.664  0.00  0.00    +0.000 A 
ATOM      6  C   UNL     1       0.807   3.070  19.981  0.00  0.00    +0.000 A 
ATOM      7  C   UNL     1       1.340   4.249  19.453  0.00  0.00    +0.000 A 
ATOM      8  C   UNL     1       2.471   4.259  18.596  0.00  0.00    +0.000 A 
ATOM      9  C   UNL     1       3.066   5.446  18.033  0.00  0.00    +0.000 A 
ATOM     10  C   UNL     1       2.533   6.740  18.257  0.00  0.00    +0.000 A 
ATOM     11  C   UNL     1       3.118   7.898  17.746  0.00  0.00    +0.000 A 
ATOM     12  C   UNL     1       4.266   7.799  16.989  0.00  0.00    +0.000 A 
ATOM     13  C   UNL     1       4.808   6.542  16.715  0.00  0.00    +0.000 A 
ATOM     14  C   UNL     1       4.220   5.342  17.199  0.00  0.00    +0.000 A 
ENDROOT
BRANCH   1  15
ATOM     15  C   UNL     1       5.885   3.839  15.901  0.00  0.00    +0.000 C 
BRANCH  15  16
ATOM     16  O   UNL     1       7.076   4.430  16.449  0.00  0.00    +0.000 OA
ATOM     17  H   UNL     1       7.010   5.387  16.287  0.00  0.00    +0.000 HD
ENDBRANCH  15  16
BRANCH  15  18
ATOM     18  C   UNL     1       5.594   4.416  14.485  0.00  0.00    +0.000 C 
BRANCH  18  20
ATOM     19  C   UNL     1       5.649   3.358  12.281  0.00  0.00    +0.000 C 
ATOM     20  N   UNL     1       6.451   3.847  13.408  0.00  0.00    +0.000 NA
ATOM     21  C   UNL     1       7.391   4.865  12.923  0.00  0.00    +0.000 C 
ENDBRANCH  18  20
ENDBRANCH  15  18
ENDBRANCH   1  15
TORSDOF 4
ENDMDL
MODEL 8
REMARK VINA RESULT:      -6.7      0.930      3.787
REMARK  Name = 
REMARK  6 active torsions:
REMARK  status: ('A' for Active; 'I' for Inactive)
REMARK    1  A    between atoms: C_1  and  N_2
REMARK    2  A    between atoms: N_2  and  C_3
REMARK    3  A    between atoms: N_2  and  C_4
REMARK    4  A    between atoms: C_4  and  C_5
REMARK    5  A    between atoms: C_5  and  O_6
REMARK    6  A    between atoms: C_5  and  C_7
REMARK                            x       y       z     vdW  Elec       q    Type
REMARK                         _______ _______ _______ _____ _____    ______ ____
ROOT
ATOM      1  C   UNL     1       4.065   5.225  17.914  0.00  0.00    +0.000 A 
ATOM      2  C   UNL     1       3.683   6.538  17.577  0.00  0.00    +0.000 A 
ATOM      3  C   UNL     1       2.818   7.288  18.362  0.00  0.00    +0.000 A 
ATOM      4  C   UNL     1       2.496   8.599  17.967  0.00  0.00    +0.000 A 
ATOM      5  C   UNL     1       1.639   9.390  18.726  0.00  0.00    +0.000 A 
ATOM      6  C   UNL     1       1.092   8.873  19.889  0.00  0.00    +0.000 A 
ATOM      7  C   UNL     1       1.412   7.574  20.290  0.00  0.00    +0.000 A 
ATOM      8  C   UNL     1       2.282   6.736  19.544  0.00  0.00    +0.000 A 
ATOM      9  C   UNL     1       2.636   5.386  19.908  0.00  0.00    +0.000 A 
ATOM     10  C   UNL     1       2.168   4.775  21.098  0.00  0.00    +0.000 A 
ATOM     11  C   UNL     1       2.476   3.459  21.444  0.00  0.00    +0.000 A 
ATOM     12  C   UNL     1       3.267   2.705  20.603  0.00  0.00    +0.000 A 
ATOM     13  C   UNL     1       3.778   3.277  19.436  0.00  0.00    +0.000 A 
ATOM     14  C   UNL     1       3.504   4.622  19.070  0.00  0.00    +0.000 A 
ENDROOT
BRANCH   1  15
ATOM     15  C   UNL     1       5.094   4.536  17.025  0.00  0.00    +0.000 C 
BRANCH  15  16
ATOM     16  O   UNL     1       4.726   3.153  16.880  0.00  0.00    +0.000 OA
ATOM     17  H   UNL     1       4.556   2.817  17.777  0.00  0.00    +0.000 HD
ENDBRANCH  15  16
BRANCH  15  18
ATOM     18  C   UNL     1       6.546   4.658  17.575  0.00  0.00    +0.000 C 
BRANCH  18  20
ATOM     19  C   UNL     1       7.697   5.694  19.467  0.00  0.00    +0.000 C 
ATOM     20  N   UNL     1       6.811   5.919  18.320  0.00  0.00    +0.000 NA
ATOM     21  C   UNL     1       7.422   6.912  17.427  0.00  0.00    +0.000 C 
ENDBRANCH  18  20
ENDBRANCH  15  18
ENDBRANCH   1  15
TORSDOF 4
ENDMDL
MODEL 9
REMARK VINA RESULT:      -6.7      2.140      4.458
REMARK  Name = 
REMARK  6 active torsions:
REMARK  status: ('A' for Active; 'I' for Inactive)
REMARK    1  A    between atoms: C_1  and  N_2
REMARK    2  A    between atoms: N_2  and  C_3
REMARK    3  A    between atoms: N_2  and  C_4
REMARK    4  A    between atoms: C_4  and  C_5
REMARK    5  A    between atoms: C_5  and  O_6
REMARK    6  A    between atoms: C_5  and  C_7
REMARK                            x       y       z     vdW  Elec       q    Type
REMARK                         _______ _______ _______ _____ _____    ______ ____
ROOT
ATOM      1  C   UNL     1       4.538   4.584  16.863  0.00  0.00    +0.000 A 
ATOM      2  C   UNL     1       4.368   5.980  16.803  0.00  0.00    +0.000 A 
ATOM      3  C   UNL     1       3.496   6.662  17.642  0.00  0.00    +0.000 A 
ATOM      4  C   UNL     1       3.392   8.060  17.534  0.00  0.00    +0.000 A 
ATOM      5  C   UNL     1       2.538   8.785  18.357  0.00  0.00    +0.000 A 
ATOM      6  C   UNL     1       1.773   8.115  19.298  0.00  0.00    +0.000 A 
ATOM      7  C   UNL     1       1.875   6.727  19.415  0.00  0.00    +0.000 A 
ATOM      8  C   UNL     1       2.736   5.951  18.594  0.00  0.00    +0.000 A 
ATOM      9  C   UNL     1       2.870   4.518  18.667  0.00  0.00    +0.000 A 
ATOM     10  C   UNL     1       2.169   3.738  19.621  0.00  0.00    +0.000 A 
ATOM     11  C   UNL     1       2.265   2.348  19.680  0.00  0.00    +0.000 A 
ATOM     12  C   UNL     1       3.072   1.686  18.778  0.00  0.00    +0.000 A 
ATOM     13  C   UNL     1       3.807   2.415  17.843  0.00  0.00    +0.000 A 
ATOM     14  C   UNL     1       3.751   3.834  17.775  0.00  0.00    +0.000 A 
ENDROOT
BRANCH   1  15
ATOM     15  C   UNL     1       5.593   3.959  15.956  0.00  0.00    +0.000 C 
BRANCH  15  16
ATOM     16  O   UNL     1       6.861   3.988  16.635  0.00  0.00    +0.000 OA
ATOM     17  H   UNL     1       7.402   4.656  16.181  0.00  0.00    +0.000 HD
ENDBRANCH  15  16
BRANCH  15  18
ATOM     18  C   UNL     1       5.699   4.670  14.575  0.00  0.00    +0.000 C 
BRANCH  18  20
ATOM     19  C   UNL     1       5.886   3.363  12.516  0.00  0.00    +0.000 C 
ATOM     20  N   UNL     1       6.620   4.001  13.615  0.00  0.00    +0.000 NA
ATOM     21  C   UNL     1       7.565   4.978  13.059  0.00  0.00    +0.000 C 
ENDBRANCH  18  20
ENDBRANCH  15  18
ENDBRANCH   1  15
TORSDOF 4
ENDMDL
