MODEL 1
REMARK VINA RESULT:      -9.6      0.000      0.000
REMARK  Name = 
REMARK  6 active torsions:
REMARK  status: ('A' for Active; 'I' for Inactive)
REMARK    1  A    between atoms: C_1  and  N_2
REMARK    2  A    between atoms: C_6  and  C_7
REMARK    3  A    between atoms: N_15  and  C_16
REMARK    4  A    between atoms: C_19  and  O_20
REMARK    5  A    between atoms: O_20  and  C_21
REMARK    6  A    between atoms: C_21  and  C_22
REMARK                            x       y       z     vdW  Elec       q    Type
REMARK                         _______ _______ _______ _____ _____    ______ ____
ROOT
ATOM      1  C   UNL     1       4.459   3.885  17.093  0.00  0.00    +0.000 A 
ATOM      2  C   UNL     1       3.971   2.584  17.184  0.00  0.00    +0.000 A 
ATOM      3  C   UNL     1       2.969   2.260  18.111  0.00  0.00    +0.000 A 
ATOM      4  C   UNL     1       2.427   3.209  18.970  0.00  0.00    +0.000 A 
ATOM      5  N   UNL     1       1.459   2.836  19.813  0.00  0.00    +0.000 NA
ATOM      6  C   UNL     1       0.932   3.797  20.580  0.00  0.00    +0.000 A 
ATOM      7  N   UNL     1       1.265   5.087  20.570  0.00  0.00    +0.000 NA
ATOM      8  C   UNL     1       2.257   5.445  19.737  0.00  0.00    +0.000 A 
ATOM      9  N   UNL     1       2.644   6.804  19.683  0.00  0.00    +0.000 N 
ATOM     10  C   UNL     1       2.906   4.520  18.899  0.00  0.00    +0.000 A 
ATOM     11  C   UNL     1       3.941   4.835  17.984  0.00  0.00    +0.000 A 
ATOM     12  H   UNL     1       3.631   6.922  19.867  0.00  0.00    +0.000 HD
ENDROOT
BRANCH   1  18
ATOM     13  C   UNL     1       7.506   4.565  17.610  0.00  0.00    +0.000 C 
ATOM     14  N   UNL     1       6.792   4.612  16.356  0.00  0.00    +0.000 N 
ATOM     15  C   UNL     1       7.394   4.868  15.154  0.00  0.00    +0.000 A 
ATOM     16  N   UNL     1       6.563   4.715  14.152  0.00  0.00    +0.000 NA
ATOM     17  C   UNL     1       5.380   4.349  14.731  0.00  0.00    +0.000 A 
ATOM     18  C   UNL     1       5.468   4.296  16.115  0.00  0.00    +0.000 A 
ENDBRANCH   1  18
BRANCH   9  19
ATOM     19  C   UNL     1       1.862   7.950  19.910  0.00  0.00    +0.000 A 
ATOM     20  C   UNL     1       1.641   8.835  18.849  0.00  0.00    +0.000 A 
ATOM     21  C   UNL     1       0.755   9.902  18.982  0.00  0.00    +0.000 A 
ATOM     22  C   UNL     1       0.028  10.069  20.161  0.00  0.00    +0.000 A 
ATOM     23  C   UNL     1       0.316   9.261  21.257  0.00  0.00    +0.000 A 
ATOM     24  C   UNL     1       1.240   8.211  21.133  0.00  0.00    +0.000 A 
BRANCH  22  25
ATOM     25  O   UNL     1      -0.985  10.977  20.315  0.00  0.00    +0.000 OA
BRANCH  25  26
ATOM     26  C   UNL     1      -1.084  11.921  19.235  0.00  0.00    +0.000 C 
BRANCH  26  27
ATOM     27  C   UNL     1      -2.342  11.681  18.440  0.00  0.00    +0.000 A 
ATOM     28  C   UNL     1      -3.594  11.988  18.984  0.00  0.00    +0.000 A 
ATOM     29  C   UNL     1      -4.759  11.757  18.244  0.00  0.00    +0.000 A 
ATOM     30  C   UNL     1      -4.672  11.224  16.960  0.00  0.00    +0.000 A 
ATOM     31  C   UNL     1      -3.425  10.932  16.397  0.00  0.00    +0.000 A 
ATOM     32  C   UNL     1      -2.266  11.158  17.140  0.00  0.00    +0.000 A 
ENDBRANCH  26  27
ENDBRANCH  25  26
ENDBRANCH  22  25
ENDBRANCH   9  19
TORSDOF 5
ENDMDL
MODEL 2
REMARK VINA RESULT:      -9.2      1.728      2.380
REMARK  Name = 
REMARK  6 active torsions:
REMARK  status: ('A' for Active; 'I' for Inactive)
REMARK    1  A    between atoms: C_1  and  N_2
REMARK    2  A    between atoms: C_6  and  C_7
REMARK    3  A    between atoms: N_15  and  C_16
REMARK    4  A    between atoms: C_19  and  O_20
REMARK    5  A    between atoms: O_20  and  C_21
REMARK    6  A    between atoms: C_21  and  C_22
REMARK                            x       y       z     vdW  Elec       q    Type
REMARK                         _______ _______ _______ _____ _____    ______ ____
ROOT
ATOM      1  C   UNL     1       4.491   3.878  17.135  0.00  0.00    +0.000 A 
ATOM      2  C   UNL     1       4.023   2.572  17.256  0.00  0.00    +0.000 A 
ATOM      3  C   UNL     1       3.033   2.254  18.197  0.00  0.00    +0.000 A 
ATOM      4  C   UNL     1       2.485   3.212  19.042  0.00  0.00    +0.000 A 
ATOM      5  N   UNL     1       1.530   2.842  19.902  0.00  0.00    +0.000 NA
ATOM      6  C   UNL     1       0.995   3.811  20.654  0.00  0.00    +0.000 A 
ATOM      7  N   UNL     1       1.310   5.105  20.616  0.00  0.00    +0.000 NA
ATOM      8  C   UNL     1       2.291   5.461  19.767  0.00  0.00    +0.000 A 
ATOM      9  N   UNL     1       2.657   6.823  19.682  0.00  0.00    +0.000 N 
ATOM     10  C   UNL     1       2.946   4.527  18.941  0.00  0.00    +0.000 A 
ATOM     11  C   UNL     1       3.968   4.839  18.011  0.00  0.00    +0.000 A 
ATOM     12  H   UNL     1       3.644   6.958  19.855  0.00  0.00    +0.000 HD
ENDROOT
BRANCH   1  18
ATOM     13  C   UNL     1       7.542   4.573  17.606  0.00  0.00    +0.000 C 
ATOM     14  N   UNL     1       6.812   4.606  16.361  0.00  0.00    +0.000 N 
ATOM     15  C   UNL     1       7.398   4.854  15.149  0.00  0.00    +0.000 A 
ATOM     16  N   UNL     1       6.555   4.688  14.159  0.00  0.00    +0.000 NA
ATOM     17  C   UNL     1       5.380   4.323  14.757  0.00  0.00    +0.000 A 
ATOM     18  C   UNL     1       5.486   4.283  16.140  0.00  0.00    +0.000 A 
ENDBRANCH   1  18
BRANCH   9  19
ATOM     19  C   UNL     1       1.862   7.962  19.894  0.00  0.00    +0.000 A 
ATOM     20  C   UNL     1       1.598   8.808  18.811  0.00  0.00    +0.000 A 
ATOM     21  C   UNL     1       0.697   9.864  18.933  0.00  0.00    +0.000 A 
ATOM     22  C   UNL     1      -0.003  10.057  20.125  0.00  0.00    +0.000 A 
ATOM     23  C   UNL     1       0.329   9.290  21.239  0.00  0.00    +0.000 A 
ATOM     24  C   UNL     1       1.268   8.252  21.123  0.00  0.00    +0.000 A 
BRANCH  22  25
ATOM     25  O   UNL     1      -1.027  10.952  20.277  0.00  0.00    +0.000 OA
BRANCH  25  26
ATOM     26  C   UNL     1      -0.841  11.861  21.376  0.00  0.00    +0.000 C 
BRANCH  26  27
ATOM     27  C   UNL     1      -2.170  12.249  21.969  0.00  0.00    +0.000 A 
ATOM     28  C   UNL     1      -3.171  12.807  21.166  0.00  0.00    +0.000 A 
ATOM     29  C   UNL     1      -4.401  13.172  21.724  0.00  0.00    +0.000 A 
ATOM     30  C   UNL     1      -4.632  12.974  23.084  0.00  0.00    +0.000 A 
ATOM     31  C   UNL     1      -3.648  12.398  23.894  0.00  0.00    +0.000 A 
ATOM     32  C   UNL     1      -2.421  12.041  23.335  0.00  0.00    +0.000 A 
ENDBRANCH  26  27
ENDBRANCH  25  26
ENDBRANCH  22  25
ENDBRANCH   9  19
TORSDOF 5
ENDMDL
MODEL 3
REMARK VINA RESULT:      -9.1      0.612      1.459
REMARK  Name = 
REMARK  6 active torsions:
REMARK  status: ('A' for Active; 'I' for Inactive)
REMARK    1  A    between atoms: C_1  and  N_2
REMARK    2  A    between atoms: C_6  and  C_7
REMARK    3  A    between atoms: N_15  and  C_16
REMARK    4  A    between atoms: C_19  and  O_20
REMARK    5  A    between atoms: O_20  and  C_21
REMARK    6  A    between atoms: C_21  and  C_22
REMARK                            x       y       z     vdW  Elec       q    Type
REMARK                         _______ _______ _______ _____ _____    ______ ____
ROOT
ATOM      1  C   UNL     1       4.522   3.855  17.124  0.00  0.00    +0.000 A 
ATOM      2  C   UNL     1       4.071   2.544  17.251  0.00  0.00    +0.000 A 
ATOM      3  C   UNL     1       3.083   2.218  18.192  0.00  0.00    +0.000 A 
ATOM      4  C   UNL     1       2.521   3.173  19.031  0.00  0.00    +0.000 A 
ATOM      5  N   UNL     1       1.569   2.795  19.890  0.00  0.00    +0.000 NA
ATOM      6  C   UNL     1       1.020   3.761  20.636  0.00  0.00    +0.000 A 
ATOM      7  N   UNL     1       1.318   5.059  20.591  0.00  0.00    +0.000 NA
ATOM      8  C   UNL     1       2.295   5.423  19.742  0.00  0.00    +0.000 A 
ATOM      9  N   UNL     1       2.644   6.789  19.651  0.00  0.00    +0.000 N 
ATOM     10  C   UNL     1       2.964   4.494  18.924  0.00  0.00    +0.000 A 
ATOM     11  C   UNL     1       3.985   4.814  17.994  0.00  0.00    +0.000 A 
ATOM     12  H   UNL     1       3.629   6.938  19.825  0.00  0.00    +0.000 HD
ENDROOT
BRANCH   1  18
ATOM     13  C   UNL     1       7.559   4.608  17.600  0.00  0.00    +0.000 C 
ATOM     14  N   UNL     1       6.833   4.616  16.352  0.00  0.00    +0.000 N 
ATOM     15  C   UNL     1       7.419   4.862  15.140  0.00  0.00    +0.000 A 
ATOM     16  N   UNL     1       6.583   4.672  14.148  0.00  0.00    +0.000 NA
ATOM     17  C   UNL     1       5.413   4.292  14.745  0.00  0.00    +0.000 A 
ATOM     18  C   UNL     1       5.514   4.268  16.129  0.00  0.00    +0.000 A 
ENDBRANCH   1  18
BRANCH   9  19
ATOM     19  C   UNL     1       1.834   7.920  19.855  0.00  0.00    +0.000 A 
ATOM     20  C   UNL     1       1.308   8.149  21.130  0.00  0.00    +0.000 A 
ATOM     21  C   UNL     1       0.626   9.329  21.420  0.00  0.00    +0.000 A 
ATOM     22  C   UNL     1       0.509  10.328  20.454  0.00  0.00    +0.000 A 
ATOM     23  C   UNL     1       0.933  10.069  19.153  0.00  0.00    +0.000 A 
ATOM     24  C   UNL     1       1.584   8.861  18.855  0.00  0.00    +0.000 A 
BRANCH  22  25
ATOM     25  O   UNL     1       0.012  11.580  20.701  0.00  0.00    +0.000 OA
BRANCH  25  26
ATOM     26  C   UNL     1      -0.401  12.282  19.516  0.00  0.00    +0.000 C 
BRANCH  26  27
ATOM     27  C   UNL     1      -1.896  12.200  19.350  0.00  0.00    +0.000 A 
ATOM     28  C   UNL     1      -2.453  11.566  18.234  0.00  0.00    +0.000 A 
ATOM     29  C   UNL     1      -3.843  11.499  18.081  0.00  0.00    +0.000 A 
ATOM     30  C   UNL     1      -4.675  12.063  19.047  0.00  0.00    +0.000 A 
ATOM     31  C   UNL     1      -4.131  12.682  20.177  0.00  0.00    +0.000 A 
ATOM     32  C   UNL     1      -2.745  12.751  20.322  0.00  0.00    +0.000 A 
ENDBRANCH  26  27
ENDBRANCH  25  26
ENDBRANCH  22  25
ENDBRANCH   9  19
TORSDOF 5
ENDMDL
MODEL 4
REMARK VINA RESULT:      -9.1      1.686      2.305
REMARK  Name = 
REMARK  6 active torsions:
REMARK  status: ('A' for Active; 'I' for Inactive)
REMARK    1  A    between atoms: C_1  and  N_2
REMARK    2  A    between atoms: C_6  and  C_7
REMARK    3  A    between atoms: N_15  and  C_16
REMARK    4  A    between atoms: C_19  and  O_20
REMARK    5  A    between atoms: O_20  and  C_21
REMARK    6  A    between atoms: C_21  and  C_22
REMARK                            x       y       z     vdW  Elec       q    Type
REMARK                         _______ _______ _______ _____ _____    ______ ____
ROOT
ATOM      1  C   UNL     1       4.515   4.010  17.125  0.00  0.00    +0.000 A 
ATOM      2  C   UNL     1       4.048   2.699  17.170  0.00  0.00    +0.000 A 
ATOM      3  C   UNL     1       3.037   2.333  18.072  0.00  0.00    +0.000 A 
ATOM      4  C   UNL     1       2.467   3.247  18.950  0.00  0.00    +0.000 A 
ATOM      5  N   UNL     1       1.494   2.833  19.768  0.00  0.00    +0.000 NA
ATOM      6  C   UNL     1       0.939   3.763  20.555  0.00  0.00    +0.000 A 
ATOM      7  N   UNL     1       1.251   5.058  20.587  0.00  0.00    +0.000 NA
ATOM      8  C   UNL     1       2.250   5.457  19.780  0.00  0.00    +0.000 A 
ATOM      9  N   UNL     1       2.615   6.822  19.772  0.00  0.00    +0.000 N 
ATOM     10  C   UNL     1       2.926   4.567  18.925  0.00  0.00    +0.000 A 
ATOM     11  C   UNL     1       3.969   4.925  18.035  0.00  0.00    +0.000 A 
ATOM     12  H   UNL     1       3.597   6.950  19.973  0.00  0.00    +0.000 HD
ENDROOT
BRANCH   1  18
ATOM     13  C   UNL     1       7.573   4.604  17.683  0.00  0.00    +0.000 C 
ATOM     14  N   UNL     1       6.860   4.743  16.435  0.00  0.00    +0.000 N 
ATOM     15  C   UNL     1       7.468   5.066  15.251  0.00  0.00    +0.000 A 
ATOM     16  N   UNL     1       6.635   4.991  14.242  0.00  0.00    +0.000 NA
ATOM     17  C   UNL     1       5.445   4.608  14.797  0.00  0.00    +0.000 A 
ATOM     18  C   UNL     1       5.532   4.466  16.175  0.00  0.00    +0.000 A 
ENDBRANCH   1  18
BRANCH   9  19
ATOM     19  C   UNL     1       1.812   7.948  20.021  0.00  0.00    +0.000 A 
ATOM     20  C   UNL     1       1.373   8.186  21.328  0.00  0.00    +0.000 A 
ATOM     21  C   UNL     1       0.703   9.363  21.653  0.00  0.00    +0.000 A 
ATOM     22  C   UNL     1       0.513  10.354  20.689  0.00  0.00    +0.000 A 
ATOM     23  C   UNL     1       0.850  10.086  19.365  0.00  0.00    +0.000 A 
ATOM     24  C   UNL     1       1.488   8.880  19.032  0.00  0.00    +0.000 A 
BRANCH  22  25
ATOM     25  O   UNL     1       0.026  11.604  20.959  0.00  0.00    +0.000 OA
BRANCH  25  26
ATOM     26  C   UNL     1      -0.550  11.728  22.270  0.00  0.00    +0.000 C 
BRANCH  26  27
ATOM     27  C   UNL     1      -1.984  12.184  22.175  0.00  0.00    +0.000 A 
ATOM     28  C   UNL     1      -2.788  12.243  23.319  0.00  0.00    +0.000 A 
ATOM     29  C   UNL     1      -4.120  12.659  23.222  0.00  0.00    +0.000 A 
ATOM     30  C   UNL     1      -4.647  13.022  21.984  0.00  0.00    +0.000 A 
ATOM     31  C   UNL     1      -3.848  12.987  20.837  0.00  0.00    +0.000 A 
ATOM     32  C   UNL     1      -2.522  12.566  20.936  0.00  0.00    +0.000 A 
ENDBRANCH  26  27
ENDBRANCH  25  26
ENDBRANCH  22  25
ENDBRANCH   9  19
TORSDOF 5
ENDMDL
MODEL 5
REMARK VINA RESULT:      -9.0      0.511      1.372
REMARK  Name = 
REMARK  6 active torsions:
REMARK  status: ('A' for Active; 'I' for Inactive)
REMARK    1  A    between atoms: C_1  and  N_2
REMARK    2  A    between atoms: C_6  and  C_7
REMARK    3  A    between atoms: N_15  and  C_16
REMARK    4  A    between atoms: C_19  and  O_20
REMARK    5  A    between atoms: O_20  and  C_21
REMARK    6  A    between atoms: C_21  and  C_22
REMARK                            x       y       z     vdW  Elec       q    Type
REMARK                         _______ _______ _______ _____ _____    ______ ____
ROOT
ATOM      1  C   UNL     1       4.718   4.081  17.231  0.00  0.00    +0.000 A 
ATOM      2  C   UNL     1       4.254   2.768  17.210  0.00  0.00    +0.000 A 
ATOM      3  C   UNL     1       3.188   2.375  18.033  0.00  0.00    +0.000 A 
ATOM      4  C   UNL     1       2.558   3.263  18.897  0.00  0.00    +0.000 A 
ATOM      5  N   UNL     1       1.535   2.826  19.637  0.00  0.00    +0.000 NA
ATOM      6  C   UNL     1       0.927   3.732  20.411  0.00  0.00    +0.000 A 
ATOM      7  N   UNL     1       1.230   5.027  20.500  0.00  0.00    +0.000 NA
ATOM      8  C   UNL     1       2.279   5.450  19.770  0.00  0.00    +0.000 A 
ATOM      9  N   UNL     1       2.637   6.815  19.823  0.00  0.00    +0.000 N 
ATOM     10  C   UNL     1       3.013   4.585  18.938  0.00  0.00    +0.000 A 
ATOM     11  C   UNL     1       4.110   4.970  18.128  0.00  0.00    +0.000 A 
ATOM     12  H   UNL     1       3.604   6.940  20.092  0.00  0.00    +0.000 HD
ENDROOT
BRANCH   1  18
ATOM     13  C   UNL     1       4.952   3.804  14.088  0.00  0.00    +0.000 C 
ATOM     14  N   UNL     1       5.895   4.418  14.992  0.00  0.00    +0.000 N 
ATOM     15  C   UNL     1       7.016   5.084  14.575  0.00  0.00    +0.000 A 
ATOM     16  N   UNL     1       7.631   5.672  15.572  0.00  0.00    +0.000 NA
ATOM     17  C   UNL     1       6.879   5.371  16.674  0.00  0.00    +0.000 A 
ATOM     18  C   UNL     1       5.793   4.565  16.362  0.00  0.00    +0.000 A 
ENDBRANCH   1  18
BRANCH   9  19
ATOM     19  C   UNL     1       1.815   7.933  20.049  0.00  0.00    +0.000 A 
ATOM     20  C   UNL     1       1.621   8.847  19.008  0.00  0.00    +0.000 A 
ATOM     21  C   UNL     1       0.701   9.886  19.132  0.00  0.00    +0.000 A 
ATOM     22  C   UNL     1      -0.086   9.994  20.279  0.00  0.00    +0.000 A 
ATOM     23  C   UNL     1       0.171   9.157  21.361  0.00  0.00    +0.000 A 
ATOM     24  C   UNL     1       1.129   8.136  21.248  0.00  0.00    +0.000 A 
BRANCH  22  25
ATOM     25  O   UNL     1      -1.129  10.870  20.413  0.00  0.00    +0.000 OA
BRANCH  25  26
ATOM     26  C   UNL     1      -1.177  11.873  19.384  0.00  0.00    +0.000 C 
BRANCH  26  27
ATOM     27  C   UNL     1      -2.381  11.665  18.502  0.00  0.00    +0.000 A 
ATOM     28  C   UNL     1      -2.233  11.158  17.206  0.00  0.00    +0.000 A 
ATOM     29  C   UNL     1      -3.354  10.974  16.389  0.00  0.00    +0.000 A 
ATOM     30  C   UNL     1      -4.623  11.291  16.869  0.00  0.00    +0.000 A 
ATOM     31  C   UNL     1      -4.787  11.779  18.170  0.00  0.00    +0.000 A 
ATOM     32  C   UNL     1      -3.666  11.967  18.979  0.00  0.00    +0.000 A 
ENDBRANCH  26  27
ENDBRANCH  25  26
ENDBRANCH  22  25
ENDBRANCH   9  19
TORSDOF 5
ENDMDL
MODEL 6
REMARK VINA RESULT:      -8.9      2.233      2.975
REMARK  Name = 
REMARK  6 active torsions:
REMARK  status: ('A' for Active; 'I' for Inactive)
REMARK    1  A    between atoms: C_1  and  N_2
REMARK    2  A    between atoms: C_6  and  C_7
REMARK    3  A    between atoms: N_15  and  C_16
REMARK    4  A    between atoms: C_19  and  O_20
REMARK    5  A    between atoms: O_20  and  C_21
REMARK    6  A    between atoms: C_21  and  C_22
REMARK                            x       y       z     vdW  Elec       q    Type
REMARK                         _______ _______ _______ _____ _____    ______ ____
ROOT
ATOM      1  C   UNL     1       4.446   4.052  17.032  0.00  0.00    +0.000 A 
ATOM      2  C   UNL     1       3.922   2.763  16.991  0.00  0.00    +0.000 A 
ATOM      3  C   UNL     1       2.907   2.377  17.880  0.00  0.00    +0.000 A 
ATOM      4  C   UNL     1       2.389   3.249  18.829  0.00  0.00    +0.000 A 
ATOM      5  N   UNL     1       1.408   2.821  19.631  0.00  0.00    +0.000 NA
ATOM      6  C   UNL     1       0.905   3.715  20.490  0.00  0.00    +0.000 A 
ATOM      7  N   UNL     1       1.274   4.990  20.610  0.00  0.00    +0.000 NA
ATOM      8  C   UNL     1       2.280   5.402  19.817  0.00  0.00    +0.000 A 
ATOM      9  N   UNL     1       2.705   6.747  19.900  0.00  0.00    +0.000 N 
ATOM     10  C   UNL     1       2.906   4.547  18.891  0.00  0.00    +0.000 A 
ATOM     11  C   UNL     1       3.953   4.923  18.013  0.00  0.00    +0.000 A 
ATOM     12  H   UNL     1       3.694   6.818  20.096  0.00  0.00    +0.000 HD
ENDROOT
BRANCH   1  18
ATOM     13  C   UNL     1       7.494   4.653  17.634  0.00  0.00    +0.000 C 
ATOM     14  N   UNL     1       6.795   4.810  16.381  0.00  0.00    +0.000 N 
ATOM     15  C   UNL     1       7.413   5.157  15.210  0.00  0.00    +0.000 A 
ATOM     16  N   UNL     1       6.592   5.096  14.190  0.00  0.00    +0.000 NA
ATOM     17  C   UNL     1       5.398   4.696  14.725  0.00  0.00    +0.000 A 
ATOM     18  C   UNL     1       5.471   4.530  16.101  0.00  0.00    +0.000 A 
ENDBRANCH   1  18
BRANCH   9  19
ATOM     19  C   UNL     1       1.956   7.887  20.241  0.00  0.00    +0.000 A 
ATOM     20  C   UNL     1       1.452   8.692  19.214  0.00  0.00    +0.000 A 
ATOM     21  C   UNL     1       0.582   9.744  19.492  0.00  0.00    +0.000 A 
ATOM     22  C   UNL     1       0.151   9.972  20.800  0.00  0.00    +0.000 A 
ATOM     23  C   UNL     1       0.725   9.247  21.840  0.00  0.00    +0.000 A 
ATOM     24  C   UNL     1       1.634   8.214  21.559  0.00  0.00    +0.000 A 
BRANCH  22  25
ATOM     25  O   UNL     1      -0.831  10.864  21.139  0.00  0.00    +0.000 OA
BRANCH  25  26
ATOM     26  C   UNL     1      -1.152  10.863  22.541  0.00  0.00    +0.000 C 
BRANCH  26  27
ATOM     27  C   UNL     1      -1.657  12.217  22.966  0.00  0.00    +0.000 A 
ATOM     28  C   UNL     1      -0.865  13.358  22.789  0.00  0.00    +0.000 A 
ATOM     29  C   UNL     1      -1.336  14.612  23.193  0.00  0.00    +0.000 A 
ATOM     30  C   UNL     1      -2.600  14.727  23.768  0.00  0.00    +0.000 A 
ATOM     31  C   UNL     1      -3.409  13.598  23.932  0.00  0.00    +0.000 A 
ATOM     32  C   UNL     1      -2.934  12.348  23.533  0.00  0.00    +0.000 A 
ENDBRANCH  26  27
ENDBRANCH  25  26
ENDBRANCH  22  25
ENDBRANCH   9  19
TORSDOF 5
ENDMDL
MODEL 7
REMARK VINA RESULT:      -8.9      1.929      2.578
REMARK  Name = 
REMARK  6 active torsions:
REMARK  status: ('A' for Active; 'I' for Inactive)
REMARK    1  A    between atoms: C_1  and  N_2
REMARK    2  A    between atoms: C_6  and  C_7
REMARK    3  A    between atoms: N_15  and  C_16
REMARK    4  A    between atoms: C_19  and  O_20
REMARK    5  A    between atoms: O_20  and  C_21
REMARK    6  A    between atoms: C_21  and  C_22
REMARK                            x       y       z     vdW  Elec       q    Type
REMARK                         _______ _______ _______ _____ _____    ______ ____
ROOT
ATOM      1  C   UNL     1       4.481   3.902  17.153  0.00  0.00    +0.000 A 
ATOM      2  C   UNL     1       4.011   2.596  17.250  0.00  0.00    +0.000 A 
ATOM      3  C   UNL     1       3.024   2.262  18.190  0.00  0.00    +0.000 A 
ATOM      4  C   UNL     1       2.482   3.204  19.056  0.00  0.00    +0.000 A 
ATOM      5  N   UNL     1       1.529   2.820  19.912  0.00  0.00    +0.000 NA
ATOM      6  C   UNL     1       1.001   3.776  20.685  0.00  0.00    +0.000 A 
ATOM      7  N   UNL     1       1.318   5.070  20.670  0.00  0.00    +0.000 NA
ATOM      8  C   UNL     1       2.296   5.439  19.824  0.00  0.00    +0.000 A 
ATOM      9  N   UNL     1       2.665   6.802  19.764  0.00  0.00    +0.000 N 
ATOM     10  C   UNL     1       2.945   4.521  18.978  0.00  0.00    +0.000 A 
ATOM     11  C   UNL     1       3.964   4.848  18.049  0.00  0.00    +0.000 A 
ATOM     12  H   UNL     1       3.653   6.931  19.935  0.00  0.00    +0.000 HD
ENDROOT
BRANCH   1  18
ATOM     13  C   UNL     1       7.549   4.530  17.614  0.00  0.00    +0.000 C 
ATOM     14  N   UNL     1       6.806   4.617  16.379  0.00  0.00    +0.000 N 
ATOM     15  C   UNL     1       7.384   4.896  15.170  0.00  0.00    +0.000 A 
ATOM     16  N   UNL     1       6.528   4.779  14.184  0.00  0.00    +0.000 NA
ATOM     17  C   UNL     1       5.354   4.413  14.782  0.00  0.00    +0.000 A 
ATOM     18  C   UNL     1       5.473   4.325  16.162  0.00  0.00    +0.000 A 
ENDBRANCH   1  18
BRANCH   9  19
ATOM     19  C   UNL     1       1.874   7.939  20.001  0.00  0.00    +0.000 A 
ATOM     20  C   UNL     1       1.537   8.761  18.920  0.00  0.00    +0.000 A 
ATOM     21  C   UNL     1       0.634   9.811  19.075  0.00  0.00    +0.000 A 
ATOM     22  C   UNL     1       0.006  10.022  20.303  0.00  0.00    +0.000 A 
ATOM     23  C   UNL     1       0.411   9.281  21.409  0.00  0.00    +0.000 A 
ATOM     24  C   UNL     1       1.352   8.249  21.258  0.00  0.00    +0.000 A 
BRANCH  22  25
ATOM     25  O   UNL     1      -1.015  10.912  20.499  0.00  0.00    +0.000 OA
BRANCH  25  26
ATOM     26  C   UNL     1      -0.664  12.015  21.352  0.00  0.00    +0.000 C 
BRANCH  26  27
ATOM     27  C   UNL     1       0.030  13.093  20.561  0.00  0.00    +0.000 A 
ATOM     28  C   UNL     1       1.365  13.420  20.825  0.00  0.00    +0.000 A 
ATOM     29  C   UNL     1       2.002  14.427  20.091  0.00  0.00    +0.000 A 
ATOM     30  C   UNL     1       1.307  15.103  19.091  0.00  0.00    +0.000 A 
ATOM     31  C   UNL     1      -0.021  14.772  18.804  0.00  0.00    +0.000 A 
ATOM     32  C   UNL     1      -0.655  13.772  19.541  0.00  0.00    +0.000 A 
ENDBRANCH  26  27
ENDBRANCH  25  26
ENDBRANCH  22  25
ENDBRANCH   9  19
TORSDOF 5
ENDMDL
MODEL 8
REMARK VINA RESULT:      -8.9      2.156      2.916
REMARK  Name = 
REMARK  6 active torsions:
REMARK  status: ('A' for Active; 'I' for Inactive)
REMARK    1  A    between atoms: C_1  and  N_2
REMARK    2  A    between atoms: C_6  and  C_7
REMARK    3  A    between atoms: N_15  and  C_16
REMARK    4  A    between atoms: C_19  and  O_20
REMARK    5  A    between atoms: O_20  and  C_21
REMARK    6  A    between atoms: C_21  and  C_22
REMARK                            x       y       z     vdW  Elec       q    Type
REMARK                         _______ _______ _______ _____ _____    ______ ____
ROOT
ATOM      1  C   UNL     1       4.441   3.846  17.109  0.00  0.00    +0.000 A 
ATOM      2  C   UNL     1       3.928   2.552  17.154  0.00  0.00    +0.000 A 
ATOM      3  C   UNL     1       2.924   2.215  18.074  0.00  0.00    +0.000 A 
ATOM      4  C   UNL     1       2.403   3.142  18.969  0.00  0.00    +0.000 A 
ATOM      5  N   UNL     1       1.432   2.757  19.803  0.00  0.00    +0.000 NA
ATOM      6  C   UNL     1       0.927   3.700  20.607  0.00  0.00    +0.000 A 
ATOM      7  N   UNL     1       1.284   4.983  20.642  0.00  0.00    +0.000 NA
ATOM      8  C   UNL     1       2.281   5.352  19.817  0.00  0.00    +0.000 A 
ATOM      9  N   UNL     1       2.693   6.704  19.810  0.00  0.00    +0.000 N 
ATOM     10  C   UNL     1       2.908   4.445  18.943  0.00  0.00    +0.000 A 
ATOM     11  C   UNL     1       3.945   4.773  18.035  0.00  0.00    +0.000 A 
ATOM     12  H   UNL     1       3.682   6.796  19.993  0.00  0.00    +0.000 HD
ENDROOT
BRANCH   1  18
ATOM     13  C   UNL     1       7.450   4.649  17.668  0.00  0.00    +0.000 C 
ATOM     14  N   UNL     1       6.760   4.643  16.400  0.00  0.00    +0.000 N 
ATOM     15  C   UNL     1       7.376   4.895  15.204  0.00  0.00    +0.000 A 
ATOM     16  N   UNL     1       6.572   4.689  14.190  0.00  0.00    +0.000 NA
ATOM     17  C   UNL     1       5.391   4.292  14.754  0.00  0.00    +0.000 A 
ATOM     18  C   UNL     1       5.454   4.273  16.141  0.00  0.00    +0.000 A 
ENDBRANCH   1  18
BRANCH   9  19
ATOM     19  C   UNL     1       1.935   7.856  20.082  0.00  0.00    +0.000 A 
ATOM     20  C   UNL     1       1.626   8.722  19.028  0.00  0.00    +0.000 A 
ATOM     21  C   UNL     1       0.755   9.794  19.216  0.00  0.00    +0.000 A 
ATOM     22  C   UNL     1       0.130   9.983  20.449  0.00  0.00    +0.000 A 
ATOM     23  C   UNL     1       0.509   9.194  21.531  0.00  0.00    +0.000 A 
ATOM     24  C   UNL     1       1.418   8.140  21.348  0.00  0.00    +0.000 A 
BRANCH  22  25
ATOM     25  O   UNL     1      -0.865  10.897  20.672  0.00  0.00    +0.000 OA
BRANCH  25  26
ATOM     26  C   UNL     1      -1.059  11.211  22.061  0.00  0.00    +0.000 C 
BRANCH  26  27
ATOM     27  C   UNL     1      -0.751  12.664  22.320  0.00  0.00    +0.000 A 
ATOM     28  C   UNL     1      -1.421  13.362  23.331  0.00  0.00    +0.000 A 
ATOM     29  C   UNL     1      -1.135  14.713  23.562  0.00  0.00    +0.000 A 
ATOM     30  C   UNL     1      -0.178  15.363  22.786  0.00  0.00    +0.000 A 
ATOM     31  C   UNL     1       0.514  14.670  21.786  0.00  0.00    +0.000 A 
ATOM     32  C   UNL     1       0.222  13.326  21.555  0.00  0.00    +0.000 A 
ENDBRANCH  26  27
ENDBRANCH  25  26
ENDBRANCH  22  25
ENDBRANCH   9  19
TORSDOF 5
ENDMDL
MODEL 9
REMARK VINA RESULT:      -8.8      2.064      2.674
REMARK  Name = 
REMARK  6 active torsions:
REMARK  status: ('A' for Active; 'I' for Inactive)
REMARK    1  A    between atoms: C_1  and  N_2
REMARK    2  A    between atoms: C_6  and  C_7
REMARK    3  A    between atoms: N_15  and  C_16
REMARK    4  A    between atoms: C_19  and  O_20
REMARK    5  A    between atoms: O_20  and  C_21
REMARK    6  A    between atoms: C_21  and  C_22
REMARK                            x       y       z     vdW  Elec       q    Type
REMARK                         _______ _______ _______ _____ _____    ______ ____
ROOT
ATOM      1  C   UNL     1       4.506   3.883  17.136  0.00  0.00    +0.000 A 
ATOM      2  C   UNL     1       4.068   2.578  17.345  0.00  0.00    +0.000 A 
ATOM      3  C   UNL     1       3.089   2.300  18.312  0.00  0.00    +0.000 A 
ATOM      4  C   UNL     1       2.524   3.299  19.095  0.00  0.00    +0.000 A 
ATOM      5  N   UNL     1       1.582   2.966  19.983  0.00  0.00    +0.000 NA
ATOM      6  C   UNL     1       1.029   3.970  20.673  0.00  0.00    +0.000 A 
ATOM      7  N   UNL     1       1.314   5.265  20.548  0.00  0.00    +0.000 NA
ATOM      8  C   UNL     1       2.282   5.586  19.671  0.00  0.00    +0.000 A 
ATOM      9  N   UNL     1       2.618   6.947  19.495  0.00  0.00    +0.000 N 
ATOM     10  C   UNL     1       2.954   4.615  18.905  0.00  0.00    +0.000 A 
ATOM     11  C   UNL     1       3.965   4.887  17.950  0.00  0.00    +0.000 A 
ATOM     12  H   UNL     1       3.602   7.116  19.652  0.00  0.00    +0.000 HD
ENDROOT
BRANCH   1  18
ATOM     13  C   UNL     1       7.563   4.595  17.533  0.00  0.00    +0.000 C 
ATOM     14  N   UNL     1       6.815   4.575  16.299  0.00  0.00    +0.000 N 
ATOM     15  C   UNL     1       7.384   4.769  15.069  0.00  0.00    +0.000 A 
ATOM     16  N   UNL     1       6.527   4.561  14.099  0.00  0.00    +0.000 NA
ATOM     17  C   UNL     1       5.361   4.223  14.728  0.00  0.00    +0.000 A 
ATOM     18  C   UNL     1       5.487   4.244  16.111  0.00  0.00    +0.000 A 
ENDBRANCH   1  18
BRANCH   9  19
ATOM     19  C   UNL     1       1.798   8.080  19.636  0.00  0.00    +0.000 A 
ATOM     20  C   UNL     1       1.306   8.401  20.906  0.00  0.00    +0.000 A 
ATOM     21  C   UNL     1       0.616   9.592  21.125  0.00  0.00    +0.000 A 
ATOM     22  C   UNL     1       0.458  10.513  20.089  0.00  0.00    +0.000 A 
ATOM     23  C   UNL     1       0.848  10.159  18.800  0.00  0.00    +0.000 A 
ATOM     24  C   UNL     1       1.507   8.940  18.575  0.00  0.00    +0.000 A 
BRANCH  22  25
ATOM     25  O   UNL     1      -0.049  11.774  20.255  0.00  0.00    +0.000 OA
BRANCH  25  26
ATOM     26  C   UNL     1       0.089  12.280  21.593  0.00  0.00    +0.000 C 
BRANCH  26  27
ATOM     27  C   UNL     1      -1.258  12.658  22.154  0.00  0.00    +0.000 A 
ATOM     28  C   UNL     1      -1.885  13.844  21.756  0.00  0.00    +0.000 A 
ATOM     29  C   UNL     1      -3.132  14.193  22.286  0.00  0.00    +0.000 A 
ATOM     30  C   UNL     1      -3.754  13.355  23.210  0.00  0.00    +0.000 A 
ATOM     31  C   UNL     1      -3.146  12.157  23.600  0.00  0.00    +0.000 A 
ATOM     32  C   UNL     1      -1.901  11.815  23.074  0.00  0.00    +0.000 A 
ENDBRANCH  26  27
ENDBRANCH  25  26
ENDBRANCH  22  25
ENDBRANCH   9  19
TORSDOF 5
ENDMDL
