MODEL 1
REMARK VINA RESULT:      -7.8      0.000      0.000
REMARK  Name = 
REMARK  7 active torsions:
REMARK  status: ('A' for Active; 'I' for Inactive)
REMARK    1  A    between atoms: C_1  and  O_2
REMARK    2  A    between atoms: O_2  and  C_3
REMARK    3  A    between atoms: C_8  and  C_9
REMARK    4  A    between atoms: N_11  and  C_12
REMARK    5  A    between atoms: C_12  and  C_13
REMARK    6  A    between atoms: C_13  and  C_14
REMARK    7  A    between atoms: C_14  and  C_15
REMARK                            x       y       z     vdW  Elec       q    Type
REMARK                         _______ _______ _______ _____ _____    ______ ____
ROOT
ATOM      1  C   UNL     1       5.278   5.008  18.142  0.00  0.00    +0.000 C 
ATOM      2  O   UNL     1       5.751   4.323  19.043  0.00  0.00    +0.000 OA
ATOM      3  N   UNL     1       4.172   5.807  18.331  0.00  0.00    +0.000 N 
ATOM      4  H   UNL     1       3.849   6.374  17.549  0.00  0.00    +0.000 HD
ENDROOT
BRANCH   1  10
ATOM      5  C   UNL     1       7.096   5.644  16.430  0.00  0.00    +0.000 A 
ATOM      6  N   UNL     1       7.629   5.625  15.179  0.00  0.00    +0.000 NA
ATOM      7  C   UNL     1       6.965   4.901  14.266  0.00  0.00    +0.000 A 
ATOM      8  C   UNL     1       5.812   4.184  14.521  0.00  0.00    +0.000 A 
ATOM      9  C   UNL     1       5.260   4.227  15.787  0.00  0.00    +0.000 A 
ATOM     10  C   UNL     1       5.907   4.986  16.784  0.00  0.00    +0.000 A 
ATOM     11  C   UNL     1       5.384   3.392  13.338  0.00  0.00    +0.000 C 
ATOM     12  C   UNL     1       6.264   3.960  12.214  0.00  0.00    +0.000 C 
ATOM     13  C   UNL     1       7.434   4.719  12.854  0.00  0.00    +0.000 C 
BRANCH   5  15
ATOM     14  C   UNL     1       7.528   7.736  17.402  0.00  0.00    +0.000 C 
ATOM     15  O   UNL     1       7.799   6.334  17.402  0.00  0.00    +0.000 OA
ENDBRANCH   5  15
ENDBRANCH   1  10
BRANCH   3  16
ATOM     16  C   UNL     1       3.511   5.941  19.610  0.00  0.00    +0.000 C 
BRANCH  16  17
ATOM     17  C   UNL     1       1.989   5.972  19.480  0.00  0.00    +0.000 C 
BRANCH  17  18
ATOM     18  C   UNL     1       1.352   4.625  19.820  0.00  0.00    +0.000 C 
BRANCH  18  19
ATOM     19  C   UNL     1       2.044   3.503  19.121  0.00  0.00    +0.000 A 
ATOM     20  N   UNL     1       1.935   3.241  17.835  0.00  0.00    +0.000 NA
ATOM     21  N   UNL     1       2.692   2.144  17.468  0.00  0.00    +0.000 NA
ATOM     22  C   UNL     1       3.343   1.617  18.480  0.00  0.00    +0.000 A 
ATOM     23  N   UNL     1       4.166   0.556  18.392  0.00  0.00    +0.000 N 
ATOM     24  S   UNL     1       3.074   2.425  19.972  0.00  0.00    +0.000 S 
ATOM     25  H   UNL     1       4.486   0.326  17.456  0.00  0.00    +0.000 HD
ATOM     26  H   UNL     1       4.870   0.445  19.110  0.00  0.00    +0.000 HD
ENDBRANCH  18  19
ENDBRANCH  17  18
ENDBRANCH  16  17
ENDBRANCH   3  16
TORSDOF 6
ENDMDL
MODEL 2
REMARK VINA RESULT:      -7.6      1.402      2.671
REMARK  Name = 
REMARK  7 active torsions:
REMARK  status: ('A' for Active; 'I' for Inactive)
REMARK    1  A    between atoms: C_1  and  O_2
REMARK    2  A    between atoms: O_2  and  C_3
REMARK    3  A    between atoms: C_8  and  C_9
REMARK    4  A    between atoms: N_11  and  C_12
REMARK    5  A    between atoms: C_12  and  C_13
REMARK    6  A    between atoms: C_13  and  C_14
REMARK    7  A    between atoms: C_14  and  C_15
REMARK                            x       y       z     vdW  Elec       q    Type
REMARK                         _______ _______ _______ _____ _____    ______ ____
ROOT
ATOM      1  C   UNL     1       5.362   4.180  18.024  0.00  0.00    +0.000 C 
ATOM      2  O   UNL     1       5.482   4.939  18.980  0.00  0.00    +0.000 OA
ATOM      3  N   UNL     1       4.624   3.019  18.096  0.00  0.00    +0.000 N 
ATOM      4  H   UNL     1       4.539   2.450  17.256  0.00  0.00    +0.000 HD
ENDROOT
BRANCH   1  10
ATOM      5  C   UNL     1       7.040   5.470  16.553  0.00  0.00    +0.000 A 
ATOM      6  N   UNL     1       7.615   5.760  15.356  0.00  0.00    +0.000 NA
ATOM      7  C   UNL     1       7.187   5.042  14.308  0.00  0.00    +0.000 A 
ATOM      8  C   UNL     1       6.234   4.042  14.377  0.00  0.00    +0.000 A 
ATOM      9  C   UNL     1       5.636   3.769  15.592  0.00  0.00    +0.000 A 
ATOM     10  C   UNL     1       6.034   4.506  16.726  0.00  0.00    +0.000 A 
ATOM     11  C   UNL     1       6.065   3.353  13.071  0.00  0.00    +0.000 C 
ATOM     12  C   UNL     1       6.825   4.271  12.102  0.00  0.00    +0.000 C 
ATOM     13  C   UNL     1       7.746   5.184  12.924  0.00  0.00    +0.000 C 
BRANCH   5  15
ATOM     14  C   UNL     1       7.583   7.569  17.454  0.00  0.00    +0.000 C 
ATOM     15  O   UNL     1       7.511   6.157  17.659  0.00  0.00    +0.000 OA
ENDBRANCH   5  15
ENDBRANCH   1  10
BRANCH   3  16
ATOM     16  C   UNL     1       3.895   2.626  19.282  0.00  0.00    +0.000 C 
BRANCH  16  17
ATOM     17  C   UNL     1       2.557   1.966  18.951  0.00  0.00    +0.000 C 
BRANCH  17  18
ATOM     18  C   UNL     1       1.565   2.950  18.331  0.00  0.00    +0.000 C 
BRANCH  18  19
ATOM     19  C   UNL     1       1.779   4.336  18.844  0.00  0.00    +0.000 A 
ATOM     20  N   UNL     1       2.218   5.343  18.119  0.00  0.00    +0.000 NA
ATOM     21  N   UNL     1       2.315   6.506  18.859  0.00  0.00    +0.000 NA
ATOM     22  C   UNL     1       1.948   6.341  20.110  0.00  0.00    +0.000 A 
ATOM     23  N   UNL     1       1.927   7.316  21.037  0.00  0.00    +0.000 N 
ATOM     24  S   UNL     1       1.458   4.738  20.482  0.00  0.00    +0.000 S 
ATOM     25  H   UNL     1       1.951   8.265  20.675  0.00  0.00    +0.000 HD
ATOM     26  H   UNL     1       1.320   7.194  21.837  0.00  0.00    +0.000 HD
ENDBRANCH  18  19
ENDBRANCH  17  18
ENDBRANCH  16  17
ENDBRANCH   3  16
TORSDOF 6
ENDMDL
MODEL 3
REMARK VINA RESULT:      -7.4      1.501      2.774
REMARK  Name = 
REMARK  7 active torsions:
REMARK  status: ('A' for Active; 'I' for Inactive)
REMARK    1  A    between atoms: C_1  and  O_2
REMARK    2  A    between atoms: O_2  and  C_3
REMARK    3  A    between atoms: C_8  and  C_9
REMARK    4  A    between atoms: N_11  and  C_12
REMARK    5  A    between atoms: C_12  and  C_13
REMARK    6  A    between atoms: C_13  and  C_14
REMARK    7  A    between atoms: C_14  and  C_15
REMARK                            x       y       z     vdW  Elec       q    Type
REMARK                         _______ _______ _______ _____ _____    ______ ____
ROOT
ATOM      1  C   UNL     1       5.340   4.229  18.165  0.00  0.00    +0.000 C 
ATOM      2  O   UNL     1       5.337   5.077  19.051  0.00  0.00    +0.000 OA
ATOM      3  N   UNL     1       4.750   2.995  18.328  0.00  0.00    +0.000 N 
ATOM      4  H   UNL     1       4.760   2.349  17.541  0.00  0.00    +0.000 HD
ENDROOT
BRANCH   1  10
ATOM      5  C   UNL     1       7.027   5.464  16.659  0.00  0.00    +0.000 A 
ATOM      6  N   UNL     1       7.594   5.726  15.451  0.00  0.00    +0.000 NA
ATOM      7  C   UNL     1       7.140   5.002  14.418  0.00  0.00    +0.000 A 
ATOM      8  C   UNL     1       6.167   4.024  14.511  0.00  0.00    +0.000 A 
ATOM      9  C   UNL     1       5.577   3.780  15.736  0.00  0.00    +0.000 A 
ATOM     10  C   UNL     1       6.004   4.524  16.856  0.00  0.00    +0.000 A 
ATOM     11  C   UNL     1       5.968   3.321  13.216  0.00  0.00    +0.000 C 
ATOM     12  C   UNL     1       6.736   4.210  12.227  0.00  0.00    +0.000 C 
ATOM     13  C   UNL     1       7.685   5.114  13.026  0.00  0.00    +0.000 C 
BRANCH   5  15
ATOM     14  C   UNL     1       7.567   7.569  17.546  0.00  0.00    +0.000 C 
ATOM     15  O   UNL     1       7.525   6.156  17.749  0.00  0.00    +0.000 OA
ENDBRANCH   5  15
ENDBRANCH   1  10
BRANCH   3  16
ATOM     16  C   UNL     1       4.041   2.617  19.531  0.00  0.00    +0.000 C 
BRANCH  16  17
ATOM     17  C   UNL     1       2.587   2.236  19.256  0.00  0.00    +0.000 C 
BRANCH  17  18
ATOM     18  C   UNL     1       1.602   3.162  19.968  0.00  0.00    +0.000 C 
BRANCH  18  19
ATOM     19  C   UNL     1       1.879   4.595  19.657  0.00  0.00    +0.000 A 
ATOM     20  N   UNL     1       2.148   5.518  20.555  0.00  0.00    +0.000 NA
ATOM     21  N   UNL     1       2.364   6.754  19.974  0.00  0.00    +0.000 NA
ATOM     22  C   UNL     1       2.251   6.724  18.665  0.00  0.00    +0.000 A 
ATOM     23  N   UNL     1       2.432   7.784  17.857  0.00  0.00    +0.000 N 
ATOM     24  S   UNL     1       1.865   5.172  18.039  0.00  0.00    +0.000 S 
ATOM     25  H   UNL     1       2.927   8.570  18.269  0.00  0.00    +0.000 HD
ATOM     26  H   UNL     1       2.671   7.605  16.890  0.00  0.00    +0.000 HD
ENDBRANCH  18  19
ENDBRANCH  17  18
ENDBRANCH  16  17
ENDBRANCH   3  16
TORSDOF 6
ENDMDL
MODEL 4
REMARK VINA RESULT:      -7.4      4.284      7.970
REMARK  Name = 
REMARK  7 active torsions:
REMARK  status: ('A' for Active; 'I' for Inactive)
REMARK    1  A    between atoms: C_1  and  O_2
REMARK    2  A    between atoms: O_2  and  C_3
REMARK    3  A    between atoms: C_8  and  C_9
REMARK    4  A    between atoms: N_11  and  C_12
REMARK    5  A    between atoms: C_12  and  C_13
REMARK    6  A    between atoms: C_13  and  C_14
REMARK    7  A    between atoms: C_14  and  C_15
REMARK                            x       y       z     vdW  Elec       q    Type
REMARK                         _______ _______ _______ _____ _____    ______ ____
ROOT
ATOM      1  C   UNL     1       6.443   5.617  18.908  0.00  0.00    +0.000 C 
ATOM      2  O   UNL     1       7.125   5.402  19.905  0.00  0.00    +0.000 OA
ATOM      3  N   UNL     1       6.821   6.521  17.940  0.00  0.00    +0.000 N 
ATOM      4  H   UNL     1       6.224   6.629  17.122  0.00  0.00    +0.000 HD
ENDROOT
BRANCH   1  10
ATOM      5  C   UNL     1       4.825   4.088  17.609  0.00  0.00    +0.000 A 
ATOM      6  N   UNL     1       3.633   3.453  17.456  0.00  0.00    +0.000 NA
ATOM      7  C   UNL     1       2.754   3.599  18.459  0.00  0.00    +0.000 A 
ATOM      8  C   UNL     1       2.992   4.324  19.611  0.00  0.00    +0.000 A 
ATOM      9  C   UNL     1       4.196   4.988  19.750  0.00  0.00    +0.000 A 
ATOM     10  C   UNL     1       5.151   4.884  18.719  0.00  0.00    +0.000 A 
ATOM     11  C   UNL     1       1.873   4.196  20.582  0.00  0.00    +0.000 C 
ATOM     12  C   UNL     1       0.769   3.538  19.741  0.00  0.00    +0.000 C 
ATOM     13  C   UNL     1       1.414   2.927  18.489  0.00  0.00    +0.000 C 
BRANCH   5  15
ATOM     14  C   UNL     1       5.346   4.384  15.340  0.00  0.00    +0.000 C 
ATOM     15  O   UNL     1       5.769   3.900  16.615  0.00  0.00    +0.000 OA
ENDBRANCH   5  15
ENDBRANCH   1  10
BRANCH   3  16
ATOM     16  C   UNL     1       8.068   7.253  17.994  0.00  0.00    +0.000 C 
BRANCH  16  17
ATOM     17  C   UNL     1       7.862   8.764  17.920  0.00  0.00    +0.000 C 
BRANCH  17  18
ATOM     18  C   UNL     1       8.922   9.532  18.708  0.00  0.00    +0.000 C 
BRANCH  18  19
ATOM     19  C   UNL     1       9.080  10.925  18.196  0.00  0.00    +0.000 A 
ATOM     20  N   UNL     1       8.102  11.659  17.709  0.00  0.00    +0.000 NA
ATOM     21  N   UNL     1       8.544  12.908  17.315  0.00  0.00    +0.000 NA
ATOM     22  C   UNL     1       9.832  13.076  17.515  0.00  0.00    +0.000 A 
ATOM     23  N   UNL     1      10.509  14.205  17.239  0.00  0.00    +0.000 N 
ATOM     24  S   UNL     1      10.609  11.707  18.202  0.00  0.00    +0.000 S 
ATOM     25  H   UNL     1       9.940  15.037  17.112  0.00  0.00    +0.000 HD
ATOM     26  H   UNL     1      11.377  14.368  17.733  0.00  0.00    +0.000 HD
ENDBRANCH  18  19
ENDBRANCH  17  18
ENDBRANCH  16  17
ENDBRANCH   3  16
TORSDOF 6
ENDMDL
MODEL 5
REMARK VINA RESULT:      -7.3      3.006      4.379
REMARK  Name = 
REMARK  7 active torsions:
REMARK  status: ('A' for Active; 'I' for Inactive)
REMARK    1  A    between atoms: C_1  and  O_2
REMARK    2  A    between atoms: O_2  and  C_3
REMARK    3  A    between atoms: C_8  and  C_9
REMARK    4  A    between atoms: N_11  and  C_12
REMARK    5  A    between atoms: C_12  and  C_13
REMARK    6  A    between atoms: C_13  and  C_14
REMARK    7  A    between atoms: C_14  and  C_15
REMARK                            x       y       z     vdW  Elec       q    Type
REMARK                         _______ _______ _______ _____ _____    ______ ____
ROOT
ATOM      1  C   UNL     1       4.703   4.436  17.504  0.00  0.00    +0.000 C 
ATOM      2  O   UNL     1       4.082   3.383  17.600  0.00  0.00    +0.000 OA
ATOM      3  N   UNL     1       4.598   5.439  18.442  0.00  0.00    +0.000 N 
ATOM      4  H   UNL     1       5.166   6.275  18.318  0.00  0.00    +0.000 HD
ENDROOT
BRANCH   1  10
ATOM      5  C   UNL     1       6.755   5.473  16.338  0.00  0.00    +0.000 A 
ATOM      6  N   UNL     1       7.546   5.676  15.251  0.00  0.00    +0.000 NA
ATOM      7  C   UNL     1       7.193   5.021  14.136  0.00  0.00    +0.000 A 
ATOM      8  C   UNL     1       6.111   4.165  14.036  0.00  0.00    +0.000 A 
ATOM      9  C   UNL     1       5.296   3.983  15.137  0.00  0.00    +0.000 A 
ATOM     10  C   UNL     1       5.610   4.661  16.333  0.00  0.00    +0.000 A 
ATOM     11  C   UNL     1       6.055   3.502  12.707  0.00  0.00    +0.000 C 
ATOM     12  C   UNL     1       7.078   4.301  11.886  0.00  0.00    +0.000 C 
ATOM     13  C   UNL     1       7.976   5.078  12.859  0.00  0.00    +0.000 C 
BRANCH   5  15
ATOM     14  C   UNL     1       7.478   7.467  17.344  0.00  0.00    +0.000 C 
ATOM     15  O   UNL     1       7.137   6.091  17.516  0.00  0.00    +0.000 OA
ENDBRANCH   5  15
ENDBRANCH   1  10
BRANCH   3  16
ATOM     16  C   UNL     1       3.790   5.315  19.635  0.00  0.00    +0.000 C 
BRANCH  16  17
ATOM     17  C   UNL     1       2.463   6.064  19.521  0.00  0.00    +0.000 C 
BRANCH  17  18
ATOM     18  C   UNL     1       2.557   7.264  18.579  0.00  0.00    +0.000 C 
BRANCH  18  19
ATOM     19  C   UNL     1       1.788   8.430  19.104  0.00  0.00    +0.000 A 
ATOM     20  N   UNL     1       1.352   8.545  20.340  0.00  0.00    +0.000 NA
ATOM     21  N   UNL     1       0.674   9.733  20.539  0.00  0.00    +0.000 NA
ATOM     22  C   UNL     1       0.620  10.472  19.454  0.00  0.00    +0.000 A 
ATOM     23  N   UNL     1       0.038  11.682  19.380  0.00  0.00    +0.000 N 
ATOM     24  S   UNL     1       1.396   9.763  18.095  0.00  0.00    +0.000 S 
ATOM     25  H   UNL     1      -0.135  12.140  20.270  0.00  0.00    +0.000 HD
ATOM     26  H   UNL     1       0.341  12.308  18.644  0.00  0.00    +0.000 HD
ENDBRANCH  18  19
ENDBRANCH  17  18
ENDBRANCH  16  17
ENDBRANCH   3  16
TORSDOF 6
ENDMDL
MODEL 6
REMARK VINA RESULT:      -7.3      1.141      1.343
REMARK  Name = 
REMARK  7 active torsions:
REMARK  status: ('A' for Active; 'I' for Inactive)
REMARK    1  A    between atoms: C_1  and  O_2
REMARK    2  A    between atoms: O_2  and  C_3
REMARK    3  A    between atoms: C_8  and  C_9
REMARK    4  A    between atoms: N_11  and  C_12
REMARK    5  A    between atoms: C_12  and  C_13
REMARK    6  A    between atoms: C_13  and  C_14
REMARK    7  A    between atoms: C_14  and  C_15
REMARK                            x       y       z     vdW  Elec       q    Type
REMARK                         _______ _______ _______ _____ _____    ______ ____
ROOT
ATOM      1  C   UNL     1       4.682   4.973  17.570  0.00  0.00    +0.000 C 
ATOM      2  O   UNL     1       5.127   4.715  18.684  0.00  0.00    +0.000 OA
ATOM      3  N   UNL     1       3.347   5.230  17.353  0.00  0.00    +0.000 N 
ATOM      4  H   UNL     1       3.049   5.469  16.409  0.00  0.00    +0.000 HD
ENDROOT
BRANCH   1  10
ATOM      5  C   UNL     1       6.840   5.680  16.350  0.00  0.00    +0.000 A 
ATOM      6  N   UNL     1       7.646   5.717  15.256  0.00  0.00    +0.000 NA
ATOM      7  C   UNL     1       7.213   5.039  14.183  0.00  0.00    +0.000 A 
ATOM      8  C   UNL     1       6.036   4.316  14.133  0.00  0.00    +0.000 A 
ATOM      9  C   UNL     1       5.209   4.302  15.240  0.00  0.00    +0.000 A 
ATOM     10  C   UNL     1       5.606   5.012  16.392  0.00  0.00    +0.000 A 
ATOM     11  C   UNL     1       5.896   3.581  12.848  0.00  0.00    +0.000 C 
ATOM     12  C   UNL     1       7.006   4.197  11.983  0.00  0.00    +0.000 C 
ATOM     13  C   UNL     1       7.994   4.921  12.908  0.00  0.00    +0.000 C 
BRANCH   5  15
ATOM     14  C   UNL     1       7.391   7.738  17.336  0.00  0.00    +0.000 C 
ATOM     15  O   UNL     1       7.297   6.321  17.488  0.00  0.00    +0.000 OA
ENDBRANCH   5  15
ENDBRANCH   1  10
BRANCH   3  16
ATOM     16  C   UNL     1       2.372   5.265  18.421  0.00  0.00    +0.000 C 
BRANCH  16  17
ATOM     17  C   UNL     1       1.169   4.365  18.143  0.00  0.00    +0.000 C 
BRANCH  17  18
ATOM     18  C   UNL     1       1.030   3.250  19.179  0.00  0.00    +0.000 C 
BRANCH  18  19
ATOM     19  C   UNL     1       2.338   2.580  19.438  0.00  0.00    +0.000 A 
ATOM     20  N   UNL     1       3.045   1.940  18.531  0.00  0.00    +0.000 NA
ATOM     21  N   UNL     1       4.213   1.424  19.058  0.00  0.00    +0.000 NA
ATOM     22  C   UNL     1       4.351   1.689  20.338  0.00  0.00    +0.000 A 
ATOM     23  N   UNL     1       5.406   1.321  21.087  0.00  0.00    +0.000 N 
ATOM     24  S   UNL     1       3.049   2.592  21.001  0.00  0.00    +0.000 S 
ATOM     25  H   UNL     1       6.238   1.053  20.571  0.00  0.00    +0.000 HD
ATOM     26  H   UNL     1       5.593   1.849  21.930  0.00  0.00    +0.000 HD
ENDBRANCH  18  19
ENDBRANCH  17  18
ENDBRANCH  16  17
ENDBRANCH   3  16
TORSDOF 6
ENDMDL
MODEL 7
REMARK VINA RESULT:      -7.3      4.718      8.030
REMARK  Name = 
REMARK  7 active torsions:
REMARK  status: ('A' for Active; 'I' for Inactive)
REMARK    1  A    between atoms: C_1  and  O_2
REMARK    2  A    between atoms: O_2  and  C_3
REMARK    3  A    between atoms: C_8  and  C_9
REMARK    4  A    between atoms: N_11  and  C_12
REMARK    5  A    between atoms: C_12  and  C_13
REMARK    6  A    between atoms: C_13  and  C_14
REMARK    7  A    between atoms: C_14  and  C_15
REMARK                            x       y       z     vdW  Elec       q    Type
REMARK                         _______ _______ _______ _____ _____    ______ ____
ROOT
ATOM      1  C   UNL     1       7.055   5.993  18.778  0.00  0.00    +0.000 C 
ATOM      2  O   UNL     1       7.690   5.602  19.751  0.00  0.00    +0.000 OA
ATOM      3  N   UNL     1       7.394   7.138  18.091  0.00  0.00    +0.000 N 
ATOM      4  H   UNL     1       6.843   7.389  17.272  0.00  0.00    +0.000 HD
ENDROOT
BRANCH   1  10
ATOM      5  C   UNL     1       5.833   4.400  17.163  0.00  0.00    +0.000 A 
ATOM      6  N   UNL     1       4.729   3.724  16.746  0.00  0.00    +0.000 NA
ATOM      7  C   UNL     1       3.637   3.849  17.513  0.00  0.00    +0.000 A 
ATOM      8  C   UNL     1       3.576   4.592  18.677  0.00  0.00    +0.000 A 
ATOM      9  C   UNL     1       4.693   5.297  19.083  0.00  0.00    +0.000 A 
ATOM     10  C   UNL     1       5.866   5.216  18.304  0.00  0.00    +0.000 A 
ATOM     11  C   UNL     1       2.266   4.436  19.362  0.00  0.00    +0.000 C 
ATOM     12  C   UNL     1       1.409   3.734  18.297  0.00  0.00    +0.000 C 
ATOM     13  C   UNL     1       2.348   3.134  17.241  0.00  0.00    +0.000 C 
BRANCH   5  15
ATOM     14  C   UNL     1       6.857   4.685  15.070  0.00  0.00    +0.000 C 
ATOM     15  O   UNL     1       6.988   4.234  16.419  0.00  0.00    +0.000 OA
ENDBRANCH   5  15
ENDBRANCH   1  10
BRANCH   3  16
ATOM     16  C   UNL     1       8.548   7.943  18.429  0.00  0.00    +0.000 C 
BRANCH  16  17
ATOM     17  C   UNL     1       8.328   9.427  18.143  0.00  0.00    +0.000 C 
BRANCH  17  18
ATOM     18  C   UNL     1       9.149  10.322  19.071  0.00  0.00    +0.000 C 
BRANCH  18  19
ATOM     19  C   UNL     1       9.523  11.603  18.403  0.00  0.00    +0.000 A 
ATOM     20  N   UNL     1       8.756  12.672  18.350  0.00  0.00    +0.000 NA
ATOM     21  N   UNL     1       9.366  13.709  17.669  0.00  0.00    +0.000 NA
ATOM     22  C   UNL     1      10.564  13.392  17.233  0.00  0.00    +0.000 A 
ATOM     23  N   UNL     1      11.379  14.224  16.560  0.00  0.00    +0.000 N 
ATOM     24  S   UNL     1      11.040  11.788  17.621  0.00  0.00    +0.000 S 
ATOM     25  H   UNL     1      11.148  15.211  16.624  0.00  0.00    +0.000 HD
ATOM     26  H   UNL     1      12.372  14.030  16.577  0.00  0.00    +0.000 HD
ENDBRANCH  18  19
ENDBRANCH  17  18
ENDBRANCH  16  17
ENDBRANCH   3  16
TORSDOF 6
ENDMDL
MODEL 8
REMARK VINA RESULT:      -7.2      4.396      8.170
REMARK  Name = 
REMARK  7 active torsions:
REMARK  status: ('A' for Active; 'I' for Inactive)
REMARK    1  A    between atoms: C_1  and  O_2
REMARK    2  A    between atoms: O_2  and  C_3
REMARK    3  A    between atoms: C_8  and  C_9
REMARK    4  A    between atoms: N_11  and  C_12
REMARK    5  A    between atoms: C_12  and  C_13
REMARK    6  A    between atoms: C_13  and  C_14
REMARK    7  A    between atoms: C_14  and  C_15
REMARK                            x       y       z     vdW  Elec       q    Type
REMARK                         _______ _______ _______ _____ _____    ______ ____
ROOT
ATOM      1  C   UNL     1       6.488   5.990  18.585  0.00  0.00    +0.000 C 
ATOM      2  O   UNL     1       7.297   5.572  19.408  0.00  0.00    +0.000 OA
ATOM      3  N   UNL     1       6.780   7.032  17.732  0.00  0.00    +0.000 N 
ATOM      4  H   UNL     1       6.074   7.309  17.052  0.00  0.00    +0.000 HD
ENDROOT
BRANCH   1  10
ATOM      5  C   UNL     1       4.511   4.947  17.303  0.00  0.00    +0.000 A 
ATOM      6  N   UNL     1       3.267   4.401  17.248  0.00  0.00    +0.000 NA
ATOM      7  C   UNL     1       2.641   4.243  18.422  0.00  0.00    +0.000 A 
ATOM      8  C   UNL     1       3.178   4.581  19.650  0.00  0.00    +0.000 A 
ATOM      9  C   UNL     1       4.433   5.158  19.698  0.00  0.00    +0.000 A 
ATOM     10  C   UNL     1       5.132   5.363  18.491  0.00  0.00    +0.000 A 
ATOM     11  C   UNL     1       2.288   4.175  20.770  0.00  0.00    +0.000 C 
ATOM     12  C   UNL     1       0.980   3.816  20.050  0.00  0.00    +0.000 C 
ATOM     13  C   UNL     1       1.289   3.609  18.561  0.00  0.00    +0.000 C 
BRANCH   5  15
ATOM     14  C   UNL     1       5.820   3.841  15.698  0.00  0.00    +0.000 C 
ATOM     15  O   UNL     1       5.200   5.061  16.108  0.00  0.00    +0.000 OA
ENDBRANCH   5  15
ENDBRANCH   1  10
BRANCH   3  16
ATOM     16  C   UNL     1       8.071   7.682  17.702  0.00  0.00    +0.000 C 
BRANCH  16  17
ATOM     17  C   UNL     1       7.965   9.197  17.869  0.00  0.00    +0.000 C 
BRANCH  17  18
ATOM     18  C   UNL     1       8.931   9.731  18.926  0.00  0.00    +0.000 C 
BRANCH  18  19
ATOM     19  C   UNL     1       9.566  11.009  18.489  0.00  0.00    +0.000 A 
ATOM     20  N   UNL     1      10.849  11.283  18.598  0.00  0.00    +0.000 NA
ATOM     21  N   UNL     1      11.150  12.539  18.107  0.00  0.00    +0.000 NA
ATOM     22  C   UNL     1      10.093  13.169  17.645  0.00  0.00    +0.000 A 
ATOM     23  N   UNL     1      10.113  14.395  17.093  0.00  0.00    +0.000 N 
ATOM     24  S   UNL     1       8.637  12.268  17.782  0.00  0.00    +0.000 S 
ATOM     25  H   UNL     1      11.025  14.727  16.795  0.00  0.00    +0.000 HD
ATOM     26  H   UNL     1       9.356  14.644  16.468  0.00  0.00    +0.000 HD
ENDBRANCH  18  19
ENDBRANCH  17  18
ENDBRANCH  16  17
ENDBRANCH   3  16
TORSDOF 6
ENDMDL
MODEL 9
REMARK VINA RESULT:      -7.2      2.683      4.062
REMARK  Name = 
REMARK  7 active torsions:
REMARK  status: ('A' for Active; 'I' for Inactive)
REMARK    1  A    between atoms: C_1  and  O_2
REMARK    2  A    between atoms: O_2  and  C_3
REMARK    3  A    between atoms: C_8  and  C_9
REMARK    4  A    between atoms: N_11  and  C_12
REMARK    5  A    between atoms: C_12  and  C_13
REMARK    6  A    between atoms: C_13  and  C_14
REMARK    7  A    between atoms: C_14  and  C_15
REMARK                            x       y       z     vdW  Elec       q    Type
REMARK                         _______ _______ _______ _____ _____    ______ ____
ROOT
ATOM      1  C   UNL     1       4.048   3.805  17.077  0.00  0.00    +0.000 C 
ATOM      2  O   UNL     1       4.078   2.663  17.523  0.00  0.00    +0.000 OA
ATOM      3  N   UNL     1       3.057   4.700  17.416  0.00  0.00    +0.000 N 
ATOM      4  H   UNL     1       3.109   5.643  17.035  0.00  0.00    +0.000 HD
ENDROOT
BRANCH   1  10
ATOM      5  C   UNL     1       6.119   5.193  16.425  0.00  0.00    +0.000 A 
ATOM      6  N   UNL     1       7.059   5.605  15.533  0.00  0.00    +0.000 NA
ATOM      7  C   UNL     1       7.003   5.043  14.317  0.00  0.00    +0.000 A 
ATOM      8  C   UNL     1       6.080   4.086  13.936  0.00  0.00    +0.000 A 
ATOM      9  C   UNL     1       5.112   3.690  14.839  0.00  0.00    +0.000 A 
ATOM     10  C   UNL     1       5.112   4.261  16.128  0.00  0.00    +0.000 A 
ATOM     11  C   UNL     1       6.353   3.574  12.567  0.00  0.00    +0.000 C 
ATOM     12  C   UNL     1       7.392   4.571  12.033  0.00  0.00    +0.000 C 
ATOM     13  C   UNL     1       7.989   5.332  13.225  0.00  0.00    +0.000 C 
BRANCH   5  15
ATOM     14  C   UNL     1       7.493   6.220  18.027  0.00  0.00    +0.000 C 
ATOM     15  O   UNL     1       6.197   5.715  17.705  0.00  0.00    +0.000 OA
ENDBRANCH   5  15
ENDBRANCH   1  10
BRANCH   3  16
ATOM     16  C   UNL     1       2.005   4.385  18.358  0.00  0.00    +0.000 C 
BRANCH  16  17
ATOM     17  C   UNL     1       2.143   5.161  19.667  0.00  0.00    +0.000 C 
BRANCH  17  18
ATOM     18  C   UNL     1       3.037   6.392  19.518  0.00  0.00    +0.000 C 
BRANCH  18  19
ATOM     19  C   UNL     1       2.229   7.641  19.402  0.00  0.00    +0.000 A 
ATOM     20  N   UNL     1       1.541   8.182  20.385  0.00  0.00    +0.000 NA
ATOM     21  N   UNL     1       0.893   9.336  19.985  0.00  0.00    +0.000 NA
ATOM     22  C   UNL     1       1.112   9.627  18.723  0.00  0.00    +0.000 A 
ATOM     23  N   UNL     1       0.618  10.707  18.089  0.00  0.00    +0.000 N 
ATOM     24  S   UNL     1       2.130   8.501  17.919  0.00  0.00    +0.000 S 
ATOM     25  H   UNL     1       0.278  11.450  18.692  0.00  0.00    +0.000 HD
ATOM     26  H   UNL     1       1.104  11.032  17.263  0.00  0.00    +0.000 HD
ENDBRANCH  18  19
ENDBRANCH  17  18
ENDBRANCH  16  17
ENDBRANCH   3  16
TORSDOF 6
ENDMDL
