MODEL 1
REMARK VINA RESULT:      -8.2      0.000      0.000
REMARK  Name = 
REMARK  9 active torsions:
REMARK  status: ('A' for Active; 'I' for Inactive)
REMARK    1  A    between atoms: P_2  and  O_4
REMARK    2  A    between atoms: P_2  and  C_5
REMARK    3  A    between atoms: C_5  and  C_6
REMARK    4  A    between atoms: C_5  and  P_25
REMARK    5  A    between atoms: C_6  and  N_7
REMARK    6  A    between atoms: C_11  and  C_12
REMARK    7  A    between atoms: C_17  and  C_18
REMARK    8  A    between atoms: P_25  and  O_27
REMARK    9  A    between atoms: P_25  and  O_28
REMARK                            x       y       z     vdW  Elec       q    Type
REMARK                         _______ _______ _______ _____ _____    ______ ____
ROOT
ATOM      1  N   UNL     1       1.548   8.743  19.414  0.00  0.00    +0.000 N 
ATOM      2  C   UNL     1       2.128   9.095  18.246  0.00  0.00    +0.000 A 
ATOM      3  C   UNL     1       2.826   8.164  17.497  0.00  0.00    +0.000 A 
ATOM      4  C   UNL     1       2.922   6.858  17.963  0.00  0.00    +0.000 A 
ATOM      5  C   UNL     1       2.484   6.526  19.246  0.00  0.00    +0.000 A 
ATOM      6  C   UNL     1       1.837   7.545  19.964  0.00  0.00    +0.000 A 
ENDROOT
BRANCH   5   7
ATOM      7  C   UNL     1       2.627   5.158  19.837  0.00  0.00    +0.000 A 
ATOM      8  C   UNL     1       1.596   4.723  20.714  0.00  0.00    +0.000 A 
ATOM      9  C   UNL     1       1.591   3.462  21.315  0.00  0.00    +0.000 A 
ATOM     10  C   UNL     1       2.620   2.583  21.047  0.00  0.00    +0.000 A 
ATOM     11  C   UNL     1       3.657   2.977  20.205  0.00  0.00    +0.000 A 
ATOM     12  C   UNL     1       3.711   4.260  19.595  0.00  0.00    +0.000 A 
BRANCH  12  13
ATOM     13  C   UNL     1       4.893   4.562  18.746  0.00  0.00    +0.000 A 
ATOM     14  C   UNL     1       4.968   4.112  17.410  0.00  0.00    +0.000 A 
ATOM     15  C   UNL     1       6.069   4.401  16.598  0.00  0.00    +0.000 A 
ATOM     16  C   UNL     1       7.114   5.178  17.092  0.00  0.00    +0.000 A 
ATOM     17  C   UNL     1       7.072   5.627  18.407  0.00  0.00    +0.000 A 
ATOM     18  C   UNL     1       5.991   5.292  19.231  0.00  0.00    +0.000 A 
ENDBRANCH  12  13
ENDBRANCH   5   7
BRANCH   1  19
ATOM     19  C   UNL     1       0.542   9.700  20.003  0.00  0.00    +0.000 C 
BRANCH  19  20
ATOM     20  C   UNL     1       0.418  11.122  19.482  0.00  0.00    +0.000 C 
BRANCH  20  22
ATOM     21  O   UNL     1       1.352  13.572  21.612  0.00  0.00    +0.000 OA
ATOM     22  P   UNL     1       0.924  12.448  20.636  0.00  0.00    +0.000 P 
ATOM     23  O   UNL     1       1.254  11.318  21.620  0.00  0.00    +0.000 OA
BRANCH  22  24
ATOM     24  O   UNL     1      -0.633  12.803  20.975  0.00  0.00    +0.000 OA
ATOM     25  H   UNL     1      -0.968  11.870  21.020  0.00  0.00    +0.000 HD
ENDBRANCH  22  24
ENDBRANCH  20  22
BRANCH  20  26
ATOM     26  P   UNL     1      -1.168  11.575  18.688  0.00  0.00    +0.000 P 
ATOM     27  O   UNL     1      -0.595  12.887  18.145  0.00  0.00    +0.000 OA
BRANCH  26  28
ATOM     28  O   UNL     1      -1.000  10.519  17.441  0.00  0.00    +0.000 OA
ATOM     29  H   UNL     1      -0.195   9.988  17.624  0.00  0.00    +0.000 HD
ENDBRANCH  26  28
BRANCH  26  30
ATOM     30  O   UNL     1      -2.666  12.003  17.938  0.00  0.00    +0.000 OA
ATOM     31  H   UNL     1      -2.729  12.973  18.098  0.00  0.00    +0.000 HD
ENDBRANCH  26  30
ENDBRANCH  20  26
ENDBRANCH  19  20
ENDBRANCH   1  19
TORSDOF 9
ENDMDL
MODEL 2
REMARK VINA RESULT:      -8.2      1.567      4.183
REMARK  Name = 
REMARK  9 active torsions:
REMARK  status: ('A' for Active; 'I' for Inactive)
REMARK    1  A    between atoms: P_2  and  O_4
REMARK    2  A    between atoms: P_2  and  C_5
REMARK    3  A    between atoms: C_5  and  C_6
REMARK    4  A    between atoms: C_5  and  P_25
REMARK    5  A    between atoms: C_6  and  N_7
REMARK    6  A    between atoms: C_11  and  C_12
REMARK    7  A    between atoms: C_17  and  C_18
REMARK    8  A    between atoms: P_25  and  O_27
REMARK    9  A    between atoms: P_25  and  O_28
REMARK                            x       y       z     vdW  Elec       q    Type
REMARK                         _______ _______ _______ _____ _____    ______ ____
ROOT
ATOM      1  N   UNL     1       1.133   9.381  18.977  0.00  0.00    +0.000 N 
ATOM      2  C   UNL     1       0.844   9.071  20.260  0.00  0.00    +0.000 A 
ATOM      3  C   UNL     1       1.432   7.976  20.870  0.00  0.00    +0.000 A 
ATOM      4  C   UNL     1       2.326   7.198  20.144  0.00  0.00    +0.000 A 
ATOM      5  C   UNL     1       2.494   7.400  18.773  0.00  0.00    +0.000 A 
ATOM      6  C   UNL     1       1.816   8.498  18.219  0.00  0.00    +0.000 A 
ENDROOT
BRANCH   5   7
ATOM      7  C   UNL     1       3.381   6.549  17.919  0.00  0.00    +0.000 A 
ATOM      8  C   UNL     1       4.173   7.217  16.944  0.00  0.00    +0.000 A 
ATOM      9  C   UNL     1       5.061   6.550  16.099  0.00  0.00    +0.000 A 
ATOM     10  C   UNL     1       5.197   5.181  16.207  0.00  0.00    +0.000 A 
ATOM     11  C   UNL     1       4.428   4.487  17.138  0.00  0.00    +0.000 A 
ATOM     12  C   UNL     1       3.495   5.128  17.999  0.00  0.00    +0.000 A 
BRANCH  12  13
ATOM     13  C   UNL     1       2.714   4.262  18.923  0.00  0.00    +0.000 A 
ATOM     14  C   UNL     1       3.262   3.817  20.145  0.00  0.00    +0.000 A 
ATOM     15  C   UNL     1       2.533   3.013  21.028  0.00  0.00    +0.000 A 
ATOM     16  C   UNL     1       1.221   2.659  20.724  0.00  0.00    +0.000 A 
ATOM     17  C   UNL     1       0.658   3.076  19.523  0.00  0.00    +0.000 A 
ATOM     18  C   UNL     1       1.410   3.838  18.620  0.00  0.00    +0.000 A 
ENDBRANCH  12  13
ENDBRANCH   5   7
BRANCH   1  19
ATOM     19  C   UNL     1       0.726  10.748  18.487  0.00  0.00    +0.000 C 
BRANCH  19  20
ATOM     20  C   UNL     1      -0.442  11.488  19.117  0.00  0.00    +0.000 C 
BRANCH  20  22
ATOM     21  O   UNL     1      -3.296  11.569  17.312  0.00  0.00    +0.000 OA
ATOM     22  P   UNL     1      -1.988  11.531  18.139  0.00  0.00    +0.000 P 
ATOM     23  O   UNL     1      -1.589  10.133  17.648  0.00  0.00    +0.000 OA
BRANCH  22  24
ATOM     24  O   UNL     1      -1.310  12.527  17.037  0.00  0.00    +0.000 OA
ATOM     25  H   UNL     1      -1.445  11.946  16.243  0.00  0.00    +0.000 HD
ENDBRANCH  22  24
ENDBRANCH  20  22
BRANCH  20  26
ATOM     26  P   UNL     1      -0.098  13.155  19.790  0.00  0.00    +0.000 P 
ATOM     27  O   UNL     1       0.733  13.548  18.565  0.00  0.00    +0.000 OA
BRANCH  26  28
ATOM     28  O   UNL     1      -1.596  13.744  19.461  0.00  0.00    +0.000 OA
ATOM     29  H   UNL     1      -1.674  13.793  18.482  0.00  0.00    +0.000 HD
ENDBRANCH  26  28
BRANCH  26  30
ATOM     30  O   UNL     1       0.227  14.731  20.424  0.00  0.00    +0.000 OA
ATOM     31  H   UNL     1      -0.442  15.298  19.974  0.00  0.00    +0.000 HD
ENDBRANCH  26  30
ENDBRANCH  20  26
ENDBRANCH  19  20
ENDBRANCH   1  19
TORSDOF 9
ENDMDL
MODEL 3
REMARK VINA RESULT:      -8.2      0.518      1.211
REMARK  Name = 
REMARK  9 active torsions:
REMARK  status: ('A' for Active; 'I' for Inactive)
REMARK    1  A    between atoms: P_2  and  O_4
REMARK    2  A    between atoms: P_2  and  C_5
REMARK    3  A    between atoms: C_5  and  C_6
REMARK    4  A    between atoms: C_5  and  P_25
REMARK    5  A    between atoms: C_6  and  N_7
REMARK    6  A    between atoms: C_11  and  C_12
REMARK    7  A    between atoms: C_17  and  C_18
REMARK    8  A    between atoms: P_25  and  O_27
REMARK    9  A    between atoms: P_25  and  O_28
REMARK                            x       y       z     vdW  Elec       q    Type
REMARK                         _______ _______ _______ _____ _____    ______ ____
ROOT
ATOM      1  N   UNL     1       1.667   8.780  19.337  0.00  0.00    +0.000 N 
ATOM      2  C   UNL     1       2.227   9.086  18.146  0.00  0.00    +0.000 A 
ATOM      3  C   UNL     1       2.864   8.113  17.396  0.00  0.00    +0.000 A 
ATOM      4  C   UNL     1       2.920   6.813  17.884  0.00  0.00    +0.000 A 
ATOM      5  C   UNL     1       2.506   6.523  19.185  0.00  0.00    +0.000 A 
ATOM      6  C   UNL     1       1.923   7.581  19.902  0.00  0.00    +0.000 A 
ENDROOT
BRANCH   5   7
ATOM      7  C   UNL     1       2.610   5.161  19.797  0.00  0.00    +0.000 A 
ATOM      8  C   UNL     1       1.554   4.759  20.661  0.00  0.00    +0.000 A 
ATOM      9  C   UNL     1       1.512   3.508  21.279  0.00  0.00    +0.000 A 
ATOM     10  C   UNL     1       2.528   2.604  21.044  0.00  0.00    +0.000 A 
ATOM     11  C   UNL     1       3.589   2.965  20.217  0.00  0.00    +0.000 A 
ATOM     12  C   UNL     1       3.680   4.238  19.590  0.00  0.00    +0.000 A 
BRANCH  12  13
ATOM     13  C   UNL     1       4.884   4.505  18.759  0.00  0.00    +0.000 A 
ATOM     14  C   UNL     1       5.986   5.216  19.278  0.00  0.00    +0.000 A 
ATOM     15  C   UNL     1       7.130   5.462  18.511  0.00  0.00    +0.000 A 
ATOM     16  C   UNL     1       7.213   4.973  17.209  0.00  0.00    +0.000 A 
ATOM     17  C   UNL     1       6.138   4.276  16.668  0.00  0.00    +0.000 A 
ATOM     18  C   UNL     1       4.977   4.077  17.424  0.00  0.00    +0.000 A 
ENDBRANCH  12  13
ENDBRANCH   5   7
BRANCH   1  19
ATOM     19  C   UNL     1       0.719   9.789  19.936  0.00  0.00    +0.000 C 
BRANCH  19  20
ATOM     20  C   UNL     1       0.665  11.215  19.415  0.00  0.00    +0.000 C 
BRANCH  20  22
ATOM     21  O   UNL     1       1.740  13.612  21.539  0.00  0.00    +0.000 OA
ATOM     22  P   UNL     1       1.248  12.513  20.566  0.00  0.00    +0.000 P 
ATOM     23  O   UNL     1       0.554  11.697  21.665  0.00  0.00    +0.000 OA
BRANCH  22  24
ATOM     24  O   UNL     1       0.082  13.538  20.063  0.00  0.00    +0.000 OA
ATOM     25  H   UNL     1       0.618  14.011  19.373  0.00  0.00    +0.000 HD
ENDBRANCH  22  24
ENDBRANCH  20  22
BRANCH  20  26
ATOM     26  P   UNL     1      -0.901  11.750  18.633  0.00  0.00    +0.000 P 
ATOM     27  O   UNL     1      -1.060  10.420  17.892  0.00  0.00    +0.000 OA
BRANCH  26  28
ATOM     28  O   UNL     1      -1.802  11.559  19.993  0.00  0.00    +0.000 OA
ATOM     29  H   UNL     1      -2.068  10.614  20.028  0.00  0.00    +0.000 HD
ENDBRANCH  26  28
BRANCH  26  30
ATOM     30  O   UNL     1      -2.380  12.255  17.894  0.00  0.00    +0.000 OA
ATOM     31  H   UNL     1      -2.410  13.221  18.086  0.00  0.00    +0.000 HD
ENDBRANCH  26  30
ENDBRANCH  20  26
ENDBRANCH  19  20
ENDBRANCH   1  19
TORSDOF 9
ENDMDL
MODEL 4
REMARK VINA RESULT:      -8.1      1.576      4.061
REMARK  Name = 
REMARK  9 active torsions:
REMARK  status: ('A' for Active; 'I' for Inactive)
REMARK    1  A    between atoms: P_2  and  O_4
REMARK    2  A    between atoms: P_2  and  C_5
REMARK    3  A    between atoms: C_5  and  C_6
REMARK    4  A    between atoms: C_5  and  P_25
REMARK    5  A    between atoms: C_6  and  N_7
REMARK    6  A    between atoms: C_11  and  C_12
REMARK    7  A    between atoms: C_17  and  C_18
REMARK    8  A    between atoms: P_25  and  O_27
REMARK    9  A    between atoms: P_25  and  O_28
REMARK                            x       y       z     vdW  Elec       q    Type
REMARK                         _______ _______ _______ _____ _____    ______ ____
ROOT
ATOM      1  N   UNL     1       1.132   9.348  19.058  0.00  0.00    +0.000 N 
ATOM      2  C   UNL     1       0.856   9.013  20.337  0.00  0.00    +0.000 A 
ATOM      3  C   UNL     1       1.454   7.910  20.921  0.00  0.00    +0.000 A 
ATOM      4  C   UNL     1       2.346   7.150  20.173  0.00  0.00    +0.000 A 
ATOM      5  C   UNL     1       2.501   7.378  18.805  0.00  0.00    +0.000 A 
ATOM      6  C   UNL     1       1.813   8.483  18.278  0.00  0.00    +0.000 A 
ENDROOT
BRANCH   5   7
ATOM      7  C   UNL     1       3.385   6.548  17.928  0.00  0.00    +0.000 A 
ATOM      8  C   UNL     1       4.175   7.239  16.969  0.00  0.00    +0.000 A 
ATOM      9  C   UNL     1       5.060   6.592  16.104  0.00  0.00    +0.000 A 
ATOM     10  C   UNL     1       5.194   5.220  16.178  0.00  0.00    +0.000 A 
ATOM     11  C   UNL     1       4.426   4.504  17.093  0.00  0.00    +0.000 A 
ATOM     12  C   UNL     1       3.497   5.125  17.973  0.00  0.00    +0.000 A 
BRANCH  12  13
ATOM     13  C   UNL     1       2.716   4.238  18.876  0.00  0.00    +0.000 A 
ATOM     14  C   UNL     1       1.418   3.805  18.533  0.00  0.00    +0.000 A 
ATOM     15  C   UNL     1       0.680   2.960  19.368  0.00  0.00    +0.000 A 
ATOM     16  C   UNL     1       1.236   2.501  20.560  0.00  0.00    +0.000 A 
ATOM     17  C   UNL     1       2.510   2.918  20.929  0.00  0.00    +0.000 A 
ATOM     18  C   UNL     1       3.224   3.804  20.112  0.00  0.00    +0.000 A 
ENDBRANCH  12  13
ENDBRANCH   5   7
BRANCH   1  19
ATOM     19  C   UNL     1       0.714  10.722  18.597  0.00  0.00    +0.000 C 
BRANCH  19  20
ATOM     20  C   UNL     1      -0.596  11.336  19.059  0.00  0.00    +0.000 C 
BRANCH  20  22
ATOM     21  O   UNL     1      -3.410   9.932  17.824  0.00  0.00    +0.000 OA
ATOM     22  P   UNL     1      -2.120  10.576  18.389  0.00  0.00    +0.000 P 
ATOM     23  O   UNL     1      -1.379  10.531  17.047  0.00  0.00    +0.000 OA
BRANCH  22  24
ATOM     24  O   UNL     1      -2.876  12.022  18.356  0.00  0.00    +0.000 OA
ATOM     25  H   UNL     1      -2.896  12.132  17.369  0.00  0.00    +0.000 HD
ENDBRANCH  22  24
ENDBRANCH  20  22
BRANCH  20  26
ATOM     26  P   UNL     1      -0.733  13.159  18.967  0.00  0.00    +0.000 P 
ATOM     27  O   UNL     1       0.726  13.354  19.390  0.00  0.00    +0.000 OA
BRANCH  26  28
ATOM     28  O   UNL     1      -0.682  13.214  17.325  0.00  0.00    +0.000 OA
ATOM     29  H   UNL     1      -1.243  13.972  17.048  0.00  0.00    +0.000 HD
ENDBRANCH  26  28
BRANCH  26  30
ATOM     30  O   UNL     1      -0.861  14.882  18.879  0.00  0.00    +0.000 OA
ATOM     31  H   UNL     1      -0.745  15.164  19.816  0.00  0.00    +0.000 HD
ENDBRANCH  26  30
ENDBRANCH  20  26
ENDBRANCH  19  20
ENDBRANCH   1  19
TORSDOF 9
ENDMDL
MODEL 5
REMARK VINA RESULT:      -8.0      0.647      1.209
REMARK  Name = 
REMARK  9 active torsions:
REMARK  status: ('A' for Active; 'I' for Inactive)
REMARK    1  A    between atoms: P_2  and  O_4
REMARK    2  A    between atoms: P_2  and  C_5
REMARK    3  A    between atoms: C_5  and  C_6
REMARK    4  A    between atoms: C_5  and  P_25
REMARK    5  A    between atoms: C_6  and  N_7
REMARK    6  A    between atoms: C_11  and  C_12
REMARK    7  A    between atoms: C_17  and  C_18
REMARK    8  A    between atoms: P_25  and  O_27
REMARK    9  A    between atoms: P_25  and  O_28
REMARK                            x       y       z     vdW  Elec       q    Type
REMARK                         _______ _______ _______ _____ _____    ______ ____
ROOT
ATOM      1  N   UNL     1       1.490   8.752  19.696  0.00  0.00    +0.000 N 
ATOM      2  C   UNL     1       1.975   9.149  18.499  0.00  0.00    +0.000 A 
ATOM      3  C   UNL     1       2.600   8.245  17.658  0.00  0.00    +0.000 A 
ATOM      4  C   UNL     1       2.723   6.921  18.060  0.00  0.00    +0.000 A 
ATOM      5  C   UNL     1       2.390   6.539  19.361  0.00  0.00    +0.000 A 
ATOM      6  C   UNL     1       1.813   7.531  20.171  0.00  0.00    +0.000 A 
ENDROOT
BRANCH   5   7
ATOM      7  C   UNL     1       2.570   5.147  19.881  0.00  0.00    +0.000 A 
ATOM      8  C   UNL     1       1.562   4.649  20.753  0.00  0.00    +0.000 A 
ATOM      9  C   UNL     1       1.592   3.361  21.291  0.00  0.00    +0.000 A 
ATOM     10  C   UNL     1       2.633   2.516  20.964  0.00  0.00    +0.000 A 
ATOM     11  C   UNL     1       3.648   2.972  20.126  0.00  0.00    +0.000 A 
ATOM     12  C   UNL     1       3.666   4.284  19.579  0.00  0.00    +0.000 A 
BRANCH  12  13
ATOM     13  C   UNL     1       4.828   4.651  18.726  0.00  0.00    +0.000 A 
ATOM     14  C   UNL     1       5.913   5.388  19.248  0.00  0.00    +0.000 A 
ATOM     15  C   UNL     1       7.017   5.728  18.459  0.00  0.00    +0.000 A 
ATOM     16  C   UNL     1       7.079   5.312  17.131  0.00  0.00    +0.000 A 
ATOM     17  C   UNL     1       6.020   4.593  16.588  0.00  0.00    +0.000 A 
ATOM     18  C   UNL     1       4.895   4.299  17.368  0.00  0.00    +0.000 A 
ENDBRANCH  12  13
ENDBRANCH   5   7
BRANCH   1  19
ATOM     19  C   UNL     1       0.545   9.689  20.405  0.00  0.00    +0.000 C 
BRANCH  19  20
ATOM     20  C   UNL     1       0.250  11.071  19.848  0.00  0.00    +0.000 C 
BRANCH  20  22
ATOM     21  O   UNL     1       0.466  13.633  22.039  0.00  0.00    +0.000 OA
ATOM     22  P   UNL     1       0.368  12.459  21.035  0.00  0.00    +0.000 P 
ATOM     23  O   UNL     1       1.887  12.267  20.942  0.00  0.00    +0.000 OA
BRANCH  22  24
ATOM     24  O   UNL     1      -0.061  11.487  22.274  0.00  0.00    +0.000 OA
ATOM     25  H   UNL     1       0.528  11.894  22.963  0.00  0.00    +0.000 HD
ENDBRANCH  22  24
ENDBRANCH  20  22
BRANCH  20  26
ATOM     26  P   UNL     1      -1.271  11.251  18.846  0.00  0.00    +0.000 P 
ATOM     27  O   UNL     1      -1.969  12.069  19.936  0.00  0.00    +0.000 OA
BRANCH  26  28
ATOM     28  O   UNL     1      -0.637  12.385  17.841  0.00  0.00    +0.000 OA
ATOM     29  H   UNL     1      -1.379  12.732  17.299  0.00  0.00    +0.000 HD
ENDBRANCH  26  28
BRANCH  26  30
ATOM     30  O   UNL     1      -2.709  11.422  17.900  0.00  0.00    +0.000 OA
ATOM     31  H   UNL     1      -2.376  11.379  16.973  0.00  0.00    +0.000 HD
ENDBRANCH  26  30
ENDBRANCH  20  26
ENDBRANCH  19  20
ENDBRANCH   1  19
TORSDOF 9
ENDMDL
MODEL 6
REMARK VINA RESULT:      -8.0      1.498      4.119
REMARK  Name = 
REMARK  9 active torsions:
REMARK  status: ('A' for Active; 'I' for Inactive)
REMARK    1  A    between atoms: P_2  and  O_4
REMARK    2  A    between atoms: P_2  and  C_5
REMARK    3  A    between atoms: C_5  and  C_6
REMARK    4  A    between atoms: C_5  and  P_25
REMARK    5  A    between atoms: C_6  and  N_7
REMARK    6  A    between atoms: C_11  and  C_12
REMARK    7  A    between atoms: C_17  and  C_18
REMARK    8  A    between atoms: P_25  and  O_27
REMARK    9  A    between atoms: P_25  and  O_28
REMARK                            x       y       z     vdW  Elec       q    Type
REMARK                         _______ _______ _______ _____ _____    ______ ____
ROOT
ATOM      1  N   UNL     1       1.731   9.198  18.556  0.00  0.00    +0.000 N 
ATOM      2  C   UNL     1       1.310   8.920  19.809  0.00  0.00    +0.000 A 
ATOM      3  C   UNL     1       1.707   7.755  20.444  0.00  0.00    +0.000 A 
ATOM      4  C   UNL     1       2.546   6.873  19.773  0.00  0.00    +0.000 A 
ATOM      5  C   UNL     1       2.840   7.060  18.422  0.00  0.00    +0.000 A 
ATOM      6  C   UNL     1       2.350   8.240  17.836  0.00  0.00    +0.000 A 
ENDROOT
BRANCH   5   7
ATOM      7  C   UNL     1       3.672   6.108  17.621  0.00  0.00    +0.000 A 
ATOM      8  C   UNL     1       4.512   6.668  16.620  0.00  0.00    +0.000 A 
ATOM      9  C   UNL     1       5.357   5.899  15.819  0.00  0.00    +0.000 A 
ATOM     10  C   UNL     1       5.401   4.532  16.001  0.00  0.00    +0.000 A 
ATOM     11  C   UNL     1       4.583   3.941  16.960  0.00  0.00    +0.000 A 
ATOM     12  C   UNL     1       3.690   4.688  17.778  0.00  0.00    +0.000 A 
BRANCH  12  13
ATOM     13  C   UNL     1       2.848   3.927  18.740  0.00  0.00    +0.000 A 
ATOM     14  C   UNL     1       3.363   3.499  19.982  0.00  0.00    +0.000 A 
ATOM     15  C   UNL     1       2.578   2.795  20.900  0.00  0.00    +0.000 A 
ATOM     16  C   UNL     1       1.242   2.526  20.610  0.00  0.00    +0.000 A 
ATOM     17  C   UNL     1       0.710   2.928  19.390  0.00  0.00    +0.000 A 
ATOM     18  C   UNL     1       1.516   3.588  18.455  0.00  0.00    +0.000 A 
ENDBRANCH  12  13
ENDBRANCH   5   7
BRANCH   1  19
ATOM     19  C   UNL     1       1.538  10.609  18.058  0.00  0.00    +0.000 C 
BRANCH  19  20
ATOM     20  C   UNL     1       0.761  11.626  18.875  0.00  0.00    +0.000 C 
BRANCH  20  22
ATOM     21  O   UNL     1      -2.582  11.679  18.389  0.00  0.00    +0.000 OA
ATOM     22  P   UNL     1      -1.050  11.655  18.611  0.00  0.00    +0.000 P 
ATOM     23  O   UNL     1      -0.824  13.029  17.966  0.00  0.00    +0.000 OA
BRANCH  22  24
ATOM     24  O   UNL     1      -1.313  12.013  20.182  0.00  0.00    +0.000 OA
ATOM     25  H   UNL     1      -0.405  11.792  20.517  0.00  0.00    +0.000 HD
ENDBRANCH  22  24
ENDBRANCH  20  22
BRANCH  20  26
ATOM     26  P   UNL     1       1.403  13.340  18.889  0.00  0.00    +0.000 P 
ATOM     27  O   UNL     1       2.396  13.028  20.012  0.00  0.00    +0.000 OA
BRANCH  26  28
ATOM     28  O   UNL     1       2.287  13.162  17.515  0.00  0.00    +0.000 OA
ATOM     29  H   UNL     1       2.356  12.198  17.344  0.00  0.00    +0.000 HD
ENDBRANCH  26  28
BRANCH  26  30
ATOM     30  O   UNL     1       2.011  14.959  18.901  0.00  0.00    +0.000 OA
ATOM     31  H   UNL     1       2.858  14.886  18.403  0.00  0.00    +0.000 HD
ENDBRANCH  26  30
ENDBRANCH  20  26
ENDBRANCH  19  20
ENDBRANCH   1  19
TORSDOF 9
ENDMDL
MODEL 7
REMARK VINA RESULT:      -7.9      1.246      1.915
REMARK  Name = 
REMARK  9 active torsions:
REMARK  status: ('A' for Active; 'I' for Inactive)
REMARK    1  A    between atoms: P_2  and  O_4
REMARK    2  A    between atoms: P_2  and  C_5
REMARK    3  A    between atoms: C_5  and  C_6
REMARK    4  A    between atoms: C_5  and  P_25
REMARK    5  A    between atoms: C_6  and  N_7
REMARK    6  A    between atoms: C_11  and  C_12
REMARK    7  A    between atoms: C_17  and  C_18
REMARK    8  A    between atoms: P_25  and  O_27
REMARK    9  A    between atoms: P_25  and  O_28
REMARK                            x       y       z     vdW  Elec       q    Type
REMARK                         _______ _______ _______ _____ _____    ______ ____
ROOT
ATOM      1  N   UNL     1       1.677   8.584  19.175  0.00  0.00    +0.000 N 
ATOM      2  C   UNL     1       2.365   8.944  18.069  0.00  0.00    +0.000 A 
ATOM      3  C   UNL     1       3.186   8.035  17.424  0.00  0.00    +0.000 A 
ATOM      4  C   UNL     1       3.294   6.745  17.929  0.00  0.00    +0.000 A 
ATOM      5  C   UNL     1       2.733   6.416  19.163  0.00  0.00    +0.000 A 
ATOM      6  C   UNL     1       1.962   7.413  19.782  0.00  0.00    +0.000 A 
ENDROOT
BRANCH   5   7
ATOM      7  C   UNL     1       2.877   5.068  19.799  0.00  0.00    +0.000 A 
ATOM      8  C   UNL     1       1.953   4.738  20.829  0.00  0.00    +0.000 A 
ATOM      9  C   UNL     1       1.958   3.508  21.489  0.00  0.00    +0.000 A 
ATOM     10  C   UNL     1       2.888   2.553  21.131  0.00  0.00    +0.000 A 
ATOM     11  C   UNL     1       3.820   2.843  20.138  0.00  0.00    +0.000 A 
ATOM     12  C   UNL     1       3.863   4.092  19.460  0.00  0.00    +0.000 A 
BRANCH  12  13
ATOM     13  C   UNL     1       4.933   4.281  18.444  0.00  0.00    +0.000 A 
ATOM     14  C   UNL     1       6.159   4.893  18.780  0.00  0.00    +0.000 A 
ATOM     15  C   UNL     1       7.178   5.064  17.837  0.00  0.00    +0.000 A 
ATOM     16  C   UNL     1       7.007   4.598  16.536  0.00  0.00    +0.000 A 
ATOM     17  C   UNL     1       5.805   3.999  16.174  0.00  0.00    +0.000 A 
ATOM     18  C   UNL     1       4.770   3.876  17.109  0.00  0.00    +0.000 A 
ENDBRANCH  12  13
ENDBRANCH   5   7
BRANCH   1  19
ATOM     19  C   UNL     1       0.567   9.500  19.627  0.00  0.00    +0.000 C 
BRANCH  19  20
ATOM     20  C   UNL     1       0.806  10.545  20.703  0.00  0.00    +0.000 C 
BRANCH  20  22
ATOM     21  O   UNL     1       0.320   9.533  23.890  0.00  0.00    +0.000 OA
ATOM     22  P   UNL     1       0.542   9.996  22.429  0.00  0.00    +0.000 P 
ATOM     23  O   UNL     1      -0.548   9.080  21.857  0.00  0.00    +0.000 OA
BRANCH  22  24
ATOM     24  O   UNL     1      -0.265  11.369  22.785  0.00  0.00    +0.000 OA
ATOM     25  H   UNL     1      -0.937  10.967  23.395  0.00  0.00    +0.000 HD
ENDBRANCH  22  24
ENDBRANCH  20  22
BRANCH  20  26
ATOM     26  P   UNL     1       0.021  12.180  20.456  0.00  0.00    +0.000 P 
ATOM     27  O   UNL     1       0.619  12.327  19.055  0.00  0.00    +0.000 OA
BRANCH  26  28
ATOM     28  O   UNL     1      -1.480  11.568  20.186  0.00  0.00    +0.000 OA
ATOM     29  H   UNL     1      -2.014  12.289  19.785  0.00  0.00    +0.000 HD
ENDBRANCH  26  28
BRANCH  26  30
ATOM     30  O   UNL     1      -0.722  13.724  20.222  0.00  0.00    +0.000 OA
ATOM     31  H   UNL     1      -1.604  13.496  19.847  0.00  0.00    +0.000 HD
ENDBRANCH  26  30
ENDBRANCH  20  26
ENDBRANCH  19  20
ENDBRANCH   1  19
TORSDOF 9
ENDMDL
MODEL 8
REMARK VINA RESULT:      -7.9      1.216      1.882
REMARK  Name = 
REMARK  9 active torsions:
REMARK  status: ('A' for Active; 'I' for Inactive)
REMARK    1  A    between atoms: P_2  and  O_4
REMARK    2  A    between atoms: P_2  and  C_5
REMARK    3  A    between atoms: C_5  and  C_6
REMARK    4  A    between atoms: C_5  and  P_25
REMARK    5  A    between atoms: C_6  and  N_7
REMARK    6  A    between atoms: C_11  and  C_12
REMARK    7  A    between atoms: C_17  and  C_18
REMARK    8  A    between atoms: P_25  and  O_27
REMARK    9  A    between atoms: P_25  and  O_28
REMARK                            x       y       z     vdW  Elec       q    Type
REMARK                         _______ _______ _______ _____ _____    ______ ____
ROOT
ATOM      1  N   UNL     1       1.595   8.691  19.259  0.00  0.00    +0.000 N 
ATOM      2  C   UNL     1       2.238   9.037  18.122  0.00  0.00    +0.000 A 
ATOM      3  C   UNL     1       2.999   8.108  17.433  0.00  0.00    +0.000 A 
ATOM      4  C   UNL     1       3.093   6.812  17.927  0.00  0.00    +0.000 A 
ATOM      5  C   UNL     1       2.584   6.492  19.186  0.00  0.00    +0.000 A 
ATOM      6  C   UNL     1       1.874   7.509  19.847  0.00  0.00    +0.000 A 
ENDROOT
BRANCH   5   7
ATOM      7  C   UNL     1       2.720   5.138  19.809  0.00  0.00    +0.000 A 
ATOM      8  C   UNL     1       1.684   4.727  20.693  0.00  0.00    +0.000 A 
ATOM      9  C   UNL     1       1.672   3.481  21.322  0.00  0.00    +0.000 A 
ATOM     10  C   UNL     1       2.697   2.591  21.078  0.00  0.00    +0.000 A 
ATOM     11  C   UNL     1       3.739   2.960  20.230  0.00  0.00    +0.000 A 
ATOM     12  C   UNL     1       3.800   4.229  19.591  0.00  0.00    +0.000 A 
BRANCH  12  13
ATOM     13  C   UNL     1       4.986   4.506  18.738  0.00  0.00    +0.000 A 
ATOM     14  C   UNL     1       5.054   4.041  17.408  0.00  0.00    +0.000 A 
ATOM     15  C   UNL     1       6.159   4.306  16.592  0.00  0.00    +0.000 A 
ATOM     16  C   UNL     1       7.215   5.073  17.078  0.00  0.00    +0.000 A 
ATOM     17  C   UNL     1       7.179   5.538  18.388  0.00  0.00    +0.000 A 
ATOM     18  C   UNL     1       6.094   5.226  19.216  0.00  0.00    +0.000 A 
ENDBRANCH  12  13
ENDBRANCH   5   7
BRANCH   1  19
ATOM     19  C   UNL     1       0.536   9.636  19.769  0.00  0.00    +0.000 C 
BRANCH  19  20
ATOM     20  C   UNL     1       0.820  10.575  20.929  0.00  0.00    +0.000 C 
BRANCH  20  22
ATOM     21  O   UNL     1       0.129   9.379  24.012  0.00  0.00    +0.000 OA
ATOM     22  P   UNL     1       0.446   9.926  22.599  0.00  0.00    +0.000 P 
ATOM     23  O   UNL     1      -0.586   9.030  21.901  0.00  0.00    +0.000 OA
BRANCH  22  24
ATOM     24  O   UNL     1      -0.409  11.267  22.972  0.00  0.00    +0.000 OA
ATOM     25  H   UNL     1       0.202  11.927  22.551  0.00  0.00    +0.000 HD
ENDBRANCH  22  24
ENDBRANCH  20  22
BRANCH  20  26
ATOM     26  P   UNL     1       0.186  12.286  20.782  0.00  0.00    +0.000 P 
ATOM     27  O   UNL     1       1.463  12.880  21.382  0.00  0.00    +0.000 OA
BRANCH  26  28
ATOM     28  O   UNL     1       0.426  12.379  19.160  0.00  0.00    +0.000 OA
ATOM     29  H   UNL     1       0.140  13.276  18.880  0.00  0.00    +0.000 HD
ENDBRANCH  26  28
BRANCH  26  30
ATOM     30  O   UNL     1      -0.414  13.902  20.643  0.00  0.00    +0.000 OA
ATOM     31  H   UNL     1      -0.412  14.224  21.574  0.00  0.00    +0.000 HD
ENDBRANCH  26  30
ENDBRANCH  20  26
ENDBRANCH  19  20
ENDBRANCH   1  19
TORSDOF 9
ENDMDL
MODEL 9
REMARK VINA RESULT:      -7.9      1.745      4.015
REMARK  Name = 
REMARK  9 active torsions:
REMARK  status: ('A' for Active; 'I' for Inactive)
REMARK    1  A    between atoms: P_2  and  O_4
REMARK    2  A    between atoms: P_2  and  C_5
REMARK    3  A    between atoms: C_5  and  C_6
REMARK    4  A    between atoms: C_5  and  P_25
REMARK    5  A    between atoms: C_6  and  N_7
REMARK    6  A    between atoms: C_11  and  C_12
REMARK    7  A    between atoms: C_17  and  C_18
REMARK    8  A    between atoms: P_25  and  O_27
REMARK    9  A    between atoms: P_25  and  O_28
REMARK                            x       y       z     vdW  Elec       q    Type
REMARK                         _______ _______ _______ _____ _____    ______ ____
ROOT
ATOM      1  N   UNL     1       1.159   9.375  18.760  0.00  0.00    +0.000 N 
ATOM      2  C   UNL     1       0.874   9.130  20.058  0.00  0.00    +0.000 A 
ATOM      3  C   UNL     1       1.466   8.069  20.721  0.00  0.00    +0.000 A 
ATOM      4  C   UNL     1       2.360   7.257  20.033  0.00  0.00    +0.000 A 
ATOM      5  C   UNL     1       2.525   7.390  18.654  0.00  0.00    +0.000 A 
ATOM      6  C   UNL     1       1.843   8.457  18.046  0.00  0.00    +0.000 A 
ENDROOT
BRANCH   5   7
ATOM      7  C   UNL     1       3.413   6.499  17.842  0.00  0.00    +0.000 A 
ATOM      8  C   UNL     1       4.213   7.121  16.844  0.00  0.00    +0.000 A 
ATOM      9  C   UNL     1       5.102   6.414  16.033  0.00  0.00    +0.000 A 
ATOM     10  C   UNL     1       5.232   5.051  16.201  0.00  0.00    +0.000 A 
ATOM     11  C   UNL     1       4.454   4.401  17.156  0.00  0.00    +0.000 A 
ATOM     12  C   UNL     1       3.520   5.082  17.984  0.00  0.00    +0.000 A 
BRANCH  12  13
ATOM     13  C   UNL     1       2.730   4.261  18.940  0.00  0.00    +0.000 A 
ATOM     14  C   UNL     1       1.426   3.824  18.622  0.00  0.00    +0.000 A 
ATOM     15  C   UNL     1       0.678   3.040  19.508  0.00  0.00    +0.000 A 
ATOM     16  C   UNL     1       1.229   2.647  20.725  0.00  0.00    +0.000 A 
ATOM     17  C   UNL     1       2.508   3.070  21.068  0.00  0.00    +0.000 A 
ATOM     18  C   UNL     1       3.232   3.896  20.199  0.00  0.00    +0.000 A 
ENDBRANCH  12  13
ENDBRANCH   5   7
BRANCH   1  19
ATOM     19  C   UNL     1       0.747  10.714  18.202  0.00  0.00    +0.000 C 
BRANCH  19  20
ATOM     20  C   UNL     1       0.898  11.983  19.024  0.00  0.00    +0.000 C 
BRANCH  20  22
ATOM     21  O   UNL     1      -1.972  13.423  20.074  0.00  0.00    +0.000 OA
ATOM     22  P   UNL     1      -0.657  12.762  19.592  0.00  0.00    +0.000 P 
ATOM     23  O   UNL     1      -1.157  12.558  18.156  0.00  0.00    +0.000 OA
BRANCH  22  24
ATOM     24  O   UNL     1       0.024  14.245  19.548  0.00  0.00    +0.000 OA
ATOM     25  H   UNL     1       0.635  14.127  20.322  0.00  0.00    +0.000 HD
ENDBRANCH  22  24
ENDBRANCH  20  22
BRANCH  20  26
ATOM     26  P   UNL     1       2.019  13.269  18.360  0.00  0.00    +0.000 P 
ATOM     27  O   UNL     1       2.834  13.318  19.655  0.00  0.00    +0.000 OA
BRANCH  26  28
ATOM     28  O   UNL     1       2.857  12.233  17.399  0.00  0.00    +0.000 OA
ATOM     29  H   UNL     1       3.774  12.580  17.338  0.00  0.00    +0.000 HD
ENDBRANCH  26  28
BRANCH  26  30
ATOM     30  O   UNL     1       3.078  14.483  17.732  0.00  0.00    +0.000 OA
ATOM     31  H   UNL     1       3.412  14.082  16.896  0.00  0.00    +0.000 HD
ENDBRANCH  26  30
ENDBRANCH  20  26
ENDBRANCH  19  20
ENDBRANCH   1  19
TORSDOF 9
ENDMDL
