MODEL 1
REMARK VINA RESULT:      -7.5      0.000      0.000
REMARK  Name = 
REMARK  4 active torsions:
REMARK  status: ('A' for Active; 'I' for Inactive)
REMARK    1  A    between atoms: C_1  and  N_2
REMARK    2  A    between atoms: N_2  and  C_13
REMARK    3  A    between atoms: C_3  and  C_5
REMARK    4  A    between atoms: C_18  and  N_19
REMARK                            x       y       z     vdW  Elec       q    Type
REMARK                         _______ _______ _______ _____ _____    ______ ____
ROOT
ATOM      1  C   UNL     1       2.613   7.865  17.709  0.00  0.00    +0.000 C 
ATOM      2  N   UNL     1       2.356   6.950  18.815  0.00  0.00    +0.000 N 
ATOM      3  C   UNL     1       1.794   7.314  20.053  0.00  0.00    +0.000 C 
ATOM      4  O   UNL     1       1.779   6.560  21.022  0.00  0.00    +0.000 OA
ENDROOT
BRANCH   3   5
ATOM      5  C   UNL     1       1.208   8.680  20.273  0.00  0.00    +0.000 A 
ATOM      6  C   UNL     1       1.217   9.683  19.298  0.00  0.00    +0.000 A 
ATOM      7  C   UNL     1       0.679  10.948  19.565  0.00  0.00    +0.000 A 
ATOM      8  C   UNL     1       0.052  11.200  20.788  0.00  0.00    +0.000 A 
ATOM      9 CL   UNL     1      -0.600  12.782  21.042  0.00  0.00    +0.000 Cl
ATOM     10  C   UNL     1      -0.043  10.181  21.741  0.00  0.00    +0.000 A 
ATOM     11 CL   UNL     1      -0.879  10.397  23.236  0.00  0.00    +0.000 Cl
ATOM     12  C   UNL     1       0.541   8.933  21.486  0.00  0.00    +0.000 A 
ENDBRANCH   3   5
BRANCH   2  13
ATOM     13  C   UNL     1       2.830   5.549  18.600  0.00  0.00    +0.000 C 
ATOM     14  C   UNL     1       1.655   4.647  18.175  0.00  0.00    +0.000 C 
ATOM     15  C   UNL     1       2.104   3.216  17.923  0.00  0.00    +0.000 C 
ATOM     16  C   UNL     1       3.113   3.194  16.791  0.00  0.00    +0.000 C 
ATOM     17  C   UNL     1       4.358   3.983  17.164  0.00  0.00    +0.000 C 
ATOM     18  C   UNL     1       4.105   5.423  17.679  0.00  0.00    +0.000 C 
BRANCH  18  19
ATOM     19  N   UNL     1       5.316   6.029  18.320  0.00  0.00    +0.000 NA
ATOM     20  C   UNL     1       6.089   6.893  17.415  0.00  0.00    +0.000 C 
ATOM     21  C   UNL     1       7.231   6.046  16.883  0.00  0.00    +0.000 C 
ATOM     22  C   UNL     1       7.545   5.110  18.031  0.00  0.00    +0.000 C 
ATOM     23  C   UNL     1       6.277   5.064  18.880  0.00  0.00    +0.000 C 
ENDBRANCH  18  19
ENDBRANCH   2  13
TORSDOF 3
ENDMDL
MODEL 2
REMARK VINA RESULT:      -7.2      3.657      7.730
REMARK  Name = 
REMARK  4 active torsions:
REMARK  status: ('A' for Active; 'I' for Inactive)
REMARK    1  A    between atoms: C_1  and  N_2
REMARK    2  A    between atoms: N_2  and  C_13
REMARK    3  A    between atoms: C_3  and  C_5
REMARK    4  A    between atoms: C_18  and  N_19
REMARK                            x       y       z     vdW  Elec       q    Type
REMARK                         _______ _______ _______ _____ _____    ______ ____
ROOT
ATOM      1  C   UNL     1       1.456   9.301  17.834  0.00  0.00    +0.000 C 
ATOM      2  N   UNL     1       1.108   9.474  19.239  0.00  0.00    +0.000 N 
ATOM      3  C   UNL     1       1.249   8.488  20.235  0.00  0.00    +0.000 C 
ATOM      4  O   UNL     1       0.762   8.604  21.356  0.00  0.00    +0.000 OA
ENDROOT
BRANCH   3   5
ATOM      5  C   UNL     1       1.979   7.204  19.964  0.00  0.00    +0.000 A 
ATOM      6  C   UNL     1       3.006   7.090  19.020  0.00  0.00    +0.000 A 
ATOM      7  C   UNL     1       3.636   5.861  18.790  0.00  0.00    +0.000 A 
ATOM      8  C   UNL     1       3.301   4.745  19.560  0.00  0.00    +0.000 A 
ATOM      9 CL   UNL     1       4.130   3.264  19.227  0.00  0.00    +0.000 Cl
ATOM     10  C   UNL     1       2.338   4.863  20.567  0.00  0.00    +0.000 A 
ATOM     11 CL   UNL     1       1.938   3.547  21.613  0.00  0.00    +0.000 Cl
ATOM     12  C   UNL     1       1.677   6.082  20.759  0.00  0.00    +0.000 A 
ENDBRANCH   3   5
BRANCH   2  13
ATOM     13  C   UNL     1       0.470  10.782  19.578  0.00  0.00    +0.000 C 
ATOM     14  C   UNL     1       1.537  11.788  20.051  0.00  0.00    +0.000 C 
ATOM     15  C   UNL     1       0.927  13.142  20.382  0.00  0.00    +0.000 C 
ATOM     16  C   UNL     1       0.287  13.727  19.138  0.00  0.00    +0.000 C 
ATOM     17  C   UNL     1      -0.851  12.842  18.652  0.00  0.00    +0.000 C 
ATOM     18  C   UNL     1      -0.499  11.345  18.467  0.00  0.00    +0.000 C 
BRANCH  18  19
ATOM     19  N   UNL     1      -1.712  10.482  18.298  0.00  0.00    +0.000 NA
ATOM     20  C   UNL     1      -1.807   9.857  16.970  0.00  0.00    +0.000 C 
ATOM     21  C   UNL     1      -2.746  10.724  16.153  0.00  0.00    +0.000 C 
ATOM     22  C   UNL     1      -3.722  11.260  17.180  0.00  0.00    +0.000 C 
ATOM     23  C   UNL     1      -2.999  11.162  18.521  0.00  0.00    +0.000 C 
ENDBRANCH  18  19
ENDBRANCH   2  13
TORSDOF 3
ENDMDL
MODEL 3
REMARK VINA RESULT:      -7.2      1.702      3.475
REMARK  Name = 
REMARK  4 active torsions:
REMARK  status: ('A' for Active; 'I' for Inactive)
REMARK    1  A    between atoms: C_1  and  N_2
REMARK    2  A    between atoms: N_2  and  C_13
REMARK    3  A    between atoms: C_3  and  C_5
REMARK    4  A    between atoms: C_18  and  N_19
REMARK                            x       y       z     vdW  Elec       q    Type
REMARK                         _______ _______ _______ _____ _____    ______ ____
ROOT
ATOM      1  C   UNL     1       2.224   7.240  20.463  0.00  0.00    +0.000 C 
ATOM      2  N   UNL     1       2.237   7.628  19.058  0.00  0.00    +0.000 N 
ATOM      3  C   UNL     1       1.661   8.802  18.537  0.00  0.00    +0.000 C 
ATOM      4  O   UNL     1       1.519   8.992  17.332  0.00  0.00    +0.000 OA
ENDROOT
BRANCH   3   5
ATOM      5  C   UNL     1       1.145   9.885  19.440  0.00  0.00    +0.000 A 
ATOM      6  C   UNL     1       1.169  11.242  19.101  0.00  0.00    +0.000 A 
ATOM      7  C   UNL     1       0.697  12.213  19.993  0.00  0.00    +0.000 A 
ATOM      8  C   UNL     1       0.120  11.831  21.207  0.00  0.00    +0.000 A 
ATOM      9 CL   UNL     1      -0.451  13.085  22.252  0.00  0.00    +0.000 Cl
ATOM     10  C   UNL     1       0.009  10.473  21.522  0.00  0.00    +0.000 A 
ATOM     11 CL   UNL     1      -0.771   9.928  22.964  0.00  0.00    +0.000 Cl
ATOM     12  C   UNL     1       0.527   9.510  20.648  0.00  0.00    +0.000 A 
ENDBRANCH   3   5
BRANCH   2  13
ATOM     13  C   UNL     1       2.836   6.622  18.129  0.00  0.00    +0.000 C 
ATOM     14  C   UNL     1       4.184   7.135  17.585  0.00  0.00    +0.000 C 
ATOM     15  C   UNL     1       4.838   6.126  16.654  0.00  0.00    +0.000 C 
ATOM     16  C   UNL     1       5.125   4.846  17.415  0.00  0.00    +0.000 C 
ATOM     17  C   UNL     1       3.833   4.212  17.909  0.00  0.00    +0.000 C 
ATOM     18  C   UNL     1       2.890   5.153  18.701  0.00  0.00    +0.000 C 
BRANCH  18  19
ATOM     19  N   UNL     1       1.519   4.576  18.884  0.00  0.00    +0.000 NA
ATOM     20  C   UNL     1       1.208   4.233  20.280  0.00  0.00    +0.000 C 
ATOM     21  C   UNL     1       1.466   2.745  20.424  0.00  0.00    +0.000 C 
ATOM     22  C   UNL     1       1.118   2.188  19.059  0.00  0.00    +0.000 C 
ATOM     23  C   UNL     1       1.239   3.365  18.095  0.00  0.00    +0.000 C 
ENDBRANCH  18  19
ENDBRANCH   2  13
TORSDOF 3
ENDMDL
MODEL 4
REMARK VINA RESULT:      -7.1      3.894      7.608
REMARK  Name = 
REMARK  4 active torsions:
REMARK  status: ('A' for Active; 'I' for Inactive)
REMARK    1  A    between atoms: C_1  and  N_2
REMARK    2  A    between atoms: N_2  and  C_13
REMARK    3  A    between atoms: C_3  and  C_5
REMARK    4  A    between atoms: C_18  and  N_19
REMARK                            x       y       z     vdW  Elec       q    Type
REMARK                         _______ _______ _______ _____ _____    ______ ____
ROOT
ATOM      1  C   UNL     1       1.029   9.035  20.726  0.00  0.00    +0.000 C 
ATOM      2  N   UNL     1       1.074   9.455  19.330  0.00  0.00    +0.000 N 
ATOM      3  C   UNL     1       1.863   8.856  18.330  0.00  0.00    +0.000 C 
ATOM      4  O   UNL     1       2.023   9.360  17.222  0.00  0.00    +0.000 OA
ENDROOT
BRANCH   3   5
ATOM      5  C   UNL     1       2.594   7.568  18.579  0.00  0.00    +0.000 A 
ATOM      6  C   UNL     1       2.258   6.683  19.610  0.00  0.00    +0.000 A 
ATOM      7  C   UNL     1       2.991   5.507  19.812  0.00  0.00    +0.000 A 
ATOM      8  C   UNL     1       4.021   5.161  18.934  0.00  0.00    +0.000 A 
ATOM      9 CL   UNL     1       4.873   3.687  19.241  0.00  0.00    +0.000 Cl
ATOM     10  C   UNL     1       4.311   5.991  17.847  0.00  0.00    +0.000 A 
ATOM     11 CL   UNL     1       5.512   5.580  16.675  0.00  0.00    +0.000 Cl
ATOM     12  C   UNL     1       3.608   7.190  17.679  0.00  0.00    +0.000 A 
ENDBRANCH   3   5
BRANCH   2  13
ATOM     13  C   UNL     1       0.275  10.677  19.011  0.00  0.00    +0.000 C 
ATOM     14  C   UNL     1      -1.217  10.318  18.872  0.00  0.00    +0.000 C 
ATOM     15  C   UNL     1      -2.066  11.544  18.571  0.00  0.00    +0.000 C 
ATOM     16  C   UNL     1      -1.952  12.533  19.716  0.00  0.00    +0.000 C 
ATOM     17  C   UNL     1      -0.519  13.020  19.865  0.00  0.00    +0.000 C 
ATOM     18  C   UNL     1       0.557  11.908  19.957  0.00  0.00    +0.000 C 
BRANCH  18  19
ATOM     19  N   UNL     1       1.948  12.435  19.786  0.00  0.00    +0.000 NA
ATOM     20  C   UNL     1       2.200  13.681  20.526  0.00  0.00    +0.000 C 
ATOM     21  C   UNL     1       2.029  14.814  19.532  0.00  0.00    +0.000 C 
ATOM     22  C   UNL     1       2.490  14.211  18.221  0.00  0.00    +0.000 C 
ATOM     23  C   UNL     1       2.350  12.701  18.394  0.00  0.00    +0.000 C 
ENDBRANCH  18  19
ENDBRANCH   2  13
TORSDOF 3
ENDMDL
MODEL 5
REMARK VINA RESULT:      -7.1      0.700      1.473
REMARK  Name = 
REMARK  4 active torsions:
REMARK  status: ('A' for Active; 'I' for Inactive)
REMARK    1  A    between atoms: C_1  and  N_2
REMARK    2  A    between atoms: N_2  and  C_13
REMARK    3  A    between atoms: C_3  and  C_5
REMARK    4  A    between atoms: C_18  and  N_19
REMARK                            x       y       z     vdW  Elec       q    Type
REMARK                         _______ _______ _______ _____ _____    ______ ____
ROOT
ATOM      1  C   UNL     1       2.620   7.847  18.006  0.00  0.00    +0.000 C 
ATOM      2  N   UNL     1       2.377   6.816  19.009  0.00  0.00    +0.000 N 
ATOM      3  C   UNL     1       1.837   7.045  20.289  0.00  0.00    +0.000 C 
ATOM      4  O   UNL     1       1.835   6.188  21.170  0.00  0.00    +0.000 OA
ENDROOT
BRANCH   3   5
ATOM      5  C   UNL     1       1.261   8.379  20.666  0.00  0.00    +0.000 A 
ATOM      6  C   UNL     1       1.034   8.769  21.990  0.00  0.00    +0.000 A 
ATOM      7  C   UNL     1       0.470  10.017  22.284  0.00  0.00    +0.000 A 
ATOM      8  C   UNL     1       0.200  10.925  21.256  0.00  0.00    +0.000 A 
ATOM      9 CL   UNL     1      -0.485  12.451  21.696  0.00  0.00    +0.000 Cl
ATOM     10  C   UNL     1       0.502  10.584  19.935  0.00  0.00    +0.000 A 
ATOM     11 CL   UNL     1       0.275  11.690  18.627  0.00  0.00    +0.000 Cl
ATOM     12  C   UNL     1       1.020   9.316  19.643  0.00  0.00    +0.000 A 
ENDBRANCH   3   5
BRANCH   2  13
ATOM     13  C   UNL     1       2.843   5.446  18.635  0.00  0.00    +0.000 C 
ATOM     14  C   UNL     1       1.648   4.582  18.188  0.00  0.00    +0.000 C 
ATOM     15  C   UNL     1       2.087   3.185  17.775  0.00  0.00    +0.000 C 
ATOM     16  C   UNL     1       3.033   3.279  16.593  0.00  0.00    +0.000 C 
ATOM     17  C   UNL     1       4.294   4.039  16.974  0.00  0.00    +0.000 C 
ATOM     18  C   UNL     1       4.066   5.420  17.639  0.00  0.00    +0.000 C 
BRANCH  18  19
ATOM     19  N   UNL     1       5.309   5.970  18.270  0.00  0.00    +0.000 NA
ATOM     20  C   UNL     1       6.095   6.826  17.369  0.00  0.00    +0.000 C 
ATOM     21  C   UNL     1       7.197   5.953  16.798  0.00  0.00    +0.000 C 
ATOM     22  C   UNL     1       7.499   4.982  17.921  0.00  0.00    +0.000 C 
ATOM     23  C   UNL     1       6.246   4.961  18.792  0.00  0.00    +0.000 C 
ENDBRANCH  18  19
ENDBRANCH   2  13
TORSDOF 3
ENDMDL
MODEL 6
REMARK VINA RESULT:      -7.1      3.531      7.328
REMARK  Name = 
REMARK  4 active torsions:
REMARK  status: ('A' for Active; 'I' for Inactive)
REMARK    1  A    between atoms: C_1  and  N_2
REMARK    2  A    between atoms: N_2  and  C_13
REMARK    3  A    between atoms: C_3  and  C_5
REMARK    4  A    between atoms: C_18  and  N_19
REMARK                            x       y       z     vdW  Elec       q    Type
REMARK                         _______ _______ _______ _____ _____    ______ ____
ROOT
ATOM      1  C   UNL     1       1.045   8.963  20.658  0.00  0.00    +0.000 C 
ATOM      2  N   UNL     1       1.095   9.393  19.265  0.00  0.00    +0.000 N 
ATOM      3  C   UNL     1       1.884   8.798  18.262  0.00  0.00    +0.000 C 
ATOM      4  O   UNL     1       2.050   9.310  17.158  0.00  0.00    +0.000 OA
ENDROOT
BRANCH   3   5
ATOM      5  C   UNL     1       2.609   7.505  18.504  0.00  0.00    +0.000 A 
ATOM      6  C   UNL     1       3.742   7.115  17.782  0.00  0.00    +0.000 A 
ATOM      7  C   UNL     1       4.364   5.885  18.034  0.00  0.00    +0.000 A 
ATOM      8  C   UNL     1       3.906   5.065  19.068  0.00  0.00    +0.000 A 
ATOM      9 CL   UNL     1       4.732   3.567  19.326  0.00  0.00    +0.000 Cl
ATOM     10  C   UNL     1       2.829   5.481  19.856  0.00  0.00    +0.000 A 
ATOM     11 CL   UNL     1       2.268   4.557  21.204  0.00  0.00    +0.000 Cl
ATOM     12  C   UNL     1       2.181   6.688  19.568  0.00  0.00    +0.000 A 
ENDBRANCH   3   5
BRANCH   2  13
ATOM     13  C   UNL     1       0.303  10.621  18.953  0.00  0.00    +0.000 C 
ATOM     14  C   UNL     1      -1.191  10.271  18.815  0.00  0.00    +0.000 C 
ATOM     15  C   UNL     1      -2.035  11.502  18.521  0.00  0.00    +0.000 C 
ATOM     16  C   UNL     1      -1.913  12.485  19.669  0.00  0.00    +0.000 C 
ATOM     17  C   UNL     1      -0.477  12.964  19.818  0.00  0.00    +0.000 C 
ATOM     18  C   UNL     1       0.593  11.847  19.903  0.00  0.00    +0.000 C 
BRANCH  18  19
ATOM     19  N   UNL     1       1.987  12.367  19.732  0.00  0.00    +0.000 NA
ATOM     20  C   UNL     1       2.244  13.613  20.469  0.00  0.00    +0.000 C 
ATOM     21  C   UNL     1       2.078  14.745  19.472  0.00  0.00    +0.000 C 
ATOM     22  C   UNL     1       2.538  14.136  18.163  0.00  0.00    +0.000 C 
ATOM     23  C   UNL     1       2.391  12.627  18.340  0.00  0.00    +0.000 C 
ENDBRANCH  18  19
ENDBRANCH   2  13
TORSDOF 3
ENDMDL
MODEL 7
REMARK VINA RESULT:      -7.1      1.982      3.803
REMARK  Name = 
REMARK  4 active torsions:
REMARK  status: ('A' for Active; 'I' for Inactive)
REMARK    1  A    between atoms: C_1  and  N_2
REMARK    2  A    between atoms: N_2  and  C_13
REMARK    3  A    between atoms: C_3  and  C_5
REMARK    4  A    between atoms: C_18  and  N_19
REMARK                            x       y       z     vdW  Elec       q    Type
REMARK                         _______ _______ _______ _____ _____    ______ ____
ROOT
ATOM      1  C   UNL     1       1.810   7.562  20.480  0.00  0.00    +0.000 C 
ATOM      2  N   UNL     1       2.079   7.813  19.069  0.00  0.00    +0.000 N 
ATOM      3  C   UNL     1       1.559   8.889  18.324  0.00  0.00    +0.000 C 
ATOM      4  O   UNL     1       1.647   8.952  17.101  0.00  0.00    +0.000 OA
ENDROOT
BRANCH   3   5
ATOM      5  C   UNL     1       0.822  10.015  18.991  0.00  0.00    +0.000 A 
ATOM      6  C   UNL     1       1.427  10.901  19.889  0.00  0.00    +0.000 A 
ATOM      7  C   UNL     1       0.685  11.919  20.501  0.00  0.00    +0.000 A 
ATOM      8  C   UNL     1      -0.656  12.114  20.160  0.00  0.00    +0.000 A 
ATOM      9 CL   UNL     1      -1.504  13.398  20.949  0.00  0.00    +0.000 Cl
ATOM     10  C   UNL     1      -1.252  11.291  19.199  0.00  0.00    +0.000 A 
ATOM     11 CL   UNL     1      -2.878  11.531  18.668  0.00  0.00    +0.000 Cl
ATOM     12  C   UNL     1      -0.519  10.245  18.627  0.00  0.00    +0.000 A 
ENDBRANCH   3   5
BRANCH   2  13
ATOM     13  C   UNL     1       2.899   6.767  18.385  0.00  0.00    +0.000 C 
ATOM     14  C   UNL     1       4.303   7.316  18.063  0.00  0.00    +0.000 C 
ATOM     15  C   UNL     1       5.176   6.270  17.388  0.00  0.00    +0.000 C 
ATOM     16  C   UNL     1       5.365   5.089  18.320  0.00  0.00    +0.000 C 
ATOM     17  C   UNL     1       4.032   4.419  18.617  0.00  0.00    +0.000 C 
ATOM     18  C   UNL     1       2.906   5.365  19.108  0.00  0.00    +0.000 C 
BRANCH  18  19
ATOM     19  N   UNL     1       1.555   4.718  19.081  0.00  0.00    +0.000 NA
ATOM     20  C   UNL     1       1.122   4.206  20.390  0.00  0.00    +0.000 C 
ATOM     21  C   UNL     1       1.440   2.722  20.398  0.00  0.00    +0.000 C 
ATOM     22  C   UNL     1       1.261   2.311  18.951  0.00  0.00    +0.000 C 
ATOM     23  C   UNL     1       1.418   3.594  18.139  0.00  0.00    +0.000 C 
ENDBRANCH  18  19
ENDBRANCH   2  13
TORSDOF 3
ENDMDL
MODEL 8
REMARK VINA RESULT:      -7.1      1.905      3.811
REMARK  Name = 
REMARK  4 active torsions:
REMARK  status: ('A' for Active; 'I' for Inactive)
REMARK    1  A    between atoms: C_1  and  N_2
REMARK    2  A    between atoms: N_2  and  C_13
REMARK    3  A    between atoms: C_3  and  C_5
REMARK    4  A    between atoms: C_18  and  N_19
REMARK                            x       y       z     vdW  Elec       q    Type
REMARK                         _______ _______ _______ _____ _____    ______ ____
ROOT
ATOM      1  C   UNL     1       2.077   7.436  20.459  0.00  0.00    +0.000 C 
ATOM      2  N   UNL     1       2.114   7.753  19.036  0.00  0.00    +0.000 N 
ATOM      3  C   UNL     1       1.518   8.883  18.443  0.00  0.00    +0.000 C 
ATOM      4  O   UNL     1       1.401   9.009  17.227  0.00  0.00    +0.000 OA
ENDROOT
BRANCH   3   5
ATOM      5  C   UNL     1       0.950   9.995  19.279  0.00  0.00    +0.000 A 
ATOM      6  C   UNL     1      -0.072   9.805  20.214  0.00  0.00    +0.000 A 
ATOM      7  C   UNL     1      -0.581  10.883  20.949  0.00  0.00    +0.000 A 
ATOM      8  C   UNL     1      -0.017  12.154  20.814  0.00  0.00    +0.000 A 
ATOM      9 CL   UNL     1      -0.691  13.433  21.763  0.00  0.00    +0.000 Cl
ATOM     10  C   UNL     1       1.064  12.343  19.947  0.00  0.00    +0.000 A 
ATOM     11 CL   UNL     1       1.864  13.866  19.797  0.00  0.00    +0.000 Cl
ATOM     12  C   UNL     1       1.536  11.271  19.179  0.00  0.00    +0.000 A 
ENDBRANCH   3   5
BRANCH   2  13
ATOM     13  C   UNL     1       2.764   6.720  18.173  0.00  0.00    +0.000 C 
ATOM     14  C   UNL     1       4.112   7.242  17.640  0.00  0.00    +0.000 C 
ATOM     15  C   UNL     1       4.816   6.207  16.776  0.00  0.00    +0.000 C 
ATOM     16  C   UNL     1       5.115   4.973  17.606  0.00  0.00    +0.000 C 
ATOM     17  C   UNL     1       3.827   4.330  18.097  0.00  0.00    +0.000 C 
ATOM     18  C   UNL     1       2.839   5.282  18.818  0.00  0.00    +0.000 C 
BRANCH  18  19
ATOM     19  N   UNL     1       1.479   4.679  18.994  0.00  0.00    +0.000 NA
ATOM     20  C   UNL     1       1.191   4.272  20.377  0.00  0.00    +0.000 C 
ATOM     21  C   UNL     1       1.472   2.783  20.454  0.00  0.00    +0.000 C 
ATOM     22  C   UNL     1       1.114   2.280  19.072  0.00  0.00    +0.000 C 
ATOM     23  C   UNL     1       1.205   3.498  18.157  0.00  0.00    +0.000 C 
ENDBRANCH  18  19
ENDBRANCH   2  13
TORSDOF 3
ENDMDL
MODEL 9
REMARK VINA RESULT:      -7.0      4.051      8.036
REMARK  Name = 
REMARK  4 active torsions:
REMARK  status: ('A' for Active; 'I' for Inactive)
REMARK    1  A    between atoms: C_1  and  N_2
REMARK    2  A    between atoms: N_2  and  C_13
REMARK    3  A    between atoms: C_3  and  C_5
REMARK    4  A    between atoms: C_18  and  N_19
REMARK                            x       y       z     vdW  Elec       q    Type
REMARK                         _______ _______ _______ _____ _____    ______ ____
ROOT
ATOM      1  C   UNL     1       1.028   8.705  20.683  0.00  0.00    +0.000 C 
ATOM      2  N   UNL     1       1.114   9.554  19.500  0.00  0.00    +0.000 N 
ATOM      3  C   UNL     1       1.815   9.232  18.322  0.00  0.00    +0.000 C 
ATOM      4  O   UNL     1       2.028  10.051  17.433  0.00  0.00    +0.000 OA
ENDROOT
BRANCH   3   5
ATOM      5  C   UNL     1       2.383   7.859  18.103  0.00  0.00    +0.000 A 
ATOM      6  C   UNL     1       1.656   6.684  18.322  0.00  0.00    +0.000 A 
ATOM      7  C   UNL     1       2.244   5.429  18.125  0.00  0.00    +0.000 A 
ATOM      8  C   UNL     1       3.547   5.333  17.629  0.00  0.00    +0.000 A 
ATOM      9 CL   UNL     1       4.202   3.749  17.400  0.00  0.00    +0.000 Cl
ATOM     10  C   UNL     1       4.257   6.498  17.322  0.00  0.00    +0.000 A 
ATOM     11 CL   UNL     1       5.837   6.452  16.624  0.00  0.00    +0.000 Cl
ATOM     12  C   UNL     1       3.681   7.750  17.567  0.00  0.00    +0.000 A 
ENDBRANCH   3   5
BRANCH   2  13
ATOM     13  C   UNL     1       0.471  10.896  19.636  0.00  0.00    +0.000 C 
ATOM     14  C   UNL     1       1.518  11.950  20.043  0.00  0.00    +0.000 C 
ATOM     15  C   UNL     1       0.904  13.336  20.167  0.00  0.00    +0.000 C 
ATOM     16  C   UNL     1       0.343  13.764  18.825  0.00  0.00    +0.000 C 
ATOM     17  C   UNL     1      -0.774  12.829  18.386  0.00  0.00    +0.000 C 
ATOM     18  C   UNL     1      -0.426  11.319  18.409  0.00  0.00    +0.000 C 
BRANCH  18  19
ATOM     19  N   UNL     1      -1.636  10.445  18.276  0.00  0.00    +0.000 NA
ATOM     20  C   UNL     1      -1.695   9.712  17.003  0.00  0.00    +0.000 C 
ATOM     21  C   UNL     1      -2.607  10.508  16.090  0.00  0.00    +0.000 C 
ATOM     22  C   UNL     1      -3.612  11.127  17.040  0.00  0.00    +0.000 C 
ATOM     23  C   UNL     1      -2.928  11.141  18.405  0.00  0.00    +0.000 C 
ENDBRANCH  18  19
ENDBRANCH   2  13
TORSDOF 3
ENDMDL
