MODEL 1
REMARK VINA RESULT:      -8.4      0.000      0.000
REMARK  Name = 
REMARK  7 active torsions:
REMARK  status: ('A' for Active; 'I' for Inactive)
REMARK    1  A    between atoms: C_1  and  C_2
REMARK    2  A    between atoms: C_2  and  C_3
REMARK    3  A    between atoms: C_2  and  C_6
REMARK    4  A    between atoms: C_3  and  O_5
REMARK    5  A    between atoms: C_9  and  C_10
REMARK    6  A    between atoms: C_10  and  C_11
REMARK    7  A    between atoms: C_18  and  C_19
REMARK                            x       y       z     vdW  Elec       q    Type
REMARK                         _______ _______ _______ _____ _____    ______ ____
ROOT
ATOM      1  C   UNL     1       3.989   5.736  17.902  0.00  0.00    +0.000 A 
ATOM      2  C   UNL     1       4.391   6.847  17.122  0.00  0.00    +0.000 A 
ATOM      3  C   UNL     1       3.706   8.059  17.153  0.00  0.00    +0.000 A 
ATOM      4  C   UNL     1       2.604   8.216  17.988  0.00  0.00    +0.000 A 
ATOM      5  C   UNL     1       2.186   7.116  18.755  0.00  0.00    +0.000 A 
ATOM      6  C   UNL     1       2.837   5.855  18.725  0.00  0.00    +0.000 A 
ENDROOT
BRANCH   6   7
ATOM      7  C   UNL     1       2.261   4.747  19.540  0.00  0.00    +0.000 A 
ATOM      8  C   UNL     1       2.637   4.533  20.879  0.00  0.00    +0.000 A 
ATOM      9  C   UNL     1       2.081   3.505  21.648  0.00  0.00    +0.000 A 
ATOM     10  C   UNL     1       1.189   2.610  21.070  0.00  0.00    +0.000 A 
ATOM     11  C   UNL     1       0.844   2.754  19.731  0.00  0.00    +0.000 A 
ATOM     12  C   UNL     1       1.358   3.821  18.983  0.00  0.00    +0.000 A 
ENDBRANCH   6   7
BRANCH   1  14
ATOM     13  C   UNL     1       5.154   4.050  16.407  0.00  0.00    +0.000 C 
ATOM     14  C   UNL     1       4.885   4.497  17.849  0.00  0.00    +0.000 C 
BRANCH  14  15
ATOM     15  C   UNL     1       6.183   4.696  18.629  0.00  0.00    +0.000 C 
ATOM     16  O   UNL     1       6.268   5.252  19.712  0.00  0.00    +0.000 OA
BRANCH  15  17
ATOM     17  O   UNL     1       7.279   4.242  17.971  0.00  0.00    +0.000 OA
ATOM     18  H   UNL     1       7.966   4.929  17.849  0.00  0.00    +0.000 HD
ENDBRANCH  15  17
ENDBRANCH  14  15
ENDBRANCH   1  14
BRANCH   4  19
ATOM     19  C   UNL     1       1.836   9.519  17.998  0.00  0.00    +0.000 C 
BRANCH  19  20
ATOM     20  C   UNL     1       0.679   9.585  18.999  0.00  0.00    +0.000 C 
ATOM     21  C   UNL     1       0.914  10.457  20.236  0.00  0.00    +0.000 C 
ATOM     22  C   UNL     1       0.205  11.788  20.003  0.00  0.00    +0.000 C 
ATOM     23  C   UNL     1      -0.933  11.519  19.035  0.00  0.00    +0.000 C 
ATOM     24  C   UNL     1      -0.511  10.252  18.344  0.00  0.00    +0.000 C 
ATOM     25  O   UNL     1      -1.081   9.806  17.358  0.00  0.00    +0.000 OA
ENDBRANCH  19  20
ENDBRANCH   4  19
TORSDOF 6
ENDMDL
MODEL 2
REMARK VINA RESULT:      -8.2      3.684      6.294
REMARK  Name = 
REMARK  7 active torsions:
REMARK  status: ('A' for Active; 'I' for Inactive)
REMARK    1  A    between atoms: C_1  and  C_2
REMARK    2  A    between atoms: C_2  and  C_3
REMARK    3  A    between atoms: C_2  and  C_6
REMARK    4  A    between atoms: C_3  and  O_5
REMARK    5  A    between atoms: C_9  and  C_10
REMARK    6  A    between atoms: C_10  and  C_11
REMARK    7  A    between atoms: C_18  and  C_19
REMARK                            x       y       z     vdW  Elec       q    Type
REMARK                         _______ _______ _______ _____ _____    ______ ____
ROOT
ATOM      1  C   UNL     1       5.743   5.562  17.316  0.00  0.00    +0.000 A 
ATOM      2  C   UNL     1       4.977   5.839  18.474  0.00  0.00    +0.000 A 
ATOM      3  C   UNL     1       3.643   5.455  18.586  0.00  0.00    +0.000 A 
ATOM      4  C   UNL     1       3.028   4.754  17.554  0.00  0.00    +0.000 A 
ATOM      5  C   UNL     1       3.773   4.487  16.393  0.00  0.00    +0.000 A 
ATOM      6  C   UNL     1       5.124   4.892  16.226  0.00  0.00    +0.000 A 
ENDROOT
BRANCH   6   7
ATOM      7  C   UNL     1       5.789   4.602  14.923  0.00  0.00    +0.000 A 
ATOM      8  C   UNL     1       7.000   5.214  14.552  0.00  0.00    +0.000 A 
ATOM      9  C   UNL     1       7.632   4.926  13.338  0.00  0.00    +0.000 A 
ATOM     10  C   UNL     1       7.024   4.074  12.423  0.00  0.00    +0.000 A 
ATOM     11  C   UNL     1       5.796   3.501  12.731  0.00  0.00    +0.000 A 
ATOM     12  C   UNL     1       5.198   3.746  13.974  0.00  0.00    +0.000 A 
ENDBRANCH   6   7
BRANCH   1  14
ATOM     13  C   UNL     1       7.409   7.449  17.631  0.00  0.00    +0.000 C 
ATOM     14  C   UNL     1       7.222   5.952  17.359  0.00  0.00    +0.000 C 
BRANCH  14  15
ATOM     15  C   UNL     1       8.009   5.096  18.350  0.00  0.00    +0.000 C 
ATOM     16  O   UNL     1       8.243   5.404  19.507  0.00  0.00    +0.000 OA
BRANCH  15  17
ATOM     17  O   UNL     1       8.493   3.953  17.803  0.00  0.00    +0.000 OA
ATOM     18  H   UNL     1       8.623   4.014  16.835  0.00  0.00    +0.000 HD
ENDBRANCH  15  17
ENDBRANCH  14  15
ENDBRANCH   1  14
BRANCH   4  19
ATOM     19  C   UNL     1       1.570   4.367  17.658  0.00  0.00    +0.000 C 
BRANCH  19  20
ATOM     20  C   UNL     1       1.288   3.100  18.471  0.00  0.00    +0.000 C 
ATOM     21  C   UNL     1       2.317   1.974  18.331  0.00  0.00    +0.000 C 
ATOM     22  C   UNL     1       3.226   2.025  19.555  0.00  0.00    +0.000 C 
ATOM     23  C   UNL     1       2.423   2.662  20.675  0.00  0.00    +0.000 C 
ATOM     24  C   UNL     1       1.355   3.428  19.946  0.00  0.00    +0.000 C 
ATOM     25  O   UNL     1       0.612   4.229  20.497  0.00  0.00    +0.000 OA
ENDBRANCH  19  20
ENDBRANCH   4  19
TORSDOF 6
ENDMDL
MODEL 3
REMARK VINA RESULT:      -7.8      0.930      1.037
REMARK  Name = 
REMARK  7 active torsions:
REMARK  status: ('A' for Active; 'I' for Inactive)
REMARK    1  A    between atoms: C_1  and  C_2
REMARK    2  A    between atoms: C_2  and  C_3
REMARK    3  A    between atoms: C_2  and  C_6
REMARK    4  A    between atoms: C_3  and  O_5
REMARK    5  A    between atoms: C_9  and  C_10
REMARK    6  A    between atoms: C_10  and  C_11
REMARK    7  A    between atoms: C_18  and  C_19
REMARK                            x       y       z     vdW  Elec       q    Type
REMARK                         _______ _______ _______ _____ _____    ______ ____
ROOT
ATOM      1  C   UNL     1       3.942   5.713  17.897  0.00  0.00    +0.000 A 
ATOM      2  C   UNL     1       4.301   6.814  17.084  0.00  0.00    +0.000 A 
ATOM      3  C   UNL     1       3.548   7.985  17.051  0.00  0.00    +0.000 A 
ATOM      4  C   UNL     1       2.418   8.111  17.851  0.00  0.00    +0.000 A 
ATOM      5  C   UNL     1       2.042   7.019  18.652  0.00  0.00    +0.000 A 
ATOM      6  C   UNL     1       2.764   5.797  18.688  0.00  0.00    +0.000 A 
ENDROOT
BRANCH   6   7
ATOM      7  C   UNL     1       2.230   4.689  19.532  0.00  0.00    +0.000 A 
ATOM      8  C   UNL     1       2.608   4.530  20.878  0.00  0.00    +0.000 A 
ATOM      9  C   UNL     1       2.091   3.502  21.674  0.00  0.00    +0.000 A 
ATOM     10  C   UNL     1       1.240   2.554  21.118  0.00  0.00    +0.000 A 
ATOM     11  C   UNL     1       0.896   2.646  19.775  0.00  0.00    +0.000 A 
ATOM     12  C   UNL     1       1.369   3.711  18.998  0.00  0.00    +0.000 A 
ENDBRANCH   6   7
BRANCH   1  14
ATOM     13  C   UNL     1       5.224   4.028  16.499  0.00  0.00    +0.000 C 
ATOM     14  C   UNL     1       4.908   4.525  17.915  0.00  0.00    +0.000 C 
BRANCH  14  15
ATOM     15  C   UNL     1       6.179   4.835  18.702  0.00  0.00    +0.000 C 
ATOM     16  O   UNL     1       6.230   5.538  19.699  0.00  0.00    +0.000 OA
BRANCH  15  17
ATOM     17  O   UNL     1       7.295   4.296  18.151  0.00  0.00    +0.000 OA
ATOM     18  H   UNL     1       7.908   3.918  18.814  0.00  0.00    +0.000 HD
ENDBRANCH  15  17
ENDBRANCH  14  15
ENDBRANCH   1  14
BRANCH   4  19
ATOM     19  C   UNL     1       1.577   9.367  17.792  0.00  0.00    +0.000 C 
BRANCH  19  20
ATOM     20  C   UNL     1       1.786  10.346  18.950  0.00  0.00    +0.000 C 
ATOM     21  C   UNL     1       1.954  11.818  18.558  0.00  0.00    +0.000 C 
ATOM     22  C   UNL     1       0.616  12.513  18.793  0.00  0.00    +0.000 C 
ATOM     23  C   UNL     1      -0.106  11.727  19.874  0.00  0.00    +0.000 C 
ATOM     24  C   UNL     1       0.543  10.373  19.812  0.00  0.00    +0.000 C 
ATOM     25  O   UNL     1       0.111   9.396  20.408  0.00  0.00    +0.000 OA
ENDBRANCH  19  20
ENDBRANCH   4  19
TORSDOF 6
ENDMDL
MODEL 4
REMARK VINA RESULT:      -7.8      1.186      1.865
REMARK  Name = 
REMARK  7 active torsions:
REMARK  status: ('A' for Active; 'I' for Inactive)
REMARK    1  A    between atoms: C_1  and  C_2
REMARK    2  A    between atoms: C_2  and  C_3
REMARK    3  A    between atoms: C_2  and  C_6
REMARK    4  A    between atoms: C_3  and  O_5
REMARK    5  A    between atoms: C_9  and  C_10
REMARK    6  A    between atoms: C_10  and  C_11
REMARK    7  A    between atoms: C_18  and  C_19
REMARK                            x       y       z     vdW  Elec       q    Type
REMARK                         _______ _______ _______ _____ _____    ______ ____
ROOT
ATOM      1  C   UNL     1       3.341   6.285  18.134  0.00  0.00    +0.000 A 
ATOM      2  C   UNL     1       3.495   7.560  17.538  0.00  0.00    +0.000 A 
ATOM      3  C   UNL     1       2.758   8.665  17.958  0.00  0.00    +0.000 A 
ATOM      4  C   UNL     1       1.857   8.545  19.010  0.00  0.00    +0.000 A 
ATOM      5  C   UNL     1       1.684   7.281  19.599  0.00  0.00    +0.000 A 
ATOM      6  C   UNL     1       2.390   6.123  19.177  0.00  0.00    +0.000 A 
ENDROOT
BRANCH   6   7
ATOM      7  C   UNL     1       2.074   4.826  19.842  0.00  0.00    +0.000 A 
ATOM      8  C   UNL     1       1.323   3.824  19.201  0.00  0.00    +0.000 A 
ATOM      9  C   UNL     1       1.045   2.600  19.818  0.00  0.00    +0.000 A 
ATOM     10  C   UNL     1       1.444   2.377  21.131  0.00  0.00    +0.000 A 
ATOM     11  C   UNL     1       2.134   3.371  21.815  0.00  0.00    +0.000 A 
ATOM     12  C   UNL     1       2.461   4.571  21.171  0.00  0.00    +0.000 A 
ENDBRANCH   6   7
BRANCH   1  14
ATOM     13  C   UNL     1       4.959   5.552  16.323  0.00  0.00    +0.000 C 
ATOM     14  C   UNL     1       4.279   5.179  17.646  0.00  0.00    +0.000 C 
BRANCH  14  15
ATOM     15  C   UNL     1       5.298   4.782  18.712  0.00  0.00    +0.000 C 
ATOM     16  O   UNL     1       6.073   5.551  19.258  0.00  0.00    +0.000 OA
BRANCH  15  17
ATOM     17  O   UNL     1       5.314   3.450  18.969  0.00  0.00    +0.000 OA
ATOM     18  H   UNL     1       5.138   2.904  18.176  0.00  0.00    +0.000 HD
ENDBRANCH  15  17
ENDBRANCH  14  15
ENDBRANCH   1  14
BRANCH   4  19
ATOM     19  C   UNL     1       1.029   9.734  19.445  0.00  0.00    +0.000 C 
BRANCH  19  20
ATOM     20  C   UNL     1       0.326  10.487  18.313  0.00  0.00    +0.000 C 
ATOM     21  C   UNL     1      -0.829   9.745  17.633  0.00  0.00    +0.000 C 
ATOM     22  C   UNL     1      -2.131  10.291  18.210  0.00  0.00    +0.000 C 
ATOM     23  C   UNL     1      -1.846  11.706  18.682  0.00  0.00    +0.000 C 
ATOM     24  C   UNL     1      -0.356  11.714  18.877  0.00  0.00    +0.000 C 
ATOM     25  O   UNL     1       0.242  12.628  19.430  0.00  0.00    +0.000 OA
ENDBRANCH  19  20
ENDBRANCH   4  19
TORSDOF 6
ENDMDL
MODEL 5
REMARK VINA RESULT:      -7.8      2.490      6.821
REMARK  Name = 
REMARK  7 active torsions:
REMARK  status: ('A' for Active; 'I' for Inactive)
REMARK    1  A    between atoms: C_1  and  C_2
REMARK    2  A    between atoms: C_2  and  C_3
REMARK    3  A    between atoms: C_2  and  C_6
REMARK    4  A    between atoms: C_3  and  O_5
REMARK    5  A    between atoms: C_9  and  C_10
REMARK    6  A    between atoms: C_10  and  C_11
REMARK    7  A    between atoms: C_18  and  C_19
REMARK                            x       y       z     vdW  Elec       q    Type
REMARK                         _______ _______ _______ _____ _____    ______ ____
ROOT
ATOM      1  C   UNL     1       2.969   4.594  18.146  0.00  0.00    +0.000 A 
ATOM      2  C   UNL     1       3.700   3.620  17.424  0.00  0.00    +0.000 A 
ATOM      3  C   UNL     1       4.681   3.968  16.498  0.00  0.00    +0.000 A 
ATOM      4  C   UNL     1       4.989   5.306  16.278  0.00  0.00    +0.000 A 
ATOM      5  C   UNL     1       4.260   6.283  16.978  0.00  0.00    +0.000 A 
ATOM      6  C   UNL     1       3.230   5.969  17.903  0.00  0.00    +0.000 A 
ENDROOT
BRANCH   6   7
ATOM      7  C   UNL     1       2.488   7.096  18.537  0.00  0.00    +0.000 A 
ATOM      8  C   UNL     1       2.070   8.221  17.802  0.00  0.00    +0.000 A 
ATOM      9  C   UNL     1       1.357   9.268  18.395  0.00  0.00    +0.000 A 
ATOM     10  C   UNL     1       1.111   9.255  19.763  0.00  0.00    +0.000 A 
ATOM     11  C   UNL     1       1.564   8.189  20.530  0.00  0.00    +0.000 A 
ATOM     12  C   UNL     1       2.226   7.115  19.921  0.00  0.00    +0.000 A 
ENDBRANCH   6   7
BRANCH   1  14
ATOM     13  C   UNL     1       1.028   3.031  18.622  0.00  0.00    +0.000 C 
ATOM     14  C   UNL     1       1.989   4.077  19.201  0.00  0.00    +0.000 C 
BRANCH  14  15
ATOM     15  C   UNL     1       2.710   3.555  20.443  0.00  0.00    +0.000 C 
ATOM     16  O   UNL     1       3.569   2.687  20.439  0.00  0.00    +0.000 OA
BRANCH  15  17
ATOM     17  O   UNL     1       2.261   4.110  21.596  0.00  0.00    +0.000 OA
ATOM     18  H   UNL     1       2.950   4.619  22.071  0.00  0.00    +0.000 HD
ENDBRANCH  15  17
ENDBRANCH  14  15
ENDBRANCH   1  14
BRANCH   4  19
ATOM     19  C   UNL     1       6.029   5.690  15.249  0.00  0.00    +0.000 C 
BRANCH  19  20
ATOM     20  C   UNL     1       6.773   4.517  14.606  0.00  0.00    +0.000 C 
ATOM     21  C   UNL     1       5.894   3.435  13.970  0.00  0.00    +0.000 C 
ATOM     22  C   UNL     1       5.882   3.678  12.464  0.00  0.00    +0.000 C 
ATOM     23  C   UNL     1       7.173   4.402  12.123  0.00  0.00    +0.000 C 
ATOM     24  C   UNL     1       7.581   5.021  13.430  0.00  0.00    +0.000 C 
ATOM     25  O   UNL     1       8.482   5.843  13.529  0.00  0.00    +0.000 OA
ENDBRANCH  19  20
ENDBRANCH   4  19
TORSDOF 6
ENDMDL
MODEL 6
REMARK VINA RESULT:      -7.8      2.411      6.253
REMARK  Name = 
REMARK  7 active torsions:
REMARK  status: ('A' for Active; 'I' for Inactive)
REMARK    1  A    between atoms: C_1  and  C_2
REMARK    2  A    between atoms: C_2  and  C_3
REMARK    3  A    between atoms: C_2  and  C_6
REMARK    4  A    between atoms: C_3  and  O_5
REMARK    5  A    between atoms: C_9  and  C_10
REMARK    6  A    between atoms: C_10  and  C_11
REMARK    7  A    between atoms: C_18  and  C_19
REMARK                            x       y       z     vdW  Elec       q    Type
REMARK                         _______ _______ _______ _____ _____    ______ ____
ROOT
ATOM      1  C   UNL     1       2.909   4.309  19.462  0.00  0.00    +0.000 A 
ATOM      2  C   UNL     1       3.770   3.199  19.290  0.00  0.00    +0.000 A 
ATOM      3  C   UNL     1       5.096   3.348  18.891  0.00  0.00    +0.000 A 
ATOM      4  C   UNL     1       5.622   4.617  18.674  0.00  0.00    +0.000 A 
ATOM      5  C   UNL     1       4.772   5.726  18.826  0.00  0.00    +0.000 A 
ATOM      6  C   UNL     1       3.406   5.613  19.198  0.00  0.00    +0.000 A 
ENDROOT
BRANCH   6   7
ATOM      7  C   UNL     1       2.591   6.860  19.268  0.00  0.00    +0.000 A 
ATOM      8  C   UNL     1       2.429   7.707  18.156  0.00  0.00    +0.000 A 
ATOM      9  C   UNL     1       1.648   8.866  18.218  0.00  0.00    +0.000 A 
ATOM     10  C   UNL     1       1.072   9.253  19.422  0.00  0.00    +0.000 A 
ATOM     11  C   UNL     1       1.264   8.472  20.556  0.00  0.00    +0.000 A 
ATOM     12  C   UNL     1       1.998   7.281  20.473  0.00  0.00    +0.000 A 
ENDBRANCH   6   7
BRANCH   1  14
ATOM     13  C   UNL     1       0.684   3.177  19.009  0.00  0.00    +0.000 C 
ATOM     14  C   UNL     1       1.505   4.015  19.997  0.00  0.00    +0.000 C 
BRANCH  14  15
ATOM     15  C   UNL     1       1.545   3.375  21.383  0.00  0.00    +0.000 C 
ATOM     16  O   UNL     1       2.341   3.663  22.263  0.00  0.00    +0.000 OA
BRANCH  15  17
ATOM     17  O   UNL     1       0.631   2.386  21.543  0.00  0.00    +0.000 OA
ATOM     18  H   UNL     1      -0.173   2.678  22.019  0.00  0.00    +0.000 HD
ENDBRANCH  15  17
ENDBRANCH  14  15
ENDBRANCH   1  14
BRANCH   4  19
ATOM     19  C   UNL     1       7.051   4.782  18.206  0.00  0.00    +0.000 C 
BRANCH  19  20
ATOM     20  C   UNL     1       7.226   4.960  16.696  0.00  0.00    +0.000 C 
ATOM     21  C   UNL     1       6.513   3.930  15.814  0.00  0.00    +0.000 C 
ATOM     22  C   UNL     1       5.232   4.574  15.296  0.00  0.00    +0.000 C 
ATOM     23  C   UNL     1       5.466   6.074  15.281  0.00  0.00    +0.000 C 
ATOM     24  C   UNL     1       6.583   6.262  16.269  0.00  0.00    +0.000 C 
ATOM     25  O   UNL     1       6.939   7.359  16.677  0.00  0.00    +0.000 OA
ENDBRANCH  19  20
ENDBRANCH   4  19
TORSDOF 6
ENDMDL
MODEL 7
REMARK VINA RESULT:      -7.7      2.536      4.405
REMARK  Name = 
REMARK  7 active torsions:
REMARK  status: ('A' for Active; 'I' for Inactive)
REMARK    1  A    between atoms: C_1  and  C_2
REMARK    2  A    between atoms: C_2  and  C_3
REMARK    3  A    between atoms: C_2  and  C_6
REMARK    4  A    between atoms: C_3  and  O_5
REMARK    5  A    between atoms: C_9  and  C_10
REMARK    6  A    between atoms: C_10  and  C_11
REMARK    7  A    between atoms: C_18  and  C_19
REMARK                            x       y       z     vdW  Elec       q    Type
REMARK                         _______ _______ _______ _____ _____    ______ ____
ROOT
ATOM      1  C   UNL     1       3.503   3.972  19.774  0.00  0.00    +0.000 A 
ATOM      2  C   UNL     1       2.350   3.770  20.569  0.00  0.00    +0.000 A 
ATOM      3  C   UNL     1       1.509   4.820  20.932  0.00  0.00    +0.000 A 
ATOM      4  C   UNL     1       1.775   6.111  20.491  0.00  0.00    +0.000 A 
ATOM      5  C   UNL     1       2.926   6.328  19.714  0.00  0.00    +0.000 A 
ATOM      6  C   UNL     1       3.825   5.290  19.352  0.00  0.00    +0.000 A 
ENDROOT
BRANCH   6   7
ATOM      7  C   UNL     1       5.044   5.656  18.575  0.00  0.00    +0.000 A 
ATOM      8  C   UNL     1       6.334   5.583  19.132  0.00  0.00    +0.000 A 
ATOM      9  C   UNL     1       7.477   5.908  18.396  0.00  0.00    +0.000 A 
ATOM     10  C   UNL     1       7.354   6.394  17.100  0.00  0.00    +0.000 A 
ATOM     11  C   UNL     1       6.091   6.539  16.539  0.00  0.00    +0.000 A 
ATOM     12  C   UNL     1       4.953   6.156  17.261  0.00  0.00    +0.000 A 
ENDBRANCH   6   7
BRANCH   1  14
ATOM     13  C   UNL     1       4.646   1.855  20.578  0.00  0.00    +0.000 C 
ATOM     14  C   UNL     1       4.286   2.722  19.365  0.00  0.00    +0.000 C 
BRANCH  14  15
ATOM     15  C   UNL     1       3.556   1.917  18.292  0.00  0.00    +0.000 C 
ATOM     16  O   UNL     1       2.650   2.343  17.595  0.00  0.00    +0.000 OA
BRANCH  15  17
ATOM     17  O   UNL     1       3.973   0.628  18.214  0.00  0.00    +0.000 OA
ATOM     18  H   UNL     1       3.388   0.005  18.692  0.00  0.00    +0.000 HD
ENDBRANCH  15  17
ENDBRANCH  14  15
ENDBRANCH   1  14
BRANCH   4  19
ATOM     19  C   UNL     1       0.885   7.259  20.913  0.00  0.00    +0.000 C 
BRANCH  19  20
ATOM     20  C   UNL     1       1.454   8.656  20.647  0.00  0.00    +0.000 C 
ATOM     21  C   UNL     1       0.929   9.365  19.394  0.00  0.00    +0.000 C 
ATOM     22  C   UNL     1      -0.133  10.364  19.841  0.00  0.00    +0.000 C 
ATOM     23  C   UNL     1       0.191  10.742  21.276  0.00  0.00    +0.000 C 
ATOM     24  C   UNL     1       1.026   9.589  21.759  0.00  0.00    +0.000 C 
ATOM     25  O   UNL     1       1.334   9.431  22.932  0.00  0.00    +0.000 OA
ENDBRANCH  19  20
ENDBRANCH   4  19
TORSDOF 6
ENDMDL
MODEL 8
REMARK VINA RESULT:      -7.7      0.846      1.419
REMARK  Name = 
REMARK  7 active torsions:
REMARK  status: ('A' for Active; 'I' for Inactive)
REMARK    1  A    between atoms: C_1  and  C_2
REMARK    2  A    between atoms: C_2  and  C_3
REMARK    3  A    between atoms: C_2  and  C_6
REMARK    4  A    between atoms: C_3  and  O_5
REMARK    5  A    between atoms: C_9  and  C_10
REMARK    6  A    between atoms: C_10  and  C_11
REMARK    7  A    between atoms: C_18  and  C_19
REMARK                            x       y       z     vdW  Elec       q    Type
REMARK                         _______ _______ _______ _____ _____    ______ ____
ROOT
ATOM      1  C   UNL     1       4.205   5.615  17.281  0.00  0.00    +0.000 A 
ATOM      2  C   UNL     1       4.594   6.853  16.714  0.00  0.00    +0.000 A 
ATOM      3  C   UNL     1       3.909   8.035  16.981  0.00  0.00    +0.000 A 
ATOM      4  C   UNL     1       2.823   8.032  17.848  0.00  0.00    +0.000 A 
ATOM      5  C   UNL     1       2.417   6.808  18.405  0.00  0.00    +0.000 A 
ATOM      6  C   UNL     1       3.068   5.576  18.131  0.00  0.00    +0.000 A 
ENDROOT
BRANCH   6   7
ATOM      7  C   UNL     1       2.505   4.334  18.735  0.00  0.00    +0.000 A 
ATOM      8  C   UNL     1       1.468   3.609  18.121  0.00  0.00    +0.000 A 
ATOM      9  C   UNL     1       0.955   2.434  18.680  0.00  0.00    +0.000 A 
ATOM     10  C   UNL     1       1.415   1.994  19.915  0.00  0.00    +0.000 A 
ATOM     11  C   UNL     1       2.396   2.720  20.580  0.00  0.00    +0.000 A 
ATOM     12  C   UNL     1       2.947   3.864  19.987  0.00  0.00    +0.000 A 
ENDBRANCH   6   7
BRANCH   1  14
ATOM     13  C   UNL     1       5.262   4.179  15.476  0.00  0.00    +0.000 C 
ATOM     14  C   UNL     1       5.100   4.410  16.983  0.00  0.00    +0.000 C 
BRANCH  14  15
ATOM     15  C   UNL     1       6.452   4.515  17.686  0.00  0.00    +0.000 C 
ATOM     16  O   UNL     1       7.506   4.794  17.136  0.00  0.00    +0.000 OA
BRANCH  15  17
ATOM     17  O   UNL     1       6.395   4.205  19.005  0.00  0.00    +0.000 OA
ATOM     18  H   UNL     1       5.913   3.372  19.184  0.00  0.00    +0.000 HD
ENDBRANCH  15  17
ENDBRANCH  14  15
ENDBRANCH   1  14
BRANCH   4  19
ATOM     19  C   UNL     1       2.054   9.308  18.113  0.00  0.00    +0.000 C 
BRANCH  19  20
ATOM     20  C   UNL     1       0.874   9.169  19.078  0.00  0.00    +0.000 C 
ATOM     21  C   UNL     1       1.138   9.603  20.524  0.00  0.00    +0.000 C 
ATOM     22  C   UNL     1       0.548  10.998  20.701  0.00  0.00    +0.000 C 
ATOM     23  C   UNL     1      -0.576  11.135  19.689  0.00  0.00    +0.000 C 
ATOM     24  C   UNL     1      -0.235  10.105  18.649  0.00  0.00    +0.000 C 
ATOM     25  O   UNL     1      -0.806  10.029  17.570  0.00  0.00    +0.000 OA
ENDBRANCH  19  20
ENDBRANCH   4  19
TORSDOF 6
ENDMDL
MODEL 9
REMARK VINA RESULT:      -7.5      2.338      4.282
REMARK  Name = 
REMARK  7 active torsions:
REMARK  status: ('A' for Active; 'I' for Inactive)
REMARK    1  A    between atoms: C_1  and  C_2
REMARK    2  A    between atoms: C_2  and  C_3
REMARK    3  A    between atoms: C_2  and  C_6
REMARK    4  A    between atoms: C_3  and  O_5
REMARK    5  A    between atoms: C_9  and  C_10
REMARK    6  A    between atoms: C_10  and  C_11
REMARK    7  A    between atoms: C_18  and  C_19
REMARK                            x       y       z     vdW  Elec       q    Type
REMARK                         _______ _______ _______ _____ _____    ______ ____
ROOT
ATOM      1  C   UNL     1       2.912   4.706  19.554  0.00  0.00    +0.000 A 
ATOM      2  C   UNL     1       1.860   4.938  20.473  0.00  0.00    +0.000 A 
ATOM      3  C   UNL     1       1.425   6.224  20.787  0.00  0.00    +0.000 A 
ATOM      4  C   UNL     1       2.006   7.328  20.174  0.00  0.00    +0.000 A 
ATOM      5  C   UNL     1       3.062   7.111  19.272  0.00  0.00    +0.000 A 
ATOM      6  C   UNL     1       3.557   5.819  18.951  0.00  0.00    +0.000 A 
ENDROOT
BRANCH   6   7
ATOM      7  C   UNL     1       4.722   5.723  18.025  0.00  0.00    +0.000 A 
ATOM      8  C   UNL     1       4.562   5.685  16.628  0.00  0.00    +0.000 A 
ATOM      9  C   UNL     1       5.657   5.614  15.760  0.00  0.00    +0.000 A 
ATOM     10  C   UNL     1       6.943   5.498  16.272  0.00  0.00    +0.000 A 
ATOM     11  C   UNL     1       7.133   5.469  17.649  0.00  0.00    +0.000 A 
ATOM     12  C   UNL     1       6.037   5.600  18.512  0.00  0.00    +0.000 A 
ENDBRANCH   6   7
BRANCH   1  14
ATOM     13  C   UNL     1       3.313   2.382  20.489  0.00  0.00    +0.000 C 
ATOM     14  C   UNL     1       3.228   3.245  19.225  0.00  0.00    +0.000 C 
BRANCH  14  15
ATOM     15  C   UNL     1       2.246   2.664  18.209  0.00  0.00    +0.000 C 
ATOM     16  O   UNL     1       2.007   3.146  17.114  0.00  0.00    +0.000 OA
BRANCH  15  17
ATOM     17  O   UNL     1       1.595   1.564  18.663  0.00  0.00    +0.000 OA
ATOM     18  H   UNL     1       2.156   0.987  19.221  0.00  0.00    +0.000 HD
ENDBRANCH  15  17
ENDBRANCH  14  15
ENDBRANCH   1  14
BRANCH   4  19
ATOM     19  C   UNL     1       1.561   8.726  20.538  0.00  0.00    +0.000 C 
BRANCH  19  20
ATOM     20  C   UNL     1       0.088   8.857  20.937  0.00  0.00    +0.000 C 
ATOM     21  C   UNL     1      -0.183   9.088  22.427  0.00  0.00    +0.000 C 
ATOM     22  C   UNL     1      -0.455  10.576  22.621  0.00  0.00    +0.000 C 
ATOM     23  C   UNL     1      -0.990  11.103  21.301  0.00  0.00    +0.000 C 
ATOM     24  C   UNL     1      -0.494  10.100  20.299  0.00  0.00    +0.000 C 
ATOM     25  O   UNL     1      -0.563  10.271  19.090  0.00  0.00    +0.000 OA
ENDBRANCH  19  20
ENDBRANCH   4  19
TORSDOF 6
ENDMDL
