MODEL 1
REMARK VINA RESULT:      -7.0      0.000      0.000
REMARK  Name = 
REMARK  5 active torsions:
REMARK  status: ('A' for Active; 'I' for Inactive)
REMARK    1  A    between atoms: O_1  and  C_2
REMARK    2  A    between atoms: C_2  and  CA_3
REMARK    3  A    between atoms: C_8  and  C_9
REMARK    4  A    between atoms: N_21  and  C_22
REMARK    5  A    between atoms: C_22  and  C_23
REMARK                            x       y       z     vdW  Elec       q    Type
REMARK                         _______ _______ _______ _____ _____    ______ ____
ROOT
ATOM      1  CA  UNL     1      -3.127  12.391  22.886  0.00  0.00    +0.000 C 
ATOM      2  N   UNL     1      -1.874  11.843  23.430  0.00  0.00    +0.000 N 
ATOM      3  C   UNL     1      -1.148  11.040  22.544  0.00  0.00    +0.000 A 
ATOM      4  C   UNL     1      -0.178  10.167  23.038  0.00  0.00    +0.000 A 
ATOM      5  C   UNL     1       0.624   9.405  22.177  0.00  0.00    +0.000 A 
ATOM      6  C   UNL     1       0.435   9.432  20.787  0.00  0.00    +0.000 A 
ATOM      7  C   UNL     1      -0.591  10.268  20.322  0.00  0.00    +0.000 A 
ATOM      8  C   UNL     1      -1.260  11.189  21.158  0.00  0.00    +0.000 A 
ATOM      9  C   UNL     1      -2.085  12.313  20.549  0.00  0.00    +0.000 C 
ATOM     10  C   UNL     1      -2.819  13.163  21.602  0.00  0.00    +0.000 C 
ATOM     11  C   UNL     1      -1.900  14.356  21.851  0.00  0.00    +0.000 C 
ATOM     12  C   UNL     1      -1.103  14.521  20.581  0.00  0.00    +0.000 C 
ATOM     13  N   UNL     1      -1.368  13.351  19.740  0.00  0.00    +0.000 NA
ATOM     14  H   UNL     1      -2.014  11.416  24.346  0.00  0.00    +0.000 HD
ENDROOT
BRANCH   6  15
ATOM     15  C   UNL     1       1.337   8.717  19.845  0.00  0.00    +0.000 A 
ATOM     16  C   UNL     1       1.599   9.208  18.553  0.00  0.00    +0.000 A 
ATOM     17  C   UNL     1       2.387   8.492  17.643  0.00  0.00    +0.000 A 
ATOM     18  C   UNL     1       2.948   7.272  18.007  0.00  0.00    +0.000 A 
ATOM     19  C   UNL     1       2.719   6.766  19.280  0.00  0.00    +0.000 A 
ATOM     20  C   UNL     1       1.918   7.478  20.183  0.00  0.00    +0.000 A 
ENDBRANCH   6  15
BRANCH   1  21
ATOM     21  C   UNL     1      -3.767  13.305  23.956  0.00  0.00    +0.000 C 
BRANCH  21  22
ATOM     22  O   UNL     1      -4.421  12.518  24.955  0.00  0.00    +0.000 OA
ATOM     23  H   UNL     1      -4.235  11.587  24.738  0.00  0.00    +0.000 HD
ENDBRANCH  21  22
ENDBRANCH   1  21
BRANCH  13  24
ATOM     24  C   UNL     1      -0.159  12.910  19.033  0.00  0.00    +0.000 C 
BRANCH  24  25
ATOM     25  C   UNL     1       1.144  13.576  19.433  0.00  0.00    +0.000 A 
ATOM     26  C   UNL     1       1.827  13.117  20.575  0.00  0.00    +0.000 A 
ATOM     27  C   UNL     1       3.051  13.682  20.944  0.00  0.00    +0.000 A 
ATOM     28  C   UNL     1       3.591  14.698  20.167  0.00  0.00    +0.000 A 
ATOM     29  F   UNL     1       4.763  15.243  20.520  0.00  0.00    +0.000 F 
ATOM     30  C   UNL     1       2.945  15.148  19.023  0.00  0.00    +0.000 A 
ATOM     31  C   UNL     1       1.724  14.583  18.650  0.00  0.00    +0.000 A 
ENDBRANCH  24  25
ENDBRANCH  13  24
TORSDOF 5
ENDMDL
MODEL 2
REMARK VINA RESULT:      -6.9      3.898      7.089
REMARK  Name = 
REMARK  5 active torsions:
REMARK  status: ('A' for Active; 'I' for Inactive)
REMARK    1  A    between atoms: O_1  and  C_2
REMARK    2  A    between atoms: C_2  and  CA_3
REMARK    3  A    between atoms: C_8  and  C_9
REMARK    4  A    between atoms: N_21  and  C_22
REMARK    5  A    between atoms: C_22  and  C_23
REMARK                            x       y       z     vdW  Elec       q    Type
REMARK                         _______ _______ _______ _____ _____    ______ ____
ROOT
ATOM      1  CA  UNL     1       0.993  14.908  21.072  0.00  0.00    +0.000 C 
ATOM      2  N   UNL     1       0.337  14.401  22.287  0.00  0.00    +0.000 N 
ATOM      3  C   UNL     1      -1.019  14.088  22.139  0.00  0.00    +0.000 A 
ATOM      4  C   UNL     1      -1.830  13.975  23.269  0.00  0.00    +0.000 A 
ATOM      5  C   UNL     1      -3.173  13.586  23.166  0.00  0.00    +0.000 A 
ATOM      6  C   UNL     1      -3.777  13.365  21.920  0.00  0.00    +0.000 A 
ATOM      7  C   UNL     1      -2.955  13.549  20.797  0.00  0.00    +0.000 A 
ATOM      8  C   UNL     1      -1.560  13.737  20.898  0.00  0.00    +0.000 A 
ATOM      9  C   UNL     1      -0.675  13.560  19.673  0.00  0.00    +0.000 C 
ATOM     10  C   UNL     1       0.804  13.894  19.942  0.00  0.00    +0.000 C 
ATOM     11  C   UNL     1       1.457  12.551  20.254  0.00  0.00    +0.000 C 
ATOM     12  C   UNL     1       0.614  11.520  19.548  0.00  0.00    +0.000 C 
ATOM     13  N   UNL     1      -0.590  12.196  19.059  0.00  0.00    +0.000 NA
ATOM     14  H   UNL     1       0.532  14.990  23.097  0.00  0.00    +0.000 HD
ENDROOT
BRANCH   6  15
ATOM     15  C   UNL     1      -5.166  12.851  21.786  0.00  0.00    +0.000 A 
ATOM     16  C   UNL     1      -6.088  12.920  22.846  0.00  0.00    +0.000 A 
ATOM     17  C   UNL     1      -7.370  12.365  22.741  0.00  0.00    +0.000 A 
ATOM     18  C   UNL     1      -7.770  11.741  21.564  0.00  0.00    +0.000 A 
ATOM     19  C   UNL     1      -6.888  11.668  20.494  0.00  0.00    +0.000 A 
ATOM     20  C   UNL     1      -5.602  12.210  20.608  0.00  0.00    +0.000 A 
ENDBRANCH   6  15
BRANCH   1  21
ATOM     21  C   UNL     1       2.489  15.137  21.382  0.00  0.00    +0.000 C 
BRANCH  21  22
ATOM     22  O   UNL     1       2.726  15.036  22.789  0.00  0.00    +0.000 OA
ATOM     23  H   UNL     1       2.525  14.117  23.038  0.00  0.00    +0.000 HD
ENDBRANCH  21  22
ENDBRANCH   1  21
BRANCH  13  24
ATOM     24  C   UNL     1      -1.778  11.344  19.190  0.00  0.00    +0.000 C 
BRANCH  24  25
ATOM     25  C   UNL     1      -2.471  10.940  17.902  0.00  0.00    +0.000 A 
ATOM     26  C   UNL     1      -3.697  11.545  17.564  0.00  0.00    +0.000 A 
ATOM     27  C   UNL     1      -4.338  11.224  16.364  0.00  0.00    +0.000 A 
ATOM     28  C   UNL     1      -3.749  10.307  15.504  0.00  0.00    +0.000 A 
ATOM     29  F   UNL     1      -4.363   9.996  14.355  0.00  0.00    +0.000 F 
ATOM     30  C   UNL     1      -2.529   9.717  15.809  0.00  0.00    +0.000 A 
ATOM     31  C   UNL     1      -1.885  10.038  17.005  0.00  0.00    +0.000 A 
ENDBRANCH  24  25
ENDBRANCH  13  24
TORSDOF 5
ENDMDL
MODEL 3
REMARK VINA RESULT:      -6.8      4.169      7.360
REMARK  Name = 
REMARK  5 active torsions:
REMARK  status: ('A' for Active; 'I' for Inactive)
REMARK    1  A    between atoms: O_1  and  C_2
REMARK    2  A    between atoms: C_2  and  CA_3
REMARK    3  A    between atoms: C_8  and  C_9
REMARK    4  A    between atoms: N_21  and  C_22
REMARK    5  A    between atoms: C_22  and  C_23
REMARK                            x       y       z     vdW  Elec       q    Type
REMARK                         _______ _______ _______ _____ _____    ______ ____
ROOT
ATOM      1  CA  UNL     1       0.592   9.543  18.612  0.00  0.00    +0.000 C 
ATOM      2  N   UNL     1      -0.116   9.972  17.396  0.00  0.00    +0.000 N 
ATOM      3  C   UNL     1      -1.430  10.409  17.601  0.00  0.00    +0.000 A 
ATOM      4  C   UNL     1      -2.315  10.468  16.524  0.00  0.00    +0.000 A 
ATOM      5  C   UNL     1      -3.613  10.974  16.675  0.00  0.00    +0.000 A 
ATOM      6  C   UNL     1      -4.102  11.373  17.928  0.00  0.00    +0.000 A 
ATOM      7  C   UNL     1      -3.212  11.241  19.005  0.00  0.00    +0.000 A 
ATOM      8  C   UNL     1      -1.846  10.930  18.830  0.00  0.00    +0.000 A 
ATOM      9  C   UNL     1      -0.859  11.161  19.965  0.00  0.00    +0.000 C 
ATOM     10  C   UNL     1       0.566  10.681  19.633  0.00  0.00    +0.000 C 
ATOM     11  C   UNL     1       1.290  11.927  19.131  0.00  0.00    +0.000 C 
ATOM     12  C   UNL     1       0.582  13.091  19.775  0.00  0.00    +0.000 C 
ATOM     13  N   UNL     1      -0.627  12.571  20.418  0.00  0.00    +0.000 NA
ATOM     14  H   UNL     1      -0.027   9.288  16.645  0.00  0.00    +0.000 HD
ENDROOT
BRANCH   6  15
ATOM     15  C   UNL     1      -5.435  12.010  18.099  0.00  0.00    +0.000 A 
ATOM     16  C   UNL     1      -6.006  12.816  17.097  0.00  0.00    +0.000 A 
ATOM     17  C   UNL     1      -7.226  13.476  17.294  0.00  0.00    +0.000 A 
ATOM     18  C   UNL     1      -7.916  13.333  18.493  0.00  0.00    +0.000 A 
ATOM     19  C   UNL     1      -7.386  12.533  19.497  0.00  0.00    +0.000 A 
ATOM     20  C   UNL     1      -6.158  11.887  19.303  0.00  0.00    +0.000 A 
ENDBRANCH   6  15
BRANCH   1  21
ATOM     21  C   UNL     1       2.040   9.162  18.227  0.00  0.00    +0.000 C 
BRANCH  21  22
ATOM     22  O   UNL     1       2.331   7.828  18.650  0.00  0.00    +0.000 OA
ATOM     23  H   UNL     1       1.974   7.236  17.965  0.00  0.00    +0.000 HD
ENDBRANCH  21  22
ENDBRANCH   1  21
BRANCH  13  24
ATOM     24  C   UNL     1      -1.756  13.498  20.275  0.00  0.00    +0.000 C 
BRANCH  24  25
ATOM     25  C   UNL     1      -2.809  13.461  21.366  0.00  0.00    +0.000 A 
ATOM     26  C   UNL     1      -4.021  14.151  21.172  0.00  0.00    +0.000 A 
ATOM     27  C   UNL     1      -5.028  14.100  22.141  0.00  0.00    +0.000 A 
ATOM     28  C   UNL     1      -4.822  13.356  23.295  0.00  0.00    +0.000 A 
ATOM     29  F   UNL     1      -5.785  13.309  24.226  0.00  0.00    +0.000 F 
ATOM     30  C   UNL     1      -3.643  12.650  23.494  0.00  0.00    +0.000 A 
ATOM     31  C   UNL     1      -2.638  12.696  22.526  0.00  0.00    +0.000 A 
ENDBRANCH  24  25
ENDBRANCH  13  24
TORSDOF 5
ENDMDL
MODEL 4
REMARK VINA RESULT:      -6.8      3.014      4.619
REMARK  Name = 
REMARK  5 active torsions:
REMARK  status: ('A' for Active; 'I' for Inactive)
REMARK    1  A    between atoms: O_1  and  C_2
REMARK    2  A    between atoms: C_2  and  CA_3
REMARK    3  A    between atoms: C_8  and  C_9
REMARK    4  A    between atoms: N_21  and  C_22
REMARK    5  A    between atoms: C_22  and  C_23
REMARK                            x       y       z     vdW  Elec       q    Type
REMARK                         _______ _______ _______ _____ _____    ______ ____
ROOT
ATOM      1  CA  UNL     1      -5.074  14.393  22.757  0.00  0.00    +0.000 C 
ATOM      2  N   UNL     1      -5.856  13.290  22.178  0.00  0.00    +0.000 N 
ATOM      3  C   UNL     1      -5.355  12.779  20.975  0.00  0.00    +0.000 A 
ATOM      4  C   UNL     1      -6.186  12.025  20.145  0.00  0.00    +0.000 A 
ATOM      5  C   UNL     1      -5.699  11.432  18.972  0.00  0.00    +0.000 A 
ATOM      6  C   UNL     1      -4.377  11.630  18.547  0.00  0.00    +0.000 A 
ATOM      7  C   UNL     1      -3.583  12.446  19.367  0.00  0.00    +0.000 A 
ATOM      8  C   UNL     1      -4.000  12.875  20.645  0.00  0.00    +0.000 A 
ATOM      9  C   UNL     1      -2.984  13.430  21.633  0.00  0.00    +0.000 C 
ATOM     10  C   UNL     1      -3.625  13.936  22.938  0.00  0.00    +0.000 C 
ATOM     11  C   UNL     1      -3.505  12.766  23.911  0.00  0.00    +0.000 C 
ATOM     12  C   UNL     1      -2.314  11.972  23.438  0.00  0.00    +0.000 C 
ATOM     13  N   UNL     1      -1.916  12.508  22.135  0.00  0.00    +0.000 NA
ATOM     14  H   UNL     1      -6.852  13.509  22.143  0.00  0.00    +0.000 HD
ENDROOT
BRANCH   6  15
ATOM     15  C   UNL     1      -3.805  10.929  17.366  0.00  0.00    +0.000 A 
ATOM     16  C   UNL     1      -2.695  10.071  17.479  0.00  0.00    +0.000 A 
ATOM     17  C   UNL     1      -2.113   9.473  16.354  0.00  0.00    +0.000 A 
ATOM     18  C   UNL     1      -2.635   9.705  15.086  0.00  0.00    +0.000 A 
ATOM     19  C   UNL     1      -3.738  10.537  14.942  0.00  0.00    +0.000 A 
ATOM     20  C   UNL     1      -4.309  11.145  16.068  0.00  0.00    +0.000 A 
ENDBRANCH   6  15
BRANCH   1  21
ATOM     21  C   UNL     1      -5.714  14.792  24.106  0.00  0.00    +0.000 C 
BRANCH  21  22
ATOM     22  O   UNL     1      -6.830  13.946  24.396  0.00  0.00    +0.000 OA
ATOM     23  H   UNL     1      -6.516  13.285  25.038  0.00  0.00    +0.000 HD
ENDBRANCH  21  22
ENDBRANCH   1  21
BRANCH  13  24
ATOM     24  C   UNL     1      -1.488  11.442  21.220  0.00  0.00    +0.000 C 
BRANCH  24  25
ATOM     25  C   UNL     1      -0.307  11.751  20.320  0.00  0.00    +0.000 A 
ATOM     26  C   UNL     1       0.299  13.019  20.395  0.00  0.00    +0.000 A 
ATOM     27  C   UNL     1       1.416  13.319  19.609  0.00  0.00    +0.000 A 
ATOM     28  C   UNL     1       1.926  12.348  18.757  0.00  0.00    +0.000 A 
ATOM     29  F   UNL     1       2.994  12.634  18.001  0.00  0.00    +0.000 F 
ATOM     30  C   UNL     1       1.357  11.083  18.687  0.00  0.00    +0.000 A 
ATOM     31  C   UNL     1       0.244  10.780  19.473  0.00  0.00    +0.000 A 
ENDBRANCH  24  25
ENDBRANCH  13  24
TORSDOF 5
ENDMDL
MODEL 5
REMARK VINA RESULT:      -6.7      1.064      1.285
REMARK  Name = 
REMARK  5 active torsions:
REMARK  status: ('A' for Active; 'I' for Inactive)
REMARK    1  A    between atoms: O_1  and  C_2
REMARK    2  A    between atoms: C_2  and  CA_3
REMARK    3  A    between atoms: C_8  and  C_9
REMARK    4  A    between atoms: N_21  and  C_22
REMARK    5  A    between atoms: C_22  and  C_23
REMARK                            x       y       z     vdW  Elec       q    Type
REMARK                         _______ _______ _______ _____ _____    ______ ____
ROOT
ATOM      1  CA  UNL     1      -2.964  13.286  23.006  0.00  0.00    +0.000 C 
ATOM      2  N   UNL     1      -2.113  12.247  23.608  0.00  0.00    +0.000 N 
ATOM      3  C   UNL     1      -1.408  11.458  22.692  0.00  0.00    +0.000 A 
ATOM      4  C   UNL     1      -0.889  10.227  23.096  0.00  0.00    +0.000 A 
ATOM      5  C   UNL     1      -0.111   9.446  22.231  0.00  0.00    +0.000 A 
ATOM      6  C   UNL     1       0.119   9.833  20.903  0.00  0.00    +0.000 A 
ATOM      7  C   UNL     1      -0.469  11.043  20.505  0.00  0.00    +0.000 A 
ATOM      8  C   UNL     1      -1.076  11.931  21.419  0.00  0.00    +0.000 A 
ATOM      9  C   UNL     1      -1.359  13.370  21.012  0.00  0.00    +0.000 C 
ATOM     10  C   UNL     1      -2.107  14.168  22.096  0.00  0.00    +0.000 C 
ATOM     11  C   UNL     1      -1.013  14.902  22.865  0.00  0.00    +0.000 C 
ATOM     12  C   UNL     1       0.126  15.060  21.891  0.00  0.00    +0.000 C 
ATOM     13  N   UNL     1      -0.191  14.257  20.708  0.00  0.00    +0.000 NA
ATOM     14  H   UNL     1      -2.617  11.705  24.309  0.00  0.00    +0.000 HD
ENDROOT
BRANCH   6  15
ATOM     15  C   UNL     1       1.026   9.078  19.997  0.00  0.00    +0.000 A 
ATOM     16  C   UNL     1       1.260   9.489  18.671  0.00  0.00    +0.000 A 
ATOM     17  C   UNL     1       2.054   8.733  17.799  0.00  0.00    +0.000 A 
ATOM     18  C   UNL     1       2.648   7.554  18.234  0.00  0.00    +0.000 A 
ATOM     19  C   UNL     1       2.447   7.127  19.541  0.00  0.00    +0.000 A 
ATOM     20  C   UNL     1       1.640   7.878  20.406  0.00  0.00    +0.000 A 
ENDBRANCH   6  15
BRANCH   1  21
ATOM     21  C   UNL     1      -3.613  14.107  24.143  0.00  0.00    +0.000 C 
BRANCH  21  22
ATOM     22  O   UNL     1      -4.096  13.238  25.170  0.00  0.00    +0.000 OA
ATOM     23  H   UNL     1      -4.676  13.776  25.737  0.00  0.00    +0.000 HD
ENDBRANCH  21  22
ENDBRANCH   1  21
BRANCH  13  24
ATOM     24  C   UNL     1       1.005  13.601  20.165  0.00  0.00    +0.000 C 
BRANCH  24  25
ATOM     25  C   UNL     1       2.126  14.509  19.696  0.00  0.00    +0.000 A 
ATOM     26  C   UNL     1       3.396  14.395  20.293  0.00  0.00    +0.000 A 
ATOM     27  C   UNL     1       4.459  15.188  19.854  0.00  0.00    +0.000 A 
ATOM     28  C   UNL     1       4.252  16.086  18.815  0.00  0.00    +0.000 A 
ATOM     29  F   UNL     1       5.270  16.850  18.394  0.00  0.00    +0.000 F 
ATOM     30  C   UNL     1       3.013  16.196  18.197  0.00  0.00    +0.000 A 
ATOM     31  C   UNL     1       1.950  15.403  18.632  0.00  0.00    +0.000 A 
ENDBRANCH  24  25
ENDBRANCH  13  24
TORSDOF 5
ENDMDL
MODEL 6
REMARK VINA RESULT:      -6.7      0.645      1.104
REMARK  Name = 
REMARK  5 active torsions:
REMARK  status: ('A' for Active; 'I' for Inactive)
REMARK    1  A    between atoms: O_1  and  C_2
REMARK    2  A    between atoms: C_2  and  CA_3
REMARK    3  A    between atoms: C_8  and  C_9
REMARK    4  A    between atoms: N_21  and  C_22
REMARK    5  A    between atoms: C_22  and  C_23
REMARK                            x       y       z     vdW  Elec       q    Type
REMARK                         _______ _______ _______ _____ _____    ______ ____
ROOT
ATOM      1  CA  UNL     1      -3.128  13.017  22.136  0.00  0.00    +0.000 C 
ATOM      2  N   UNL     1      -1.989  12.403  22.836  0.00  0.00    +0.000 N 
ATOM      3  C   UNL     1      -1.251  11.490  22.075  0.00  0.00    +0.000 A 
ATOM      4  C   UNL     1      -0.415  10.573  22.714  0.00  0.00    +0.000 A 
ATOM      5  C   UNL     1       0.399   9.697  21.983  0.00  0.00    +0.000 A 
ATOM      6  C   UNL     1       0.353   9.653  20.582  0.00  0.00    +0.000 A 
ATOM      7  C   UNL     1      -0.544  10.540  19.968  0.00  0.00    +0.000 A 
ATOM      8  C   UNL     1      -1.211  11.562  20.680  0.00  0.00    +0.000 A 
ATOM      9  C   UNL     1      -1.868  12.710  19.929  0.00  0.00    +0.000 C 
ATOM     10  C   UNL     1      -2.627  13.680  20.852  0.00  0.00    +0.000 C 
ATOM     11  C   UNL     1      -1.637  14.807  21.133  0.00  0.00    +0.000 C 
ATOM     12  C   UNL     1      -0.706  14.828  19.947  0.00  0.00    +0.000 C 
ATOM     13  N   UNL     1      -0.986  13.634  19.146  0.00  0.00    +0.000 NA
ATOM     14  H   UNL     1      -2.257  12.046  23.754  0.00  0.00    +0.000 HD
ENDROOT
BRANCH   6  15
ATOM     15  C   UNL     1       1.279   8.810  19.779  0.00  0.00    +0.000 A 
ATOM     16  C   UNL     1       1.641   9.153  18.463  0.00  0.00    +0.000 A 
ATOM     17  C   UNL     1       2.451   8.316  17.685  0.00  0.00    +0.000 A 
ATOM     18  C   UNL     1       2.935   7.122  18.208  0.00  0.00    +0.000 A 
ATOM     19  C   UNL     1       2.607   6.761  19.508  0.00  0.00    +0.000 A 
ATOM     20  C   UNL     1       1.784   7.593  20.279  0.00  0.00    +0.000 A 
ENDBRANCH   6  15
BRANCH   1  21
ATOM     21  C   UNL     1      -3.790  14.043  23.083  0.00  0.00    +0.000 C 
BRANCH  21  22
ATOM     22  O   UNL     1      -3.516  13.711  24.446  0.00  0.00    +0.000 OA
ATOM     23  H   UNL     1      -3.931  12.845  24.608  0.00  0.00    +0.000 HD
ENDBRANCH  21  22
ENDBRANCH   1  21
BRANCH  13  24
ATOM     24  C   UNL     1       0.244  13.054  18.594  0.00  0.00    +0.000 C 
BRANCH  24  25
ATOM     25  C   UNL     1       1.554  13.565  19.165  0.00  0.00    +0.000 A 
ATOM     26  C   UNL     1       2.339  14.445  18.396  0.00  0.00    +0.000 A 
ATOM     27  C   UNL     1       3.529  14.966  18.912  0.00  0.00    +0.000 A 
ATOM     28  C   UNL     1       3.926  14.612  20.195  0.00  0.00    +0.000 A 
ATOM     29  F   UNL     1       5.068  15.108  20.690  0.00  0.00    +0.000 F 
ATOM     30  C   UNL     1       3.152  13.764  20.977  0.00  0.00    +0.000 A 
ATOM     31  C   UNL     1       1.961  13.245  20.466  0.00  0.00    +0.000 A 
ENDBRANCH  24  25
ENDBRANCH  13  24
TORSDOF 5
ENDMDL
MODEL 7
REMARK VINA RESULT:      -6.7      0.985      1.430
REMARK  Name = 
REMARK  5 active torsions:
REMARK  status: ('A' for Active; 'I' for Inactive)
REMARK    1  A    between atoms: O_1  and  C_2
REMARK    2  A    between atoms: C_2  and  CA_3
REMARK    3  A    between atoms: C_8  and  C_9
REMARK    4  A    between atoms: N_21  and  C_22
REMARK    5  A    between atoms: C_22  and  C_23
REMARK                            x       y       z     vdW  Elec       q    Type
REMARK                         _______ _______ _______ _____ _____    ______ ____
ROOT
ATOM      1  CA  UNL     1      -2.667  12.667  22.819  0.00  0.00    +0.000 C 
ATOM      2  N   UNL     1      -1.798  11.649  23.430  0.00  0.00    +0.000 N 
ATOM      3  C   UNL     1      -1.071  10.871  22.522  0.00  0.00    +0.000 A 
ATOM      4  C   UNL     1      -0.529   9.653  22.934  0.00  0.00    +0.000 A 
ATOM      5  C   UNL     1       0.271   8.885  22.077  0.00  0.00    +0.000 A 
ATOM      6  C   UNL     1       0.499   9.270  20.748  0.00  0.00    +0.000 A 
ATOM      7  C   UNL     1      -0.112  10.466  20.341  0.00  0.00    +0.000 A 
ATOM      8  C   UNL     1      -0.743  11.345  21.248  0.00  0.00    +0.000 A 
ATOM      9  C   UNL     1      -1.054  12.776  20.833  0.00  0.00    +0.000 C 
ATOM     10  C   UNL     1      -1.825  13.562  21.909  0.00  0.00    +0.000 C 
ATOM     11  C   UNL     1      -0.750  14.323  22.681  0.00  0.00    +0.000 C 
ATOM     12  C   UNL     1       0.390  14.501  21.712  0.00  0.00    +0.000 C 
ATOM     13  N   UNL     1       0.097  13.686  20.531  0.00  0.00    +0.000 NA
ATOM     14  H   UNL     1      -2.294  11.099  24.131  0.00  0.00    +0.000 HD
ENDROOT
BRANCH   6  15
ATOM     15  C   UNL     1       1.426   8.531  19.850  0.00  0.00    +0.000 A 
ATOM     16  C   UNL     1       1.815   9.046  18.599  0.00  0.00    +0.000 A 
ATOM     17  C   UNL     1       2.627   8.312  17.725  0.00  0.00    +0.000 A 
ATOM     18  C   UNL     1       3.086   7.049  18.085  0.00  0.00    +0.000 A 
ATOM     19  C   UNL     1       2.731   6.518  19.319  0.00  0.00    +0.000 A 
ATOM     20  C   UNL     1       1.906   7.249  20.185  0.00  0.00    +0.000 A 
ENDBRANCH   6  15
BRANCH   1  21
ATOM     21  C   UNL     1      -3.340  13.479  23.949  0.00  0.00    +0.000 C 
BRANCH  21  22
ATOM     22  O   UNL     1      -4.165  12.629  24.749  0.00  0.00    +0.000 OA
ATOM     23  H   UNL     1      -4.176  13.016  25.642  0.00  0.00    +0.000 HD
ENDBRANCH  21  22
ENDBRANCH   1  21
BRANCH  13  24
ATOM     24  C   UNL     1       1.309  13.053  19.997  0.00  0.00    +0.000 C 
BRANCH  24  25
ATOM     25  C   UNL     1       2.427  13.982  19.562  0.00  0.00    +0.000 A 
ATOM     26  C   UNL     1       2.337  14.626  18.313  0.00  0.00    +0.000 A 
ATOM     27  C   UNL     1       3.330  15.520  17.904  0.00  0.00    +0.000 A 
ATOM     28  C   UNL     1       4.404  15.773  18.746  0.00  0.00    +0.000 A 
ATOM     29  F   UNL     1       5.359  16.628  18.355  0.00  0.00    +0.000 F 
ATOM     30  C   UNL     1       4.498  15.167  19.992  0.00  0.00    +0.000 A 
ATOM     31  C   UNL     1       3.506  14.276  20.405  0.00  0.00    +0.000 A 
ENDBRANCH  24  25
ENDBRANCH  13  24
TORSDOF 5
ENDMDL
MODEL 8
REMARK VINA RESULT:      -6.7      4.132      7.378
REMARK  Name = 
REMARK  5 active torsions:
REMARK  status: ('A' for Active; 'I' for Inactive)
REMARK    1  A    between atoms: O_1  and  C_2
REMARK    2  A    between atoms: C_2  and  CA_3
REMARK    3  A    between atoms: C_8  and  C_9
REMARK    4  A    between atoms: N_21  and  C_22
REMARK    5  A    between atoms: C_22  and  C_23
REMARK                            x       y       z     vdW  Elec       q    Type
REMARK                         _______ _______ _______ _____ _____    ______ ____
ROOT
ATOM      1  CA  UNL     1       0.536   9.399  18.599  0.00  0.00    +0.000 C 
ATOM      2  N   UNL     1      -0.110   9.961  17.402  0.00  0.00    +0.000 N 
ATOM      3  C   UNL     1      -1.409  10.441  17.603  0.00  0.00    +0.000 A 
ATOM      4  C   UNL     1      -2.252  10.632  16.508  0.00  0.00    +0.000 A 
ATOM      5  C   UNL     1      -3.531  11.185  16.661  0.00  0.00    +0.000 A 
ATOM      6  C   UNL     1      -4.044  11.501  17.928  0.00  0.00    +0.000 A 
ATOM      7  C   UNL     1      -3.200  11.237  19.017  0.00  0.00    +0.000 A 
ATOM      8  C   UNL     1      -1.844  10.878  18.858  0.00  0.00    +0.000 A 
ATOM      9  C   UNL     1      -0.888  10.966  20.039  0.00  0.00    +0.000 C 
ATOM     10  C   UNL     1       0.525  10.448  19.712  0.00  0.00    +0.000 C 
ATOM     11  C   UNL     1       1.322  11.695  19.340  0.00  0.00    +0.000 C 
ATOM     12  C   UNL     1       0.644  12.834  20.059  0.00  0.00    +0.000 C 
ATOM     13  N   UNL     1      -0.609  12.320  20.617  0.00  0.00    +0.000 NA
ATOM     14  H   UNL     1      -0.026   9.339  16.599  0.00  0.00    +0.000 HD
ENDROOT
BRANCH   6  15
ATOM     15  C   UNL     1      -5.353  12.185  18.111  0.00  0.00    +0.000 A 
ATOM     16  C   UNL     1      -6.075  12.093  19.315  0.00  0.00    +0.000 A 
ATOM     17  C   UNL     1      -7.342  12.674  19.457  0.00  0.00    +0.000 A 
ATOM     18  C   UNL     1      -7.913  13.378  18.401  0.00  0.00    +0.000 A 
ATOM     19  C   UNL     1      -7.220  13.498  17.204  0.00  0.00    +0.000 A 
ATOM     20  C   UNL     1      -5.960  12.902  17.061  0.00  0.00    +0.000 A 
ENDBRANCH   6  15
BRANCH   1  21
ATOM     21  C   UNL     1       1.977   8.982  18.228  0.00  0.00    +0.000 C 
BRANCH  21  22
ATOM     22  O   UNL     1       2.435   7.946  19.101  0.00  0.00    +0.000 OA
ATOM     23  H   UNL     1       3.256   8.272  19.508  0.00  0.00    +0.000 HD
ENDBRANCH  21  22
ENDBRANCH   1  21
BRANCH  13  24
ATOM     24  C   UNL     1      -1.689  13.309  20.518  0.00  0.00    +0.000 C 
BRANCH  24  25
ATOM     25  C   UNL     1      -2.790  13.220  21.559  0.00  0.00    +0.000 A 
ATOM     26  C   UNL     1      -2.589  12.424  22.702  0.00  0.00    +0.000 A 
ATOM     27  C   UNL     1      -3.567  12.356  23.699  0.00  0.00    +0.000 A 
ATOM     28  C   UNL     1      -4.737  13.089  23.552  0.00  0.00    +0.000 A 
ATOM     29  F   UNL     1      -5.677  13.024  24.505  0.00  0.00    +0.000 F 
ATOM     30  C   UNL     1      -4.943  13.899  22.443  0.00  0.00    +0.000 A 
ATOM     31  C   UNL     1      -3.966  13.972  21.448  0.00  0.00    +0.000 A 
ENDBRANCH  24  25
ENDBRANCH  13  24
TORSDOF 5
ENDMDL
MODEL 9
REMARK VINA RESULT:      -6.7      3.936      7.099
REMARK  Name = 
REMARK  5 active torsions:
REMARK  status: ('A' for Active; 'I' for Inactive)
REMARK    1  A    between atoms: O_1  and  C_2
REMARK    2  A    between atoms: C_2  and  CA_3
REMARK    3  A    between atoms: C_8  and  C_9
REMARK    4  A    between atoms: N_21  and  C_22
REMARK    5  A    between atoms: C_22  and  C_23
REMARK                            x       y       z     vdW  Elec       q    Type
REMARK                         _______ _______ _______ _____ _____    ______ ____
ROOT
ATOM      1  CA  UNL     1       1.470  14.590  20.709  0.00  0.00    +0.000 C 
ATOM      2  N   UNL     1       0.825  14.125  21.946  0.00  0.00    +0.000 N 
ATOM      3  C   UNL     1      -0.553  13.903  21.846  0.00  0.00    +0.000 A 
ATOM      4  C   UNL     1      -1.330  13.842  23.004  0.00  0.00    +0.000 A 
ATOM      5  C   UNL     1      -2.698  13.543  22.948  0.00  0.00    +0.000 A 
ATOM      6  C   UNL     1      -3.359  13.364  21.724  0.00  0.00    +0.000 A 
ATOM      7  C   UNL     1      -2.567  13.496  20.573  0.00  0.00    +0.000 A 
ATOM      8  C   UNL     1      -1.159  13.591  20.625  0.00  0.00    +0.000 A 
ATOM      9  C   UNL     1      -0.331  13.359  19.369  0.00  0.00    +0.000 C 
ATOM     10  C   UNL     1       1.175  13.594  19.586  0.00  0.00    +0.000 C 
ATOM     11  C   UNL     1       1.748  12.210  19.876  0.00  0.00    +0.000 C 
ATOM     12  C   UNL     1       0.814  11.239  19.200  0.00  0.00    +0.000 C 
ATOM     13  N   UNL     1      -0.359  11.993  18.753  0.00  0.00    +0.000 NA
ATOM     14  H   UNL     1       1.087  14.698  22.748  0.00  0.00    +0.000 HD
ENDROOT
BRANCH   6  15
ATOM     15  C   UNL     1      -4.782  12.944  21.639  0.00  0.00    +0.000 A 
ATOM     16  C   UNL     1      -5.672  13.115  22.715  0.00  0.00    +0.000 A 
ATOM     17  C   UNL     1      -6.991  12.647  22.658  0.00  0.00    +0.000 A 
ATOM     18  C   UNL     1      -7.461  12.010  21.514  0.00  0.00    +0.000 A 
ATOM     19  C   UNL     1      -6.612  11.837  20.429  0.00  0.00    +0.000 A 
ATOM     20  C   UNL     1      -5.289  12.292  20.496  0.00  0.00    +0.000 A 
ENDBRANCH   6  15
BRANCH   1  21
ATOM     21  C   UNL     1       2.988  14.719  20.966  0.00  0.00    +0.000 C 
BRANCH  21  22
ATOM     22  O   UNL     1       3.300  14.328  22.306  0.00  0.00    +0.000 OA
ATOM     23  H   UNL     1       4.267  14.390  22.393  0.00  0.00    +0.000 HD
ENDBRANCH  21  22
ENDBRANCH   1  21
BRANCH  13  24
ATOM     24  C   UNL     1      -1.595  11.222  18.926  0.00  0.00    +0.000 C 
BRANCH  24  25
ATOM     25  C   UNL     1      -2.390  10.919  17.670  0.00  0.00    +0.000 A 
ATOM     26  C   UNL     1      -1.896   9.967  16.758  0.00  0.00    +0.000 A 
ATOM     27  C   UNL     1      -2.627   9.636  15.614  0.00  0.00    +0.000 A 
ATOM     28  C   UNL     1      -3.850  10.252  15.388  0.00  0.00    +0.000 A 
ATOM     29  F   UNL     1      -4.551   9.938  14.290  0.00  0.00    +0.000 F 
ATOM     30  C   UNL     1      -4.366  11.176  16.287  0.00  0.00    +0.000 A 
ATOM     31  C   UNL     1      -3.640  11.506  17.433  0.00  0.00    +0.000 A 
ENDBRANCH  24  25
ENDBRANCH  13  24
TORSDOF 5
ENDMDL
