MODEL 1
REMARK VINA RESULT:      -7.9      0.000      0.000
REMARK  Name = 
REMARK  8 active torsions:
REMARK  status: ('A' for Active; 'I' for Inactive)
REMARK    1  A    between atoms: C_2  and  C_3
REMARK    2  A    between atoms: C_3  and  N_4
REMARK    3  A    between atoms: C_5  and  C_7
REMARK    4  A    between atoms: C_7  and  N_8
REMARK    5  A    between atoms: C_7  and  C_24
REMARK    6  A    between atoms: N_8  and  C_9
REMARK    7  A    between atoms: C_9  and  C_10
REMARK    8  A    between atoms: C_16  and  C_18
REMARK                            x       y       z     vdW  Elec       q    Type
REMARK                         _______ _______ _______ _____ _____    ______ ____
ROOT
ATOM      1  N   UNL     1       4.854   4.563  17.828  0.00  0.00    +0.000 N 
ATOM      2  C   UNL     1       4.003   3.444  17.965  0.00  0.00    +0.000 C 
ATOM      3  O   UNL     1       4.026   2.553  17.114  0.00  0.00    +0.000 OA
ENDROOT
BRANCH   2   4
ATOM      4  C   UNL     1       3.075   3.215  19.115  0.00  0.00    +0.000 A 
ATOM      5  C   UNL     1       1.702   3.468  19.149  0.00  0.00    +0.000 A 
ATOM      6  C   UNL     1       0.969   3.215  20.313  0.00  0.00    +0.000 A 
ATOM      7  C   UNL     1       1.640   2.759  21.434  0.00  0.00    +0.000 A 
ATOM      8  N   UNL     1       2.972   2.570  21.469  0.00  0.00    +0.000 NA
ATOM      9  C   UNL     1       3.654   2.810  20.318  0.00  0.00    +0.000 A 
ENDBRANCH   2   4
BRANCH   1  10
ATOM     10  C   UNL     1       5.975   4.431  16.802  0.00  0.00    +0.000 C 
BRANCH  10  12
ATOM     11  N   UNL     1       7.780   6.164  17.328  0.00  0.00    +0.000 N 
ATOM     12  C   UNL     1       7.404   4.840  17.290  0.00  0.00    +0.000 C 
ATOM     13  O   UNL     1       8.188   4.053  17.810  0.00  0.00    +0.000 OA
ATOM     14  H   UNL     1       8.640   6.312  17.847  0.00  0.00    +0.000 HD
BRANCH  11  15
ATOM     15  C   UNL     1       6.908   7.281  17.121  0.00  0.00    +0.000 C 
BRANCH  15  17
ATOM     16  C   UNL     1       8.537   8.588  18.403  0.00  0.00    +0.000 C 
ATOM     17  C   UNL     1       7.439   8.565  17.634  0.00  0.00    +0.000 C 
ENDBRANCH  15  17
ENDBRANCH  11  15
ENDBRANCH  10  12
BRANCH  10  18
ATOM     18  C   UNL     1       5.634   5.027  15.416  0.00  0.00    +0.000 C 
ATOM     19  F   UNL     1       4.961   6.192  15.431  0.00  0.00    +0.000 F 
ATOM     20  F   UNL     1       6.768   5.240  14.700  0.00  0.00    +0.000 F 
ATOM     21  F   UNL     1       4.879   4.169  14.681  0.00  0.00    +0.000 F 
ENDBRANCH  10  18
ENDBRANCH   1  10
BRANCH   1  22
ATOM     22  C   UNL     1       4.924   5.752  18.696  0.00  0.00    +0.000 C 
BRANCH  22  23
ATOM     23  C   UNL     1       3.717   6.649  18.779  0.00  0.00    +0.000 A 
ATOM     24  C   UNL     1       2.861   6.711  19.880  0.00  0.00    +0.000 A 
ATOM     25  C   UNL     1       1.843   7.652  19.876  0.00  0.00    +0.000 A 
ATOM     26  N   UNL     1       1.592   8.492  18.847  0.00  0.00    +0.000 NA
ATOM     27  C   UNL     1       2.384   8.377  17.765  0.00  0.00    +0.000 A 
ATOM     28  C   UNL     1       3.438   7.481  17.683  0.00  0.00    +0.000 A 
ENDBRANCH  22  23
ENDBRANCH   1  22
TORSDOF 8
ENDMDL
MODEL 2
REMARK VINA RESULT:      -7.7      2.505      5.264
REMARK  Name = 
REMARK  8 active torsions:
REMARK  status: ('A' for Active; 'I' for Inactive)
REMARK    1  A    between atoms: C_2  and  C_3
REMARK    2  A    between atoms: C_3  and  N_4
REMARK    3  A    between atoms: C_5  and  C_7
REMARK    4  A    between atoms: C_7  and  N_8
REMARK    5  A    between atoms: C_7  and  C_24
REMARK    6  A    between atoms: N_8  and  C_9
REMARK    7  A    between atoms: C_9  and  C_10
REMARK    8  A    between atoms: C_16  and  C_18
REMARK                            x       y       z     vdW  Elec       q    Type
REMARK                         _______ _______ _______ _____ _____    ______ ____
ROOT
ATOM      1  N   UNL     1       5.262   5.100  16.524  0.00  0.00    +0.000 N 
ATOM      2  C   UNL     1       5.371   5.593  15.205  0.00  0.00    +0.000 C 
ATOM      3  O   UNL     1       5.213   6.796  14.989  0.00  0.00    +0.000 OA
ENDROOT
BRANCH   2   4
ATOM      4  C   UNL     1       5.717   4.762  14.012  0.00  0.00    +0.000 A 
ATOM      5  C   UNL     1       4.924   3.782  13.411  0.00  0.00    +0.000 A 
ATOM      6  C   UNL     1       5.399   3.075  12.302  0.00  0.00    +0.000 A 
ATOM      7  C   UNL     1       6.680   3.332  11.849  0.00  0.00    +0.000 A 
ATOM      8  N   UNL     1       7.507   4.215  12.440  0.00  0.00    +0.000 NA
ATOM      9  C   UNL     1       7.011   4.898  13.506  0.00  0.00    +0.000 A 
ENDBRANCH   2   4
BRANCH   1  10
ATOM     10  C   UNL     1       5.275   6.147  17.634  0.00  0.00    +0.000 C 
BRANCH  10  12
ATOM     11  N   UNL     1       7.631   6.585  18.526  0.00  0.00    +0.000 N 
ATOM     12  C   UNL     1       6.401   5.994  18.709  0.00  0.00    +0.000 C 
ATOM     13  O   UNL     1       6.211   5.501  19.816  0.00  0.00    +0.000 OA
ATOM     14  H   UNL     1       8.195   6.586  19.370  0.00  0.00    +0.000 HD
BRANCH  11  15
ATOM     15  C   UNL     1       7.959   7.514  17.487  0.00  0.00    +0.000 C 
BRANCH  15  17
ATOM     16  C   UNL     1       8.785   9.540  18.590  0.00  0.00    +0.000 C 
ATOM     17  C   UNL     1       7.822   8.936  17.882  0.00  0.00    +0.000 C 
ENDBRANCH  15  17
ENDBRANCH  11  15
ENDBRANCH  10  12
BRANCH  10  18
ATOM     18  C   UNL     1       3.889   6.410  18.268  0.00  0.00    +0.000 C 
ATOM     19  F   UNL     1       3.702   5.896  19.498  0.00  0.00    +0.000 F 
ATOM     20  F   UNL     1       3.657   7.744  18.364  0.00  0.00    +0.000 F 
ATOM     21  F   UNL     1       2.889   5.908  17.498  0.00  0.00    +0.000 F 
ENDBRANCH  10  18
ENDBRANCH   1  10
BRANCH   1  22
ATOM     22  C   UNL     1       5.351   3.699  16.972  0.00  0.00    +0.000 C 
BRANCH  22  23
ATOM     23  C   UNL     1       4.230   3.145  17.813  0.00  0.00    +0.000 A 
ATOM     24  C   UNL     1       4.356   2.808  19.162  0.00  0.00    +0.000 A 
ATOM     25  C   UNL     1       3.223   2.405  19.853  0.00  0.00    +0.000 A 
ATOM     26  N   UNL     1       2.002   2.271  19.292  0.00  0.00    +0.000 NA
ATOM     27  C   UNL     1       1.908   2.537  17.975  0.00  0.00    +0.000 A 
ATOM     28  C   UNL     1       2.977   2.964  17.205  0.00  0.00    +0.000 A 
ENDBRANCH  22  23
ENDBRANCH   1  22
TORSDOF 8
ENDMDL
MODEL 3
REMARK VINA RESULT:      -7.7      3.028      5.438
REMARK  Name = 
REMARK  8 active torsions:
REMARK  status: ('A' for Active; 'I' for Inactive)
REMARK    1  A    between atoms: C_2  and  C_3
REMARK    2  A    between atoms: C_3  and  N_4
REMARK    3  A    between atoms: C_5  and  C_7
REMARK    4  A    between atoms: C_7  and  N_8
REMARK    5  A    between atoms: C_7  and  C_24
REMARK    6  A    between atoms: N_8  and  C_9
REMARK    7  A    between atoms: C_9  and  C_10
REMARK    8  A    between atoms: C_16  and  C_18
REMARK                            x       y       z     vdW  Elec       q    Type
REMARK                         _______ _______ _______ _____ _____    ______ ____
ROOT
ATOM      1  N   UNL     1       3.338   4.845  19.070  0.00  0.00    +0.000 N 
ATOM      2  C   UNL     1       4.714   4.867  19.385  0.00  0.00    +0.000 C 
ATOM      3  O   UNL     1       5.167   4.057  20.194  0.00  0.00    +0.000 OA
ENDROOT
BRANCH   2   4
ATOM      4  C   UNL     1       5.713   5.793  18.769  0.00  0.00    +0.000 A 
ATOM      5  C   UNL     1       5.517   6.631  17.669  0.00  0.00    +0.000 A 
ATOM      6  C   UNL     1       6.563   7.431  17.198  0.00  0.00    +0.000 A 
ATOM      7  C   UNL     1       7.799   7.337  17.812  0.00  0.00    +0.000 A 
ATOM      8  N   UNL     1       8.055   6.491  18.828  0.00  0.00    +0.000 NA
ATOM      9  C   UNL     1       7.014   5.738  19.272  0.00  0.00    +0.000 A 
ENDBRANCH   2   4
BRANCH   1  10
ATOM     10  C   UNL     1       2.569   3.605  19.513  0.00  0.00    +0.000 C 
BRANCH  10  12
ATOM     11  N   UNL     1       2.543   2.362  17.278  0.00  0.00    +0.000 N 
ATOM     12  C   UNL     1       1.846   2.803  18.380  0.00  0.00    +0.000 C 
ATOM     13  O   UNL     1       0.697   2.386  18.481  0.00  0.00    +0.000 OA
ATOM     14  H   UNL     1       2.019   1.690  16.726  0.00  0.00    +0.000 HD
BRANCH  11  15
ATOM     15  C   UNL     1       3.966   2.409  17.123  0.00  0.00    +0.000 C 
BRANCH  15  17
ATOM     16  C   UNL     1       5.738   3.536  15.860  0.00  0.00    +0.000 C 
ATOM     17  C   UNL     1       4.434   3.420  16.145  0.00  0.00    +0.000 C 
ENDBRANCH  15  17
ENDBRANCH  11  15
ENDBRANCH  10  12
BRANCH  10  18
ATOM     18  C   UNL     1       1.660   3.833  20.744  0.00  0.00    +0.000 C 
ATOM     19  F   UNL     1       0.501   4.475  20.503  0.00  0.00    +0.000 F 
ATOM     20  F   UNL     1       1.336   2.647  21.321  0.00  0.00    +0.000 F 
ATOM     21  F   UNL     1       2.296   4.557  21.701  0.00  0.00    +0.000 F 
ENDBRANCH  10  18
ENDBRANCH   1  10
BRANCH   1  22
ATOM     22  C   UNL     1       2.601   5.766  18.186  0.00  0.00    +0.000 C 
BRANCH  22  23
ATOM     23  C   UNL     1       2.194   7.109  18.733  0.00  0.00    +0.000 A 
ATOM     24  C   UNL     1       2.017   8.253  17.952  0.00  0.00    +0.000 A 
ATOM     25  C   UNL     1       1.541   9.404  18.560  0.00  0.00    +0.000 A 
ATOM     26  N   UNL     1       1.277   9.509  19.881  0.00  0.00    +0.000 NA
ATOM     27  C   UNL     1       1.513   8.418  20.634  0.00  0.00    +0.000 A 
ATOM     28  C   UNL     1       1.969   7.217  20.115  0.00  0.00    +0.000 A 
ENDBRANCH  22  23
ENDBRANCH   1  22
TORSDOF 8
ENDMDL
MODEL 4
REMARK VINA RESULT:      -7.7      2.024      3.126
REMARK  Name = 
REMARK  8 active torsions:
REMARK  status: ('A' for Active; 'I' for Inactive)
REMARK    1  A    between atoms: C_2  and  C_3
REMARK    2  A    between atoms: C_3  and  N_4
REMARK    3  A    between atoms: C_5  and  C_7
REMARK    4  A    between atoms: C_7  and  N_8
REMARK    5  A    between atoms: C_7  and  C_24
REMARK    6  A    between atoms: N_8  and  C_9
REMARK    7  A    between atoms: C_9  and  C_10
REMARK    8  A    between atoms: C_16  and  C_18
REMARK                            x       y       z     vdW  Elec       q    Type
REMARK                         _______ _______ _______ _____ _____    ______ ____
ROOT
ATOM      1  N   UNL     1       4.937   5.412  17.484  0.00  0.00    +0.000 N 
ATOM      2  C   UNL     1       4.268   4.293  16.942  0.00  0.00    +0.000 C 
ATOM      3  O   UNL     1       4.588   3.871  15.830  0.00  0.00    +0.000 OA
ENDROOT
BRANCH   2   4
ATOM      4  C   UNL     1       3.196   3.521  17.642  0.00  0.00    +0.000 A 
ATOM      5  C   UNL     1       3.336   2.299  18.304  0.00  0.00    +0.000 A 
ATOM      6  C   UNL     1       2.227   1.691  18.900  0.00  0.00    +0.000 A 
ATOM      7  C   UNL     1       0.990   2.298  18.776  0.00  0.00    +0.000 A 
ATOM      8  N   UNL     1       0.795   3.438  18.086  0.00  0.00    +0.000 NA
ATOM      9  C   UNL     1       1.895   4.013  17.532  0.00  0.00    +0.000 A 
ENDBRANCH   2   4
BRANCH   1  10
ATOM     10  C   UNL     1       6.232   5.820  16.788  0.00  0.00    +0.000 C 
BRANCH  10  12
ATOM     11  N   UNL     1       7.377   4.227  15.148  0.00  0.00    +0.000 N 
ATOM     12  C   UNL     1       7.224   4.659  16.446  0.00  0.00    +0.000 C 
ATOM     13  O   UNL     1       8.020   4.196  17.255  0.00  0.00    +0.000 OA
ATOM     14  H   UNL     1       8.184   3.622  15.029  0.00  0.00    +0.000 HD
BRANCH  11  15
ATOM     15  C   UNL     1       6.828   4.866  13.990  0.00  0.00    +0.000 C 
BRANCH  15  17
ATOM     16  C   UNL     1       5.693   3.409  12.380  0.00  0.00    +0.000 C 
ATOM     17  C   UNL     1       6.820   4.015  12.777  0.00  0.00    +0.000 C 
ENDBRANCH  15  17
ENDBRANCH  11  15
ENDBRANCH  10  12
BRANCH  10  18
ATOM     18  C   UNL     1       6.944   7.029  17.440  0.00  0.00    +0.000 C 
ATOM     19  F   UNL     1       6.212   8.154  17.540  0.00  0.00    +0.000 F 
ATOM     20  F   UNL     1       7.352   6.717  18.697  0.00  0.00    +0.000 F 
ATOM     21  F   UNL     1       8.065   7.372  16.753  0.00  0.00    +0.000 F 
ENDBRANCH  10  18
ENDBRANCH   1  10
BRANCH   1  22
ATOM     22  C   UNL     1       4.657   6.100  18.757  0.00  0.00    +0.000 C 
BRANCH  22  23
ATOM     23  C   UNL     1       3.446   6.994  18.834  0.00  0.00    +0.000 A 
ATOM     24  C   UNL     1       2.588   7.056  19.933  0.00  0.00    +0.000 A 
ATOM     25  C   UNL     1       1.566   7.994  19.924  0.00  0.00    +0.000 A 
ATOM     26  N   UNL     1       1.315   8.830  18.894  0.00  0.00    +0.000 NA
ATOM     27  C   UNL     1       2.111   8.715  17.814  0.00  0.00    +0.000 A 
ATOM     28  C   UNL     1       3.167   7.823  17.736  0.00  0.00    +0.000 A 
ENDBRANCH  22  23
ENDBRANCH   1  22
TORSDOF 8
ENDMDL
MODEL 5
REMARK VINA RESULT:      -7.6      0.137      1.160
REMARK  Name = 
REMARK  8 active torsions:
REMARK  status: ('A' for Active; 'I' for Inactive)
REMARK    1  A    between atoms: C_2  and  C_3
REMARK    2  A    between atoms: C_3  and  N_4
REMARK    3  A    between atoms: C_5  and  C_7
REMARK    4  A    between atoms: C_7  and  N_8
REMARK    5  A    between atoms: C_7  and  C_24
REMARK    6  A    between atoms: N_8  and  C_9
REMARK    7  A    between atoms: C_9  and  C_10
REMARK    8  A    between atoms: C_16  and  C_18
REMARK                            x       y       z     vdW  Elec       q    Type
REMARK                         _______ _______ _______ _____ _____    ______ ____
ROOT
ATOM      1  N   UNL     1       4.839   4.560  17.804  0.00  0.00    +0.000 N 
ATOM      2  C   UNL     1       3.940   3.475  17.888  0.00  0.00    +0.000 C 
ATOM      3  O   UNL     1       3.958   2.599  17.022  0.00  0.00    +0.000 OA
ENDROOT
BRANCH   2   4
ATOM      4  C   UNL     1       2.961   3.264  18.999  0.00  0.00    +0.000 A 
ATOM      5  C   UNL     1       1.594   3.551  18.980  0.00  0.00    +0.000 A 
ATOM      6  C   UNL     1       0.809   3.311  20.112  0.00  0.00    +0.000 A 
ATOM      7  C   UNL     1       1.423   2.833  21.256  0.00  0.00    +0.000 A 
ATOM      8  N   UNL     1       2.748   2.611  21.344  0.00  0.00    +0.000 NA
ATOM      9  C   UNL     1       3.481   2.839  20.222  0.00  0.00    +0.000 A 
ENDBRANCH   2   4
BRANCH   1  10
ATOM     10  C   UNL     1       5.991   4.400  16.818  0.00  0.00    +0.000 C 
BRANCH  10  12
ATOM     11  N   UNL     1       7.800   6.117  17.383  0.00  0.00    +0.000 N 
ATOM     12  C   UNL     1       7.409   4.798  17.347  0.00  0.00    +0.000 C 
ATOM     13  O   UNL     1       8.166   4.007  17.900  0.00  0.00    +0.000 OA
ATOM     14  H   UNL     1       8.645   6.261  17.928  0.00  0.00    +0.000 HD
BRANCH  11  15
ATOM     15  C   UNL     1       6.949   7.242  17.137  0.00  0.00    +0.000 C 
BRANCH  15  17
ATOM     16  C   UNL     1       8.529   8.567  18.459  0.00  0.00    +0.000 C 
ATOM     17  C   UNL     1       7.511   8.536  17.589  0.00  0.00    +0.000 C 
ENDBRANCH  15  17
ENDBRANCH  11  15
ENDBRANCH  10  12
BRANCH  10  18
ATOM     18  C   UNL     1       5.704   4.982  15.414  0.00  0.00    +0.000 C 
ATOM     19  F   UNL     1       6.787   5.276  14.670  0.00  0.00    +0.000 F 
ATOM     20  F   UNL     1       4.955   4.115  14.685  0.00  0.00    +0.000 F 
ATOM     21  F   UNL     1       4.982   6.130  15.492  0.00  0.00    +0.000 F 
ENDBRANCH  10  18
ENDBRANCH   1  10
BRANCH   1  22
ATOM     22  C   UNL     1       4.926   5.729  18.698  0.00  0.00    +0.000 C 
BRANCH  22  23
ATOM     23  C   UNL     1       3.779   6.706  18.710  0.00  0.00    +0.000 A 
ATOM     24  C   UNL     1       3.478   7.573  17.658  0.00  0.00    +0.000 A 
ATOM     25  C   UNL     1       2.334   8.352  17.748  0.00  0.00    +0.000 A 
ATOM     26  N   UNL     1       1.506   8.361  18.815  0.00  0.00    +0.000 NA
ATOM     27  C   UNL     1       1.843   7.568  19.849  0.00  0.00    +0.000 A 
ATOM     28  C   UNL     1       2.955   6.741  19.846  0.00  0.00    +0.000 A 
ENDBRANCH  22  23
ENDBRANCH   1  22
TORSDOF 8
ENDMDL
MODEL 6
REMARK VINA RESULT:      -7.5      1.749      2.744
REMARK  Name = 
REMARK  8 active torsions:
REMARK  status: ('A' for Active; 'I' for Inactive)
REMARK    1  A    between atoms: C_2  and  C_3
REMARK    2  A    between atoms: C_3  and  N_4
REMARK    3  A    between atoms: C_5  and  C_7
REMARK    4  A    between atoms: C_7  and  N_8
REMARK    5  A    between atoms: C_7  and  C_24
REMARK    6  A    between atoms: N_8  and  C_9
REMARK    7  A    between atoms: C_9  and  C_10
REMARK    8  A    between atoms: C_16  and  C_18
REMARK                            x       y       z     vdW  Elec       q    Type
REMARK                         _______ _______ _______ _____ _____    ______ ____
ROOT
ATOM      1  N   UNL     1       3.864   5.137  17.784  0.00  0.00    +0.000 N 
ATOM      2  C   UNL     1       3.129   3.940  17.928  0.00  0.00    +0.000 C 
ATOM      3  O   UNL     1       2.967   3.203  16.954  0.00  0.00    +0.000 OA
ENDROOT
BRANCH   2   4
ATOM      4  C   UNL     1       2.546   3.448  19.214  0.00  0.00    +0.000 A 
ATOM      5  C   UNL     1       1.208   3.512  19.608  0.00  0.00    +0.000 A 
ATOM      6  C   UNL     1       0.819   3.019  20.858  0.00  0.00    +0.000 A 
ATOM      7  C   UNL     1       1.790   2.518  21.706  0.00  0.00    +0.000 A 
ATOM      8  N   UNL     1       3.101   2.504  21.398  0.00  0.00    +0.000 NA
ATOM      9  C   UNL     1       3.445   2.974  20.170  0.00  0.00    +0.000 A 
ENDBRANCH   2   4
BRANCH   1  10
ATOM     10  C   UNL     1       4.681   5.272  16.503  0.00  0.00    +0.000 C 
BRANCH  10  12
ATOM     11  N   UNL     1       6.184   3.677  15.185  0.00  0.00    +0.000 N 
ATOM     12  C   UNL     1       5.916   4.320  16.373  0.00  0.00    +0.000 C 
ATOM     13  O   UNL     1       6.783   4.223  17.234  0.00  0.00    +0.000 OA
ATOM     14  H   UNL     1       7.109   3.259  15.166  0.00  0.00    +0.000 HD
BRANCH  11  15
ATOM     15  C   UNL     1       5.523   3.927  13.939  0.00  0.00    +0.000 C 
BRANCH  15  17
ATOM     16  C   UNL     1       7.004   4.019  11.989  0.00  0.00    +0.000 C 
ATOM     17  C   UNL     1       6.184   3.302  12.769  0.00  0.00    +0.000 C 
ENDBRANCH  15  17
ENDBRANCH  11  15
ENDBRANCH  10  12
BRANCH  10  18
ATOM     18  C   UNL     1       5.022   6.732  16.124  0.00  0.00    +0.000 C 
ATOM     19  F   UNL     1       5.924   7.345  16.914  0.00  0.00    +0.000 F 
ATOM     20  F   UNL     1       5.508   6.792  14.858  0.00  0.00    +0.000 F 
ATOM     21  F   UNL     1       3.915   7.519  16.141  0.00  0.00    +0.000 F 
ENDBRANCH  10  18
ENDBRANCH   1  10
BRANCH   1  22
ATOM     22  C   UNL     1       4.107   6.173  18.804  0.00  0.00    +0.000 C 
BRANCH  22  23
ATOM     23  C   UNL     1       2.949   7.030  19.243  0.00  0.00    +0.000 A 
ATOM     24  C   UNL     1       2.273   6.872  20.455  0.00  0.00    +0.000 A 
ATOM     25  C   UNL     1       1.289   7.790  20.789  0.00  0.00    +0.000 A 
ATOM     26  N   UNL     1       0.904   8.812  19.993  0.00  0.00    +0.000 NA
ATOM     27  C   UNL     1       1.519   8.913  18.800  0.00  0.00    +0.000 A 
ATOM     28  C   UNL     1       2.526   8.057  18.385  0.00  0.00    +0.000 A 
ENDBRANCH  22  23
ENDBRANCH   1  22
TORSDOF 8
ENDMDL
MODEL 7
REMARK VINA RESULT:      -7.5      1.752      3.046
REMARK  Name = 
REMARK  8 active torsions:
REMARK  status: ('A' for Active; 'I' for Inactive)
REMARK    1  A    between atoms: C_2  and  C_3
REMARK    2  A    between atoms: C_3  and  N_4
REMARK    3  A    between atoms: C_5  and  C_7
REMARK    4  A    between atoms: C_7  and  N_8
REMARK    5  A    between atoms: C_7  and  C_24
REMARK    6  A    between atoms: N_8  and  C_9
REMARK    7  A    between atoms: C_9  and  C_10
REMARK    8  A    between atoms: C_16  and  C_18
REMARK                            x       y       z     vdW  Elec       q    Type
REMARK                         _______ _______ _______ _____ _____    ______ ____
ROOT
ATOM      1  N   UNL     1       3.976   5.132  17.451  0.00  0.00    +0.000 N 
ATOM      2  C   UNL     1       3.179   3.979  17.624  0.00  0.00    +0.000 C 
ATOM      3  O   UNL     1       2.988   3.222  16.671  0.00  0.00    +0.000 OA
ENDROOT
BRANCH   2   4
ATOM      4  C   UNL     1       2.560   3.558  18.918  0.00  0.00    +0.000 A 
ATOM      5  C   UNL     1       1.245   3.780  19.331  0.00  0.00    +0.000 A 
ATOM      6  C   UNL     1       0.817   3.335  20.587  0.00  0.00    +0.000 A 
ATOM      7  C   UNL     1       1.734   2.720  21.421  0.00  0.00    +0.000 A 
ATOM      8  N   UNL     1       3.029   2.550  21.094  0.00  0.00    +0.000 NA
ATOM      9  C   UNL     1       3.410   2.979  19.861  0.00  0.00    +0.000 A 
ENDBRANCH   2   4
BRANCH   1  10
ATOM     10  C   UNL     1       4.810   5.185  16.176  0.00  0.00    +0.000 C 
BRANCH  10  12
ATOM     11  N   UNL     1       6.146   3.431  14.881  0.00  0.00    +0.000 N 
ATOM     12  C   UNL     1       5.951   4.120  16.056  0.00  0.00    +0.000 C 
ATOM     13  O   UNL     1       6.814   3.961  16.912  0.00  0.00    +0.000 OA
ATOM     14  H   UNL     1       7.028   2.928  14.863  0.00  0.00    +0.000 HD
BRANCH  11  15
ATOM     15  C   UNL     1       5.498   3.714  13.635  0.00  0.00    +0.000 C 
BRANCH  15  17
ATOM     16  C   UNL     1       5.946   2.346  11.652  0.00  0.00    +0.000 C 
ATOM     17  C   UNL     1       6.305   3.367  12.442  0.00  0.00    +0.000 C 
ENDBRANCH  15  17
ENDBRANCH  11  15
ENDBRANCH  10  12
BRANCH  10  18
ATOM     18  C   UNL     1       5.291   6.605  15.796  0.00  0.00    +0.000 C 
ATOM     19  F   UNL     1       5.924   7.288  16.768  0.00  0.00    +0.000 F 
ATOM     20  F   UNL     1       6.143   6.551  14.740  0.00  0.00    +0.000 F 
ATOM     21  F   UNL     1       4.254   7.391  15.404  0.00  0.00    +0.000 F 
ENDBRANCH  10  18
ENDBRANCH   1  10
BRANCH   1  22
ATOM     22  C   UNL     1       4.263   6.185  18.442  0.00  0.00    +0.000 C 
BRANCH  22  23
ATOM     23  C   UNL     1       3.183   7.190  18.750  0.00  0.00    +0.000 A 
ATOM     24  C   UNL     1       2.777   8.197  17.873  0.00  0.00    +0.000 A 
ATOM     25  C   UNL     1       1.702   8.996  18.232  0.00  0.00    +0.000 A 
ATOM     26  N   UNL     1       1.042   8.893  19.407  0.00  0.00    +0.000 NA
ATOM     27  C   UNL     1       1.485   7.961  20.271  0.00  0.00    +0.000 A 
ATOM     28  C   UNL     1       2.539   7.104  19.995  0.00  0.00    +0.000 A 
ENDBRANCH  22  23
ENDBRANCH   1  22
TORSDOF 8
ENDMDL
MODEL 8
REMARK VINA RESULT:      -7.4      2.580      5.080
REMARK  Name = 
REMARK  8 active torsions:
REMARK  status: ('A' for Active; 'I' for Inactive)
REMARK    1  A    between atoms: C_2  and  C_3
REMARK    2  A    between atoms: C_3  and  N_4
REMARK    3  A    between atoms: C_5  and  C_7
REMARK    4  A    between atoms: C_7  and  N_8
REMARK    5  A    between atoms: C_7  and  C_24
REMARK    6  A    between atoms: N_8  and  C_9
REMARK    7  A    between atoms: C_9  and  C_10
REMARK    8  A    between atoms: C_16  and  C_18
REMARK                            x       y       z     vdW  Elec       q    Type
REMARK                         _______ _______ _______ _____ _____    ______ ____
ROOT
ATOM      1  N   UNL     1       3.229   5.868  18.146  0.00  0.00    +0.000 N 
ATOM      2  C   UNL     1       3.347   7.270  18.266  0.00  0.00    +0.000 C 
ATOM      3  O   UNL     1       4.452   7.802  18.149  0.00  0.00    +0.000 OA
ENDROOT
BRANCH   2   4
ATOM      4  C   UNL     1       2.201   8.205  18.490  0.00  0.00    +0.000 A 
ATOM      5  C   UNL     1       1.601   9.040  17.545  0.00  0.00    +0.000 A 
ATOM      6  C   UNL     1       0.541   9.874  17.915  0.00  0.00    +0.000 A 
ATOM      7  C   UNL     1       0.139   9.888  19.238  0.00  0.00    +0.000 A 
ATOM      8  N   UNL     1       0.734   9.155  20.198  0.00  0.00    +0.000 NA
ATOM      9  C   UNL     1       1.751   8.343  19.804  0.00  0.00    +0.000 A 
ENDBRANCH   2   4
BRANCH   1  10
ATOM     10  C   UNL     1       4.434   5.143  17.556  0.00  0.00    +0.000 C 
BRANCH  10  12
ATOM     11  N   UNL     1       4.822   4.100  15.254  0.00  0.00    +0.000 N 
ATOM     12  C   UNL     1       4.123   4.091  16.439  0.00  0.00    +0.000 C 
ATOM     13  O   UNL     1       3.386   3.127  16.611  0.00  0.00    +0.000 OA
ATOM     14  H   UNL     1       4.675   3.258  14.705  0.00  0.00    +0.000 HD
BRANCH  11  15
ATOM     15  C   UNL     1       5.979   4.898  14.978  0.00  0.00    +0.000 C 
BRANCH  15  17
ATOM     16  C   UNL     1       6.178   3.629  12.891  0.00  0.00    +0.000 C 
ATOM     17  C   UNL     1       6.726   4.481  13.768  0.00  0.00    +0.000 C 
ENDBRANCH  15  17
ENDBRANCH  11  15
ENDBRANCH  10  12
BRANCH  10  18
ATOM     18  C   UNL     1       5.424   4.602  18.613  0.00  0.00    +0.000 C 
ATOM     19  F   UNL     1       6.692   4.429  18.192  0.00  0.00    +0.000 F 
ATOM     20  F   UNL     1       5.480   5.437  19.682  0.00  0.00    +0.000 F 
ATOM     21  F   UNL     1       5.024   3.397  19.096  0.00  0.00    +0.000 F 
ENDBRANCH  10  18
ENDBRANCH   1  10
BRANCH   1  22
ATOM     22  C   UNL     1       2.017   5.048  18.320  0.00  0.00    +0.000 C 
BRANCH  22  23
ATOM     23  C   UNL     1       1.885   4.225  19.575  0.00  0.00    +0.000 A 
ATOM     24  C   UNL     1       1.288   2.964  19.626  0.00  0.00    +0.000 A 
ATOM     25  C   UNL     1       1.320   2.263  20.822  0.00  0.00    +0.000 A 
ATOM     26  N   UNL     1       1.856   2.741  21.966  0.00  0.00    +0.000 NA
ATOM     27  C   UNL     1       2.371   3.984  21.919  0.00  0.00    +0.000 A 
ATOM     28  C   UNL     1       2.402   4.755  20.768  0.00  0.00    +0.000 A 
ENDBRANCH  22  23
ENDBRANCH   1  22
TORSDOF 8
ENDMDL
MODEL 9
REMARK VINA RESULT:      -7.4      1.791      2.931
REMARK  Name = 
REMARK  8 active torsions:
REMARK  status: ('A' for Active; 'I' for Inactive)
REMARK    1  A    between atoms: C_2  and  C_3
REMARK    2  A    between atoms: C_3  and  N_4
REMARK    3  A    between atoms: C_5  and  C_7
REMARK    4  A    between atoms: C_7  and  N_8
REMARK    5  A    between atoms: C_7  and  C_24
REMARK    6  A    between atoms: N_8  and  C_9
REMARK    7  A    between atoms: C_9  and  C_10
REMARK    8  A    between atoms: C_16  and  C_18
REMARK                            x       y       z     vdW  Elec       q    Type
REMARK                         _______ _______ _______ _____ _____    ______ ____
ROOT
ATOM      1  N   UNL     1       4.803   5.406  17.593  0.00  0.00    +0.000 N 
ATOM      2  C   UNL     1       4.105   4.261  17.150  0.00  0.00    +0.000 C 
ATOM      3  O   UNL     1       4.381   3.763  16.057  0.00  0.00    +0.000 OA
ENDROOT
BRANCH   2   4
ATOM      4  C   UNL     1       3.052   3.548  17.937  0.00  0.00    +0.000 A 
ATOM      5  C   UNL     1       1.671   3.614  17.745  0.00  0.00    +0.000 A 
ATOM      6  C   UNL     1       0.809   2.896  18.580  0.00  0.00    +0.000 A 
ATOM      7  C   UNL     1       1.351   2.166  19.623  0.00  0.00    +0.000 A 
ATOM      8  N   UNL     1       2.670   2.132  19.891  0.00  0.00    +0.000 NA
ATOM      9  C   UNL     1       3.483   2.827  19.052  0.00  0.00    +0.000 A 
ENDBRANCH   2   4
BRANCH   1  10
ATOM     10  C   UNL     1       6.076   5.753  16.826  0.00  0.00    +0.000 C 
BRANCH  10  12
ATOM     11  N   UNL     1       7.060   4.042  15.200  0.00  0.00    +0.000 N 
ATOM     12  C   UNL     1       7.017   4.552  16.478  0.00  0.00    +0.000 C 
ATOM     13  O   UNL     1       7.867   4.119  17.249  0.00  0.00    +0.000 OA
ATOM     14  H   UNL     1       7.844   3.414  15.055  0.00  0.00    +0.000 HD
BRANCH  11  15
ATOM     15  C   UNL     1       6.433   4.625  14.052  0.00  0.00    +0.000 C 
BRANCH  15  17
ATOM     16  C   UNL     1       5.142   3.402  12.367  0.00  0.00    +0.000 C 
ATOM     17  C   UNL     1       6.336   3.714  12.888  0.00  0.00    +0.000 C 
ENDBRANCH  15  17
ENDBRANCH  11  15
ENDBRANCH  10  12
BRANCH  10  18
ATOM     18  C   UNL     1       6.852   6.959  17.406  0.00  0.00    +0.000 C 
ATOM     19  F   UNL     1       7.255   6.834  18.684  0.00  0.00    +0.000 F 
ATOM     20  F   UNL     1       7.964   7.206  16.668  0.00  0.00    +0.000 F 
ATOM     21  F   UNL     1       6.108   8.094  17.359  0.00  0.00    +0.000 F 
ENDBRANCH  10  18
ENDBRANCH   1  10
BRANCH   1  22
ATOM     22  C   UNL     1       4.575   6.179  18.827  0.00  0.00    +0.000 C 
BRANCH  22  23
ATOM     23  C   UNL     1       3.366   7.076  18.894  0.00  0.00    +0.000 A 
ATOM     24  C   UNL     1       2.483   7.121  19.974  0.00  0.00    +0.000 A 
ATOM     25  C   UNL     1       1.466   8.063  19.960  0.00  0.00    +0.000 A 
ATOM     26  N   UNL     1       1.242   8.921  18.940  0.00  0.00    +0.000 NA
ATOM     27  C   UNL     1       2.062   8.823  17.877  0.00  0.00    +0.000 A 
ATOM     28  C   UNL     1       3.116   7.928  17.806  0.00  0.00    +0.000 A 
ENDBRANCH  22  23
ENDBRANCH   1  22
TORSDOF 8
ENDMDL
