MODEL 1
REMARK VINA RESULT:      -8.1      0.000      0.000
REMARK  Name = 
REMARK  8 active torsions:
REMARK  status: ('A' for Active; 'I' for Inactive)
REMARK    1  A    between atoms: C_1  and  C_2
REMARK    2  A    between atoms: C_8  and  S_9
REMARK    3  A    between atoms: S_9  and  N_12
REMARK    4  A    between atoms: N_12  and  C_13
REMARK    5  A    between atoms: C_13  and  C_14
REMARK    6  A    between atoms: C_14  and  C_15
REMARK    7  A    between atoms: N_17  and  C_18
REMARK    8  A    between atoms: C_28  and  C_29
REMARK                            x       y       z     vdW  Elec       q    Type
REMARK                         _______ _______ _______ _____ _____    ______ ____
ROOT
ATOM      1  S   UNL     1       2.594   6.193  18.673  0.00  0.00    +0.000 S 
ATOM      2  O   UNL     1       1.629   5.635  17.751  0.00  0.00    +0.000 OA
ATOM      3  O   UNL     1       3.908   6.622  18.248  0.00  0.00    +0.000 OA
ENDROOT
BRANCH   1  11
ATOM      4  C   UNL     1      -1.274  12.349  22.786  0.00  0.00    +0.000 C 
ATOM      5  C   UNL     1      -0.476  11.096  22.539  0.00  0.00    +0.000 C 
ATOM      6  O   UNL     1      -0.260  10.342  23.489  0.00  0.00    +0.000 OA
ATOM      7  N   UNL     1      -0.064  10.862  21.235  0.00  0.00    +0.000 N 
ATOM      8  C   UNL     1       0.593   9.681  20.813  0.00  0.00    +0.000 A 
ATOM      9  C   UNL     1       0.853   8.516  21.524  0.00  0.00    +0.000 A 
ATOM     10  C   UNL     1       1.483   7.446  20.872  0.00  0.00    +0.000 A 
ATOM     11  C   UNL     1       1.835   7.558  19.517  0.00  0.00    +0.000 A 
ATOM     12  C   UNL     1       1.590   8.737  18.808  0.00  0.00    +0.000 A 
ATOM     13  C   UNL     1       0.980   9.788  19.479  0.00  0.00    +0.000 A 
ATOM     14  C   UNL     1       0.663  11.132  18.918  0.00  0.00    +0.000 C 
ATOM     15  C   UNL     1      -0.075  11.822  20.089  0.00  0.00    +0.000 C 
ATOM     16  C   UNL     1      -1.464  12.258  19.619  0.00  0.00    +0.000 C 
ENDBRANCH   1  11
BRANCH   1  17
ATOM     17  N   UNL     1       2.823   5.061  19.911  0.00  0.00    +0.000 NA
ATOM     18  H   UNL     1       2.720   5.504  20.829  0.00  0.00    +0.000 HD
BRANCH  17  19
ATOM     19  C   UNL     1       2.145   3.757  19.781  0.00  0.00    +0.000 C 
BRANCH  19  20
ATOM     20  C   UNL     1       3.020   2.763  19.022  0.00  0.00    +0.000 C 
BRANCH  20  21
ATOM     21  C   UNL     1       4.499   3.053  19.198  0.00  0.00    +0.000 C 
ATOM     22  O   UNL     1       5.153   2.632  20.151  0.00  0.00    +0.000 OA
ATOM     23  N   UNL     1       5.025   3.865  18.217  0.00  0.00    +0.000 N 
ATOM     24  H   UNL     1       4.479   4.028  17.379  0.00  0.00    +0.000 HD
BRANCH  23  25
ATOM     25  C   UNL     1       6.440   4.245  18.198  0.00  0.00    +0.000 C 
ATOM     26  C   UNL     1       6.892   4.567  16.766  0.00  0.00    +0.000 C 
ATOM     27  C   UNL     1       6.525   5.969  16.284  0.00  0.00    +0.000 C 
ATOM     28  C   UNL     1       7.592   7.011  16.615  0.00  0.00    +0.000 C 
ATOM     29  C   UNL     1       7.749   7.351  18.094  0.00  0.00    +0.000 C 
ATOM     30  C   UNL     1       7.966   6.161  19.027  0.00  0.00    +0.000 C 
ATOM     31  C   UNL     1       6.695   5.342  19.241  0.00  0.00    +0.000 C 
ENDBRANCH  23  25
ENDBRANCH  20  21
ENDBRANCH  19  20
ENDBRANCH  17  19
ENDBRANCH   1  17
TORSDOF 6
ENDMDL
MODEL 2
REMARK VINA RESULT:      -7.9      5.111      7.591
REMARK  Name = 
REMARK  8 active torsions:
REMARK  status: ('A' for Active; 'I' for Inactive)
REMARK    1  A    between atoms: C_1  and  C_2
REMARK    2  A    between atoms: C_8  and  S_9
REMARK    3  A    between atoms: S_9  and  N_12
REMARK    4  A    between atoms: N_12  and  C_13
REMARK    5  A    between atoms: C_13  and  C_14
REMARK    6  A    between atoms: C_14  and  C_15
REMARK    7  A    between atoms: N_17  and  C_18
REMARK    8  A    between atoms: C_28  and  C_29
REMARK                            x       y       z     vdW  Elec       q    Type
REMARK                         _______ _______ _______ _____ _____    ______ ____
ROOT
ATOM      1  S   UNL     1       6.612   5.694  16.416  0.00  0.00    +0.000 S 
ATOM      2  O   UNL     1       7.893   5.159  16.820  0.00  0.00    +0.000 OA
ATOM      3  O   UNL     1       6.102   5.541  15.072  0.00  0.00    +0.000 OA
ENDROOT
BRANCH   1  11
ATOM      4  C   UNL     1       1.047   2.489  21.757  0.00  0.00    +0.000 C 
ATOM      5  C   UNL     1       2.291   3.168  21.249  0.00  0.00    +0.000 C 
ATOM      6  O   UNL     1       3.224   3.346  22.034  0.00  0.00    +0.000 OA
ATOM      7  N   UNL     1       2.308   3.522  19.907  0.00  0.00    +0.000 N 
ATOM      8  C   UNL     1       3.439   4.062  19.247  0.00  0.00    +0.000 A 
ATOM      9  C   UNL     1       4.732   4.241  19.719  0.00  0.00    +0.000 A 
ATOM     10  C   UNL     1       5.708   4.758  18.855  0.00  0.00    +0.000 A 
ATOM     11  C   UNL     1       5.373   5.080  17.530  0.00  0.00    +0.000 A 
ATOM     12  C   UNL     1       4.066   4.917  17.060  0.00  0.00    +0.000 A 
ATOM     13  C   UNL     1       3.115   4.419  17.940  0.00  0.00    +0.000 A 
ATOM     14  C   UNL     1       1.669   4.204  17.650  0.00  0.00    +0.000 C 
ATOM     15  C   UNL     1       1.154   3.561  18.959  0.00  0.00    +0.000 C 
ATOM     16  C   UNL     1       0.528   2.202  18.639  0.00  0.00    +0.000 C 
ENDBRANCH   1  11
BRANCH   1  17
ATOM     17  N   UNL     1       6.632   7.354  16.748  0.00  0.00    +0.000 NA
ATOM     18  H   UNL     1       5.682   7.698  16.926  0.00  0.00    +0.000 HD
BRANCH  17  19
ATOM     19  C   UNL     1       7.650   7.851  17.693  0.00  0.00    +0.000 C 
BRANCH  19  20
ATOM     20  C   UNL     1       7.817   9.363  17.565  0.00  0.00    +0.000 C 
BRANCH  20  21
ATOM     21  C   UNL     1       8.897   9.899  18.486  0.00  0.00    +0.000 C 
ATOM     22  O   UNL     1       9.263   9.308  19.501  0.00  0.00    +0.000 OA
ATOM     23  N   UNL     1       9.392  11.127  18.104  0.00  0.00    +0.000 N 
ATOM     24  H   UNL     1       9.174  11.469  17.175  0.00  0.00    +0.000 HD
BRANCH  23  25
ATOM     25  C   UNL     1      10.454  11.805  18.851  0.00  0.00    +0.000 C 
ATOM     26  C   UNL     1      11.720  11.932  17.993  0.00  0.00    +0.000 C 
ATOM     27  C   UNL     1      11.701  13.092  16.999  0.00  0.00    +0.000 C 
ATOM     28  C   UNL     1      12.243  14.392  17.590  0.00  0.00    +0.000 C 
ATOM     29  C   UNL     1      11.375  15.044  18.663  0.00  0.00    +0.000 C 
ATOM     30  C   UNL     1      10.977  14.142  19.830  0.00  0.00    +0.000 C 
ATOM     31  C   UNL     1       9.915  13.115  19.443  0.00  0.00    +0.000 C 
ENDBRANCH  23  25
ENDBRANCH  20  21
ENDBRANCH  19  20
ENDBRANCH  17  19
ENDBRANCH   1  17
TORSDOF 6
ENDMDL
MODEL 3
REMARK VINA RESULT:      -7.8      4.881      7.400
REMARK  Name = 
REMARK  8 active torsions:
REMARK  status: ('A' for Active; 'I' for Inactive)
REMARK    1  A    between atoms: C_1  and  C_2
REMARK    2  A    between atoms: C_8  and  S_9
REMARK    3  A    between atoms: S_9  and  N_12
REMARK    4  A    between atoms: N_12  and  C_13
REMARK    5  A    between atoms: C_13  and  C_14
REMARK    6  A    between atoms: C_14  and  C_15
REMARK    7  A    between atoms: N_17  and  C_18
REMARK    8  A    between atoms: C_28  and  C_29
REMARK                            x       y       z     vdW  Elec       q    Type
REMARK                         _______ _______ _______ _____ _____    ______ ____
ROOT
ATOM      1  S   UNL     1       6.502   5.574  16.096  0.00  0.00    +0.000 S 
ATOM      2  O   UNL     1       7.754   4.858  16.213  0.00  0.00    +0.000 OA
ATOM      3  O   UNL     1       5.786   5.675  14.845  0.00  0.00    +0.000 OA
ENDROOT
BRANCH   1  11
ATOM      4  C   UNL     1       1.388   2.159  21.749  0.00  0.00    +0.000 C 
ATOM      5  C   UNL     1       2.646   2.702  21.125  0.00  0.00    +0.000 C 
ATOM      6  O   UNL     1       3.720   2.480  21.686  0.00  0.00    +0.000 OA
ATOM      7  N   UNL     1       2.505   3.395  19.931  0.00  0.00    +0.000 N 
ATOM      8  C   UNL     1       3.594   3.869  19.160  0.00  0.00    +0.000 A 
ATOM      9  C   UNL     1       4.956   3.665  19.340  0.00  0.00    +0.000 A 
ATOM     10  C   UNL     1       5.855   4.202  18.408  0.00  0.00    +0.000 A 
ATOM     11  C   UNL     1       5.374   4.927  17.305  0.00  0.00    +0.000 A 
ATOM     12  C   UNL     1       4.004   5.149  17.135  0.00  0.00    +0.000 A 
ATOM     13  C   UNL     1       3.136   4.621  18.080  0.00  0.00    +0.000 A 
ATOM     14  C   UNL     1       1.653   4.770  18.100  0.00  0.00    +0.000 C 
ATOM     15  C   UNL     1       1.243   3.907  19.317  0.00  0.00    +0.000 C 
ATOM     16  C   UNL     1       0.259   2.829  18.859  0.00  0.00    +0.000 C 
ENDBRANCH   1  11
BRANCH   1  17
ATOM     17  N   UNL     1       6.774   7.155  16.637  0.00  0.00    +0.000 NA
ATOM     18  H   UNL     1       6.068   7.793  16.257  0.00  0.00    +0.000 HD
BRANCH  17  19
ATOM     19  C   UNL     1       7.063   7.348  18.071  0.00  0.00    +0.000 C 
BRANCH  19  20
ATOM     20  C   UNL     1       8.455   7.942  18.268  0.00  0.00    +0.000 C 
BRANCH  20  21
ATOM     21  C   UNL     1       8.434   9.459  18.276  0.00  0.00    +0.000 C 
ATOM     22  O   UNL     1       7.759  10.121  17.488  0.00  0.00    +0.000 OA
ATOM     23  N   UNL     1       9.273  10.020  19.213  0.00  0.00    +0.000 N 
ATOM     24  H   UNL     1       9.659   9.424  19.935  0.00  0.00    +0.000 HD
BRANCH  23  25
ATOM     25  C   UNL     1       9.381  11.471  19.391  0.00  0.00    +0.000 C 
ATOM     26  C   UNL     1      10.474  11.808  20.416  0.00  0.00    +0.000 C 
ATOM     27  C   UNL     1      11.896  11.785  19.860  0.00  0.00    +0.000 C 
ATOM     28  C   UNL     1      12.333  13.133  19.287  0.00  0.00    +0.000 C 
ATOM     29  C   UNL     1      11.632  13.565  18.003  0.00  0.00    +0.000 C 
ATOM     30  C   UNL     1      10.104  13.562  18.050  0.00  0.00    +0.000 C 
ATOM     31  C   UNL     1       9.519  12.151  18.022  0.00  0.00    +0.000 C 
ENDBRANCH  23  25
ENDBRANCH  20  21
ENDBRANCH  19  20
ENDBRANCH  17  19
ENDBRANCH   1  17
TORSDOF 6
ENDMDL
MODEL 4
REMARK VINA RESULT:      -7.7      3.506      5.328
REMARK  Name = 
REMARK  8 active torsions:
REMARK  status: ('A' for Active; 'I' for Inactive)
REMARK    1  A    between atoms: C_1  and  C_2
REMARK    2  A    between atoms: C_8  and  S_9
REMARK    3  A    between atoms: S_9  and  N_12
REMARK    4  A    between atoms: N_12  and  C_13
REMARK    5  A    between atoms: C_13  and  C_14
REMARK    6  A    between atoms: C_14  and  C_15
REMARK    7  A    between atoms: N_17  and  C_18
REMARK    8  A    between atoms: C_28  and  C_29
REMARK                            x       y       z     vdW  Elec       q    Type
REMARK                         _______ _______ _______ _____ _____    ______ ____
ROOT
ATOM      1  S   UNL     1       4.876   4.762  18.091  0.00  0.00    +0.000 S 
ATOM      2  O   UNL     1       4.505   3.584  18.843  0.00  0.00    +0.000 OA
ATOM      3  O   UNL     1       5.000   4.751  16.651  0.00  0.00    +0.000 OA
ENDROOT
BRANCH   1  11
ATOM      4  C   UNL     1      -0.064  11.206  20.053  0.00  0.00    +0.000 C 
ATOM      5  C   UNL     1       0.791  10.278  19.231  0.00  0.00    +0.000 C 
ATOM      6  O   UNL     1       1.136  10.642  18.106  0.00  0.00    +0.000 OA
ATOM      7  N   UNL     1       1.159   9.077  19.821  0.00  0.00    +0.000 N 
ATOM      8  C   UNL     1       2.050   8.147  19.232  0.00  0.00    +0.000 A 
ATOM      9  C   UNL     1       2.800   8.262  18.069  0.00  0.00    +0.000 A 
ATOM     10  C   UNL     1       3.660   7.215  17.707  0.00  0.00    +0.000 A 
ATOM     11  C   UNL     1       3.759   6.074  18.519  0.00  0.00    +0.000 A 
ATOM     12  C   UNL     1       2.989   5.951  19.680  0.00  0.00    +0.000 A 
ATOM     13  C   UNL     1       2.134   6.994  20.009  0.00  0.00    +0.000 A 
ATOM     14  C   UNL     1       1.210   7.045  21.177  0.00  0.00    +0.000 C 
ATOM     15  C   UNL     1       0.600   8.462  21.063  0.00  0.00    +0.000 C 
ATOM     16  C   UNL     1       0.879   9.234  22.354  0.00  0.00    +0.000 C 
ENDBRANCH   1  11
BRANCH   1  17
ATOM     17  N   UNL     1       6.356   5.308  18.707  0.00  0.00    +0.000 NA
ATOM     18  H   UNL     1       6.858   4.544  19.171  0.00  0.00    +0.000 HD
BRANCH  17  19
ATOM     19  C   UNL     1       7.194   6.149  17.832  0.00  0.00    +0.000 C 
BRANCH  19  20
ATOM     20  C   UNL     1       8.150   7.007  18.657  0.00  0.00    +0.000 C 
BRANCH  20  21
ATOM     21  C   UNL     1       8.148   8.457  18.210  0.00  0.00    +0.000 C 
ATOM     22  O   UNL     1       7.514   8.853  17.233  0.00  0.00    +0.000 OA
ATOM     23  N   UNL     1       8.955   9.272  18.972  0.00  0.00    +0.000 N 
ATOM     24  H   UNL     1       9.304   8.920  19.856  0.00  0.00    +0.000 HD
BRANCH  23  25
ATOM     25  C   UNL     1       9.075  10.711  18.714  0.00  0.00    +0.000 C 
ATOM     26  C   UNL     1       9.214  11.485  20.032  0.00  0.00    +0.000 C 
ATOM     27  C   UNL     1      10.623  11.489  20.621  0.00  0.00    +0.000 C 
ATOM     28  C   UNL     1      11.478  12.648  20.112  0.00  0.00    +0.000 C 
ATOM     29  C   UNL     1      11.884  12.574  18.642  0.00  0.00    +0.000 C 
ATOM     30  C   UNL     1      10.740  12.378  17.649  0.00  0.00    +0.000 C 
ATOM     31  C   UNL     1      10.176  10.959  17.674  0.00  0.00    +0.000 C 
ENDBRANCH  23  25
ENDBRANCH  20  21
ENDBRANCH  19  20
ENDBRANCH  17  19
ENDBRANCH   1  17
TORSDOF 6
ENDMDL
MODEL 5
REMARK VINA RESULT:      -7.7      1.090      1.233
REMARK  Name = 
REMARK  8 active torsions:
REMARK  status: ('A' for Active; 'I' for Inactive)
REMARK    1  A    between atoms: C_1  and  C_2
REMARK    2  A    between atoms: C_8  and  S_9
REMARK    3  A    between atoms: S_9  and  N_12
REMARK    4  A    between atoms: N_12  and  C_13
REMARK    5  A    between atoms: C_13  and  C_14
REMARK    6  A    between atoms: C_14  and  C_15
REMARK    7  A    between atoms: N_17  and  C_18
REMARK    8  A    between atoms: C_28  and  C_29
REMARK                            x       y       z     vdW  Elec       q    Type
REMARK                         _______ _______ _______ _____ _____    ______ ____
ROOT
ATOM      1  S   UNL     1       2.368   6.220  19.453  0.00  0.00    +0.000 S 
ATOM      2  O   UNL     1       1.966   5.989  18.083  0.00  0.00    +0.000 OA
ATOM      3  O   UNL     1       3.755   6.216  19.861  0.00  0.00    +0.000 OA
ENDROOT
BRANCH   1  11
ATOM      4  C   UNL     1      -1.302  13.229  22.130  0.00  0.00    +0.000 C 
ATOM      5  C   UNL     1      -0.606  11.895  22.166  0.00  0.00    +0.000 C 
ATOM      6  O   UNL     1      -0.559  11.287  23.236  0.00  0.00    +0.000 OA
ATOM      7  N   UNL     1      -0.086  11.427  20.968  0.00  0.00    +0.000 N 
ATOM      8  C   UNL     1       0.496  10.147  20.805  0.00  0.00    +0.000 A 
ATOM      9  C   UNL     1       0.571   9.092  21.706  0.00  0.00    +0.000 A 
ATOM     10  C   UNL     1       1.161   7.888  21.298  0.00  0.00    +0.000 A 
ATOM     11  C   UNL     1       1.659   7.756  19.992  0.00  0.00    +0.000 A 
ATOM     12  C   UNL     1       1.600   8.824  19.091  0.00  0.00    +0.000 A 
ATOM     13  C   UNL     1       1.026  10.011  19.524  0.00  0.00    +0.000 A 
ATOM     14  C   UNL     1       0.896  11.270  18.736  0.00  0.00    +0.000 C 
ATOM     15  C   UNL     1       0.111  12.191  19.699  0.00  0.00    +0.000 C 
ATOM     16  C   UNL     1      -1.175  12.654  19.012  0.00  0.00    +0.000 C 
ENDBRANCH   1  11
BRANCH   1  17
ATOM     17  N   UNL     1       1.570   5.076  20.413  0.00  0.00    +0.000 NA
ATOM     18  H   UNL     1       0.631   4.889  20.046  0.00  0.00    +0.000 HD
BRANCH  17  19
ATOM     19  C   UNL     1       2.323   3.872  20.811  0.00  0.00    +0.000 C 
BRANCH  19  20
ATOM     20  C   UNL     1       2.092   2.735  19.819  0.00  0.00    +0.000 C 
BRANCH  20  21
ATOM     21  C   UNL     1       3.273   2.542  18.886  0.00  0.00    +0.000 C 
ATOM     22  O   UNL     1       3.548   1.458  18.373  0.00  0.00    +0.000 OA
ATOM     23  N   UNL     1       4.028   3.679  18.705  0.00  0.00    +0.000 N 
ATOM     24  H   UNL     1       3.648   4.567  19.012  0.00  0.00    +0.000 HD
BRANCH  23  25
ATOM     25  C   UNL     1       5.200   3.704  17.824  0.00  0.00    +0.000 C 
ATOM     26  C   UNL     1       4.836   4.309  16.461  0.00  0.00    +0.000 C 
ATOM     27  C   UNL     1       4.800   5.835  16.431  0.00  0.00    +0.000 C 
ATOM     28  C   UNL     1       6.155   6.456  16.092  0.00  0.00    +0.000 C 
ATOM     29  C   UNL     1       7.235   6.310  17.160  0.00  0.00    +0.000 C 
ATOM     30  C   UNL     1       7.494   4.886  17.648  0.00  0.00    +0.000 C 
ATOM     31  C   UNL     1       6.380   4.362  18.553  0.00  0.00    +0.000 C 
ENDBRANCH  23  25
ENDBRANCH  20  21
ENDBRANCH  19  20
ENDBRANCH  17  19
ENDBRANCH   1  17
TORSDOF 6
ENDMDL
MODEL 6
REMARK VINA RESULT:      -7.6      3.889      9.887
REMARK  Name = 
REMARK  8 active torsions:
REMARK  status: ('A' for Active; 'I' for Inactive)
REMARK    1  A    between atoms: C_1  and  C_2
REMARK    2  A    between atoms: C_8  and  S_9
REMARK    3  A    between atoms: S_9  and  N_12
REMARK    4  A    between atoms: N_12  and  C_13
REMARK    5  A    between atoms: C_13  and  C_14
REMARK    6  A    between atoms: C_14  and  C_15
REMARK    7  A    between atoms: N_17  and  C_18
REMARK    8  A    between atoms: C_28  and  C_29
REMARK                            x       y       z     vdW  Elec       q    Type
REMARK                         _______ _______ _______ _____ _____    ______ ____
ROOT
ATOM      1  S   UNL     1       0.951  10.687  18.972  0.00  0.00    +0.000 S 
ATOM      2  O   UNL     1       0.236  11.076  20.168  0.00  0.00    +0.000 OA
ATOM      3  O   UNL     1       2.057  11.457  18.450  0.00  0.00    +0.000 OA
ENDROOT
BRANCH   1  11
ATOM      4  C   UNL     1       3.757   2.935  20.311  0.00  0.00    +0.000 C 
ATOM      5  C   UNL     1       2.925   4.181  20.451  0.00  0.00    +0.000 C 
ATOM      6  O   UNL     1       2.188   4.286  21.433  0.00  0.00    +0.000 OA
ATOM      7  N   UNL     1       3.073   5.148  19.467  0.00  0.00    +0.000 N 
ATOM      8  C   UNL     1       2.453   6.421  19.509  0.00  0.00    +0.000 A 
ATOM      9  C   UNL     1       1.705   7.002  20.525  0.00  0.00    +0.000 A 
ATOM     10  C   UNL     1       1.227   8.310  20.356  0.00  0.00    +0.000 A 
ATOM     11  C   UNL     1       1.514   9.016  19.177  0.00  0.00    +0.000 A 
ATOM     12  C   UNL     1       2.252   8.423  18.147  0.00  0.00    +0.000 A 
ATOM     13  C   UNL     1       2.700   7.123  18.332  0.00  0.00    +0.000 A 
ATOM     14  C   UNL     1       3.469   6.304  17.351  0.00  0.00    +0.000 C 
ATOM     15  C   UNL     1       3.750   5.005  18.142  0.00  0.00    +0.000 C 
ATOM     16  C   UNL     1       5.260   4.772  18.204  0.00  0.00    +0.000 C 
ENDBRANCH   1  11
BRANCH   1  17
ATOM     17  N   UNL     1      -0.188  10.554  17.726  0.00  0.00    +0.000 NA
ATOM     18  H   UNL     1       0.207  10.043  16.929  0.00  0.00    +0.000 HD
BRANCH  17  19
ATOM     19  C   UNL     1      -1.559  10.153  18.091  0.00  0.00    +0.000 C 
BRANCH  19  20
ATOM     20  C   UNL     1      -2.424   9.980  16.846  0.00  0.00    +0.000 C 
BRANCH  20  21
ATOM     21  C   UNL     1      -3.693  10.810  16.910  0.00  0.00    +0.000 C 
ATOM     22  O   UNL     1      -4.286  11.201  15.905  0.00  0.00    +0.000 OA
ATOM     23  N   UNL     1      -4.087  11.121  18.192  0.00  0.00    +0.000 N 
ATOM     24  H   UNL     1      -3.657  10.626  18.965  0.00  0.00    +0.000 HD
BRANCH  23  25
ATOM     25  C   UNL     1      -5.298  11.900  18.467  0.00  0.00    +0.000 C 
ATOM     26  C   UNL     1      -6.548  11.019  18.328  0.00  0.00    +0.000 C 
ATOM     27  C   UNL     1      -6.850  10.147  19.545  0.00  0.00    +0.000 C 
ATOM     28  C   UNL     1      -7.735  10.848  20.575  0.00  0.00    +0.000 C 
ATOM     29  C   UNL     1      -7.086  12.007  21.325  0.00  0.00    +0.000 C 
ATOM     30  C   UNL     1      -6.454  13.090  20.452  0.00  0.00    +0.000 C 
ATOM     31  C   UNL     1      -5.147  12.636  19.806  0.00  0.00    +0.000 C 
ENDBRANCH  23  25
ENDBRANCH  20  21
ENDBRANCH  19  20
ENDBRANCH  17  19
ENDBRANCH   1  17
TORSDOF 6
ENDMDL
MODEL 7
REMARK VINA RESULT:      -7.6      4.296      7.291
REMARK  Name = 
REMARK  8 active torsions:
REMARK  status: ('A' for Active; 'I' for Inactive)
REMARK    1  A    between atoms: C_1  and  C_2
REMARK    2  A    between atoms: C_8  and  S_9
REMARK    3  A    between atoms: S_9  and  N_12
REMARK    4  A    between atoms: N_12  and  C_13
REMARK    5  A    between atoms: C_13  and  C_14
REMARK    6  A    between atoms: C_14  and  C_15
REMARK    7  A    between atoms: N_17  and  C_18
REMARK    8  A    between atoms: C_28  and  C_29
REMARK                            x       y       z     vdW  Elec       q    Type
REMARK                         _______ _______ _______ _____ _____    ______ ____
ROOT
ATOM      1  S   UNL     1       6.445   5.844  15.941  0.00  0.00    +0.000 S 
ATOM      2  O   UNL     1       7.255   4.764  15.426  0.00  0.00    +0.000 OA
ATOM      3  O   UNL     1       5.563   6.618  15.096  0.00  0.00    +0.000 OA
ENDROOT
BRANCH   1  11
ATOM      4  C   UNL     1       1.873   2.537  22.100  0.00  0.00    +0.000 C 
ATOM      5  C   UNL     1       3.047   2.803  21.196  0.00  0.00    +0.000 C 
ATOM      6  O   UNL     1       4.003   2.025  21.234  0.00  0.00    +0.000 OA
ATOM      7  N   UNL     1       2.954   3.901  20.354  0.00  0.00    +0.000 N 
ATOM      8  C   UNL     1       3.917   4.224  19.367  0.00  0.00    +0.000 A 
ATOM      9  C   UNL     1       5.034   3.507  18.959  0.00  0.00    +0.000 A 
ATOM     10  C   UNL     1       5.824   4.011  17.915  0.00  0.00    +0.000 A 
ATOM     11  C   UNL     1       5.476   5.221  17.292  0.00  0.00    +0.000 A 
ATOM     12  C   UNL     1       4.362   5.951  17.716  0.00  0.00    +0.000 A 
ATOM     13  C   UNL     1       3.606   5.440  18.761  0.00  0.00    +0.000 A 
ATOM     14  C   UNL     1       2.408   6.075  19.381  0.00  0.00    +0.000 C 
ATOM     15  C   UNL     1       1.958   5.013  20.412  0.00  0.00    +0.000 C 
ATOM     16  C   UNL     1       0.513   4.608  20.116  0.00  0.00    +0.000 C 
ENDBRANCH   1  11
BRANCH   1  17
ATOM     17  N   UNL     1       7.489   6.941  16.698  0.00  0.00    +0.000 NA
ATOM     18  H   UNL     1       7.439   7.860  16.245  0.00  0.00    +0.000 HD
BRANCH  17  19
ATOM     19  C   UNL     1       7.484   6.985  18.172  0.00  0.00    +0.000 C 
BRANCH  19  20
ATOM     20  C   UNL     1       8.606   7.880  18.692  0.00  0.00    +0.000 C 
BRANCH  20  21
ATOM     21  C   UNL     1       8.421   9.329  18.280  0.00  0.00    +0.000 C 
ATOM     22  O   UNL     1       7.545   9.692  17.496  0.00  0.00    +0.000 OA
ATOM     23  N   UNL     1       9.350  10.184  18.828  0.00  0.00    +0.000 N 
ATOM     24  H   UNL     1       9.926   9.849  19.592  0.00  0.00    +0.000 HD
BRANCH  23  25
ATOM     25  C   UNL     1       9.330  11.627  18.567  0.00  0.00    +0.000 C 
ATOM     26  C   UNL     1       9.305  12.412  19.886  0.00  0.00    +0.000 C 
ATOM     27  C   UNL     1      10.667  12.569  20.559  0.00  0.00    +0.000 C 
ATOM     28  C   UNL     1      11.422  13.813  20.094  0.00  0.00    +0.000 C 
ATOM     29  C   UNL     1      11.922  13.783  18.653  0.00  0.00    +0.000 C 
ATOM     30  C   UNL     1      10.868  13.464  17.593  0.00  0.00    +0.000 C 
ATOM     31  C   UNL     1      10.460  11.992  17.594  0.00  0.00    +0.000 C 
ENDBRANCH  23  25
ENDBRANCH  20  21
ENDBRANCH  19  20
ENDBRANCH  17  19
ENDBRANCH   1  17
TORSDOF 6
ENDMDL
MODEL 8
REMARK VINA RESULT:      -7.5      1.361      3.677
REMARK  Name = 
REMARK  8 active torsions:
REMARK  status: ('A' for Active; 'I' for Inactive)
REMARK    1  A    between atoms: C_1  and  C_2
REMARK    2  A    between atoms: C_8  and  S_9
REMARK    3  A    between atoms: S_9  and  N_12
REMARK    4  A    between atoms: N_12  and  C_13
REMARK    5  A    between atoms: C_13  and  C_14
REMARK    6  A    between atoms: C_14  and  C_15
REMARK    7  A    between atoms: N_17  and  C_18
REMARK    8  A    between atoms: C_28  and  C_29
REMARK                            x       y       z     vdW  Elec       q    Type
REMARK                         _______ _______ _______ _____ _____    ______ ____
ROOT
ATOM      1  S   UNL     1       3.095   6.765  17.822  0.00  0.00    +0.000 S 
ATOM      2  O   UNL     1       2.313   5.556  17.685  0.00  0.00    +0.000 OA
ATOM      3  O   UNL     1       3.544   7.527  16.679  0.00  0.00    +0.000 OA
ENDROOT
BRANCH   1  11
ATOM      4  C   UNL     1      -1.258  11.671  22.993  0.00  0.00    +0.000 C 
ATOM      5  C   UNL     1      -0.301  10.609  22.523  0.00  0.00    +0.000 C 
ATOM      6  O   UNL     1       0.132   9.803  23.349  0.00  0.00    +0.000 OA
ATOM      7  N   UNL     1       0.005  10.596  21.170  0.00  0.00    +0.000 N 
ATOM      8  C   UNL     1       0.795   9.598  20.548  0.00  0.00    +0.000 A 
ATOM      9  C   UNL     1       1.311   8.424  21.081  0.00  0.00    +0.000 A 
ATOM     10  C   UNL     1       2.033   7.557  20.248  0.00  0.00    +0.000 A 
ATOM     11  C   UNL     1       2.220   7.877  18.894  0.00  0.00    +0.000 A 
ATOM     12  C   UNL     1       1.716   9.068  18.362  0.00  0.00    +0.000 A 
ATOM     13  C   UNL     1       1.019   9.917  19.210  0.00  0.00    +0.000 A 
ATOM     14  C   UNL     1       0.434  11.241  18.853  0.00  0.00    +0.000 C 
ATOM     15  C   UNL     1      -0.279  11.660  20.160  0.00  0.00    +0.000 C 
ATOM     16  C   UNL     1      -1.761  11.901  19.868  0.00  0.00    +0.000 C 
ENDBRANCH   1  11
BRANCH   1  17
ATOM     17  N   UNL     1       4.473   6.374  18.725  0.00  0.00    +0.000 NA
ATOM     18  H   UNL     1       4.326   5.508  19.253  0.00  0.00    +0.000 HD
BRANCH  17  19
ATOM     19  C   UNL     1       5.782   6.463  18.049  0.00  0.00    +0.000 C 
BRANCH  19  20
ATOM     20  C   UNL     1       6.408   5.080  17.896  0.00  0.00    +0.000 C 
BRANCH  20  21
ATOM     21  C   UNL     1       5.368   3.975  17.914  0.00  0.00    +0.000 C 
ATOM     22  O   UNL     1       4.845   3.535  16.891  0.00  0.00    +0.000 OA
ATOM     23  N   UNL     1       5.035   3.548  19.180  0.00  0.00    +0.000 N 
ATOM     24  H   UNL     1       5.624   3.827  19.956  0.00  0.00    +0.000 HD
BRANCH  23  25
ATOM     25  C   UNL     1       4.063   2.475  19.409  0.00  0.00    +0.000 C 
ATOM     26  C   UNL     1       3.545   2.517  20.853  0.00  0.00    +0.000 C 
ATOM     27  C   UNL     1       2.444   3.546  21.104  0.00  0.00    +0.000 C 
ATOM     28  C   UNL     1       1.042   2.991  20.855  0.00  0.00    +0.000 C 
ATOM     29  C   UNL     1       0.698   2.692  19.399  0.00  0.00    +0.000 C 
ATOM     30  C   UNL     1       1.685   1.792  18.657  0.00  0.00    +0.000 C 
ATOM     31  C   UNL     1       2.989   2.507  18.313  0.00  0.00    +0.000 C 
ENDBRANCH  23  25
ENDBRANCH  20  21
ENDBRANCH  19  20
ENDBRANCH  17  19
ENDBRANCH   1  17
TORSDOF 6
ENDMDL
MODEL 9
REMARK VINA RESULT:      -7.5      3.189      5.646
REMARK  Name = 
REMARK  8 active torsions:
REMARK  status: ('A' for Active; 'I' for Inactive)
REMARK    1  A    between atoms: C_1  and  C_2
REMARK    2  A    between atoms: C_8  and  S_9
REMARK    3  A    between atoms: S_9  and  N_12
REMARK    4  A    between atoms: N_12  and  C_13
REMARK    5  A    between atoms: C_13  and  C_14
REMARK    6  A    between atoms: C_14  and  C_15
REMARK    7  A    between atoms: N_17  and  C_18
REMARK    8  A    between atoms: C_28  and  C_29
REMARK                            x       y       z     vdW  Elec       q    Type
REMARK                         _______ _______ _______ _____ _____    ______ ____
ROOT
ATOM      1  S   UNL     1       0.656  11.413  21.188  0.00  0.00    +0.000 S 
ATOM      2  O   UNL     1       1.410  12.624  20.951  0.00  0.00    +0.000 OA
ATOM      3  O   UNL     1       1.141  10.359  22.051  0.00  0.00    +0.000 OA
ENDROOT
BRANCH   1  11
ATOM      4  C   UNL     1      -7.025  13.141  23.979  0.00  0.00    +0.000 C 
ATOM      5  C   UNL     1      -5.567  12.767  23.991  0.00  0.00    +0.000 C 
ATOM      6  O   UNL     1      -5.088  12.310  25.030  0.00  0.00    +0.000 OA
ATOM      7  N   UNL     1      -4.866  12.937  22.806  0.00  0.00    +0.000 N 
ATOM      8  C   UNL     1      -3.523  12.529  22.616  0.00  0.00    +0.000 A 
ATOM      9  C   UNL     1      -2.692  11.811  23.466  0.00  0.00    +0.000 A 
ATOM     10  C   UNL     1      -1.400  11.479  23.035  0.00  0.00    +0.000 A 
ATOM     11  C   UNL     1      -0.963  11.866  21.758  0.00  0.00    +0.000 A 
ATOM     12  C   UNL     1      -1.793  12.605  20.910  0.00  0.00    +0.000 A 
ATOM     13  C   UNL     1      -3.062  12.935  21.365  0.00  0.00    +0.000 A 
ATOM     14  C   UNL     1      -4.083  13.741  20.635  0.00  0.00    +0.000 C 
ATOM     15  C   UNL     1      -5.298  13.694  21.592  0.00  0.00    +0.000 C 
ATOM     16  C   UNL     1      -6.498  13.103  20.849  0.00  0.00    +0.000 C 
ENDBRANCH   1  11
BRANCH   1  17
ATOM     17  N   UNL     1       0.344  10.709  19.680  0.00  0.00    +0.000 NA
ATOM     18  H   UNL     1      -0.574  11.000  19.328  0.00  0.00    +0.000 HD
BRANCH  17  19
ATOM     19  C   UNL     1       1.423  10.740  18.674  0.00  0.00    +0.000 C 
BRANCH  19  20
ATOM     20  C   UNL     1       1.481   9.425  17.900  0.00  0.00    +0.000 C 
BRANCH  20  21
ATOM     21  C   UNL     1       1.936   8.269  18.770  0.00  0.00    +0.000 C 
ATOM     22  O   UNL     1       1.729   8.223  19.982  0.00  0.00    +0.000 OA
ATOM     23  N   UNL     1       2.640   7.304  18.085  0.00  0.00    +0.000 N 
ATOM     24  H   UNL     1       2.622   7.319  17.072  0.00  0.00    +0.000 HD
BRANCH  23  25
ATOM     25  C   UNL     1       3.150   6.097  18.743  0.00  0.00    +0.000 C 
ATOM     26  C   UNL     1       2.032   5.057  18.903  0.00  0.00    +0.000 C 
ATOM     27  C   UNL     1       1.745   4.234  17.649  0.00  0.00    +0.000 C 
ATOM     28  C   UNL     1       2.599   2.970  17.558  0.00  0.00    +0.000 C 
ATOM     29  C   UNL     1       4.087   3.194  17.305  0.00  0.00    +0.000 C 
ATOM     30  C   UNL     1       4.786   4.150  18.270  0.00  0.00    +0.000 C 
ATOM     31  C   UNL     1       4.415   5.611  18.022  0.00  0.00    +0.000 C 
ENDBRANCH  23  25
ENDBRANCH  20  21
ENDBRANCH  19  20
ENDBRANCH  17  19
ENDBRANCH   1  17
TORSDOF 6
ENDMDL
