MODEL 1
REMARK VINA RESULT:      -8.4      0.000      0.000
REMARK  Name = 
REMARK  2 active torsions:
REMARK  status: ('A' for Active; 'I' for Inactive)
REMARK    1  A    between atoms: N_15  and  C_16
REMARK    2  A    between atoms: C_16  and  C_17
REMARK                            x       y       z     vdW  Elec       q    Type
REMARK                         _______ _______ _______ _____ _____    ______ ____
ROOT
ATOM      1  O   UNL     1       7.022   4.399  18.568  0.00  0.00    +0.000 OA
ATOM      2  C   UNL     1       5.833   4.124  18.382  0.00  0.00    +0.000 C 
ATOM      3  N   UNL     1       5.060   3.759  19.458  0.00  0.00    +0.000 N 
ATOM      4  C   UNL     1       3.687   3.522  19.392  0.00  0.00    +0.000 A 
ATOM      5  C   UNL     1       2.932   3.469  20.561  0.00  0.00    +0.000 A 
ATOM      6  C   UNL     1       1.543   3.361  20.479  0.00  0.00    +0.000 A 
ATOM      7  C   UNL     1       0.919   3.275  19.233  0.00  0.00    +0.000 A 
ATOM      8  C   UNL     1       1.686   3.255  18.067  0.00  0.00    +0.000 A 
ATOM      9  C   UNL     1       3.075   3.377  18.145  0.00  0.00    +0.000 A 
ATOM     10  C   UNL     1       3.952   3.282  16.928  0.00  0.00    +0.000 C 
ATOM     11  C   UNL     1       5.135   4.272  17.007  0.00  0.00    +0.000 C 
ATOM     12  C   UNL     1       6.133   3.982  15.872  0.00  0.00    +0.000 C 
ATOM     13  C   UNL     1       5.555   4.725  14.689  0.00  0.00    +0.000 C 
ATOM     14  C   UNL     1       5.068   6.007  15.327  0.00  0.00    +0.000 C 
ATOM     15  N   UNL     1       4.616   5.647  16.686  0.00  0.00    +0.000 NA
ATOM     16  H   UNL     1       5.528   3.769  20.354  0.00  0.00    +0.000 HD
ENDROOT
BRANCH  15  17
ATOM     17  C   UNL     1       4.893   6.722  17.650  0.00  0.00    +0.000 C 
BRANCH  17  18
ATOM     18  C   UNL     1       3.611   7.344  18.188  0.00  0.00    +0.000 A 
ATOM     19  C   UNL     1       3.000   8.409  17.504  0.00  0.00    +0.000 A 
ATOM     20  C   UNL     1       1.877   9.046  18.039  0.00  0.00    +0.000 A 
ATOM     21  C   UNL     1       1.357   8.613  19.251  0.00  0.00    +0.000 A 
ATOM     22  F   UNL     1       0.299   9.244  19.780  0.00  0.00    +0.000 F 
ATOM     23  C   UNL     1       1.926   7.543  19.932  0.00  0.00    +0.000 A 
ATOM     24  C   UNL     1       3.050   6.903  19.399  0.00  0.00    +0.000 A 
ENDBRANCH  17  18
ENDBRANCH  15  17
TORSDOF 2
ENDMDL
MODEL 2
REMARK VINA RESULT:      -8.0      2.660      4.671
REMARK  Name = 
REMARK  2 active torsions:
REMARK  status: ('A' for Active; 'I' for Inactive)
REMARK    1  A    between atoms: N_15  and  C_16
REMARK    2  A    between atoms: C_16  and  C_17
REMARK                            x       y       z     vdW  Elec       q    Type
REMARK                         _______ _______ _______ _____ _____    ______ ____
ROOT
ATOM      1  O   UNL     1       2.583   3.414  21.543  0.00  0.00    +0.000 OA
ATOM      2  C   UNL     1       2.384   4.175  20.592  0.00  0.00    +0.000 C 
ATOM      3  N   UNL     1       2.133   5.502  20.846  0.00  0.00    +0.000 N 
ATOM      4  C   UNL     1       1.991   6.476  19.857  0.00  0.00    +0.000 A 
ATOM      5  C   UNL     1       2.055   7.826  20.194  0.00  0.00    +0.000 A 
ATOM      6  C   UNL     1       2.042   8.788  19.183  0.00  0.00    +0.000 A 
ATOM      7  C   UNL     1       1.933   8.400  17.847  0.00  0.00    +0.000 A 
ATOM      8  C   UNL     1       1.796   7.051  17.519  0.00  0.00    +0.000 A 
ATOM      9  C   UNL     1       1.823   6.084  18.527  0.00  0.00    +0.000 A 
ATOM     10  C   UNL     1       1.600   4.626  18.238  0.00  0.00    +0.000 C 
ATOM     11  C   UNL     1       2.506   3.732  19.113  0.00  0.00    +0.000 C 
ATOM     12  C   UNL     1       2.084   2.260  18.964  0.00  0.00    +0.000 C 
ATOM     13  C   UNL     1       2.802   1.808  17.712  0.00  0.00    +0.000 C 
ATOM     14  C   UNL     1       4.148   2.482  17.857  0.00  0.00    +0.000 C 
ATOM     15  N   UNL     1       3.896   3.768  18.537  0.00  0.00    +0.000 NA
ATOM     16  H   UNL     1       2.158   5.772  21.820  0.00  0.00    +0.000 HD
ENDROOT
BRANCH  15  17
ATOM     17  C   UNL     1       4.998   4.129  19.439  0.00  0.00    +0.000 C 
BRANCH  17  18
ATOM     18  C   UNL     1       5.844   5.263  18.875  0.00  0.00    +0.000 A 
ATOM     19  C   UNL     1       5.357   6.049  17.817  0.00  0.00    +0.000 A 
ATOM     20  C   UNL     1       6.163   7.031  17.231  0.00  0.00    +0.000 A 
ATOM     21  C   UNL     1       7.450   7.235  17.711  0.00  0.00    +0.000 A 
ATOM     22  F   UNL     1       8.234   8.154  17.130  0.00  0.00    +0.000 F 
ATOM     23  C   UNL     1       7.943   6.490  18.776  0.00  0.00    +0.000 A 
ATOM     24  C   UNL     1       7.139   5.507  19.363  0.00  0.00    +0.000 A 
ENDBRANCH  17  18
ENDBRANCH  15  17
TORSDOF 2
ENDMDL
MODEL 3
REMARK VINA RESULT:      -8.0      0.182      1.024
REMARK  Name = 
REMARK  2 active torsions:
REMARK  status: ('A' for Active; 'I' for Inactive)
REMARK    1  A    between atoms: N_15  and  C_16
REMARK    2  A    between atoms: C_16  and  C_17
REMARK                            x       y       z     vdW  Elec       q    Type
REMARK                         _______ _______ _______ _____ _____    ______ ____
ROOT
ATOM      1  O   UNL     1       6.948   4.274  18.592  0.00  0.00    +0.000 OA
ATOM      2  C   UNL     1       5.744   4.065  18.420  0.00  0.00    +0.000 C 
ATOM      3  N   UNL     1       4.962   3.756  19.507  0.00  0.00    +0.000 N 
ATOM      4  C   UNL     1       3.577   3.596  19.457  0.00  0.00    +0.000 A 
ATOM      5  C   UNL     1       2.833   3.599  20.634  0.00  0.00    +0.000 A 
ATOM      6  C   UNL     1       1.438   3.569  20.565  0.00  0.00    +0.000 A 
ATOM      7  C   UNL     1       0.799   3.504  19.326  0.00  0.00    +0.000 A 
ATOM      8  C   UNL     1       1.551   3.428  18.153  0.00  0.00    +0.000 A 
ATOM      9  C   UNL     1       2.946   3.472  18.217  0.00  0.00    +0.000 A 
ATOM     10  C   UNL     1       3.804   3.313  16.994  0.00  0.00    +0.000 C 
ATOM     11  C   UNL     1       5.042   4.236  17.049  0.00  0.00    +0.000 C 
ATOM     12  C   UNL     1       6.011   3.877  15.910  0.00  0.00    +0.000 C 
ATOM     13  C   UNL     1       5.463   4.637  14.723  0.00  0.00    +0.000 C 
ATOM     14  C   UNL     1       5.056   5.952  15.350  0.00  0.00    +0.000 C 
ATOM     15  N   UNL     1       4.598   5.634  16.717  0.00  0.00    +0.000 NA
ATOM     16  H   UNL     1       5.439   3.751  20.399  0.00  0.00    +0.000 HD
ENDROOT
BRANCH  15  17
ATOM     17  C   UNL     1       4.944   6.702  17.665  0.00  0.00    +0.000 C 
BRANCH  17  18
ATOM     18  C   UNL     1       3.707   7.433  18.171  0.00  0.00    +0.000 A 
ATOM     19  C   UNL     1       3.074   7.016  19.355  0.00  0.00    +0.000 A 
ATOM     20  C   UNL     1       1.886   7.619  19.776  0.00  0.00    +0.000 A 
ATOM     21  C   UNL     1       1.336   8.647  19.023  0.00  0.00    +0.000 A 
ATOM     22  F   UNL     1       0.180   9.206  19.409  0.00  0.00    +0.000 F 
ATOM     23  C   UNL     1       1.959   9.097  17.864  0.00  0.00    +0.000 A 
ATOM     24  C   UNL     1       3.147   8.495  17.440  0.00  0.00    +0.000 A 
ENDBRANCH  17  18
ENDBRANCH  15  17
TORSDOF 2
ENDMDL
MODEL 4
REMARK VINA RESULT:      -7.9      2.659      4.764
REMARK  Name = 
REMARK  2 active torsions:
REMARK  status: ('A' for Active; 'I' for Inactive)
REMARK    1  A    between atoms: N_15  and  C_16
REMARK    2  A    between atoms: C_16  and  C_17
REMARK                            x       y       z     vdW  Elec       q    Type
REMARK                         _______ _______ _______ _____ _____    ______ ____
ROOT
ATOM      1  O   UNL     1       2.603   3.511  21.583  0.00  0.00    +0.000 OA
ATOM      2  C   UNL     1       2.393   4.254  20.620  0.00  0.00    +0.000 C 
ATOM      3  N   UNL     1       2.146   5.585  20.851  0.00  0.00    +0.000 N 
ATOM      4  C   UNL     1       1.993   6.541  19.845  0.00  0.00    +0.000 A 
ATOM      5  C   UNL     1       2.063   7.896  20.155  0.00  0.00    +0.000 A 
ATOM      6  C   UNL     1       2.039   8.839  19.126  0.00  0.00    +0.000 A 
ATOM      7  C   UNL     1       1.914   8.425  17.799  0.00  0.00    +0.000 A 
ATOM      8  C   UNL     1       1.772   7.070  17.499  0.00  0.00    +0.000 A 
ATOM      9  C   UNL     1       1.810   6.123  18.525  0.00  0.00    +0.000 A 
ATOM     10  C   UNL     1       1.582   4.660  18.267  0.00  0.00    +0.000 C 
ATOM     11  C   UNL     1       2.497   3.782  19.149  0.00  0.00    +0.000 C 
ATOM     12  C   UNL     1       2.073   2.308  19.033  0.00  0.00    +0.000 C 
ATOM     13  C   UNL     1       2.775   1.831  17.782  0.00  0.00    +0.000 C 
ATOM     14  C   UNL     1       4.124   2.506  17.898  0.00  0.00    +0.000 C 
ATOM     15  N   UNL     1       3.880   3.805  18.555  0.00  0.00    +0.000 NA
ATOM     16  H   UNL     1       2.183   5.874  21.819  0.00  0.00    +0.000 HD
ENDROOT
BRANCH  15  17
ATOM     17  C   UNL     1       4.993   4.182  19.438  0.00  0.00    +0.000 C 
BRANCH  17  18
ATOM     18  C   UNL     1       5.891   5.235  18.799  0.00  0.00    +0.000 A 
ATOM     19  C   UNL     1       7.168   5.490  19.327  0.00  0.00    +0.000 A 
ATOM     20  C   UNL     1       7.960   6.518  18.807  0.00  0.00    +0.000 A 
ATOM     21  C   UNL     1       7.481   7.283  17.752  0.00  0.00    +0.000 A 
ATOM     22  F   UNL     1       8.227   8.288  17.273  0.00  0.00    +0.000 F 
ATOM     23  C   UNL     1       6.233   7.030  17.193  0.00  0.00    +0.000 A 
ATOM     24  C   UNL     1       5.439   6.003  17.713  0.00  0.00    +0.000 A 
ENDBRANCH  17  18
ENDBRANCH  15  17
TORSDOF 2
ENDMDL
MODEL 5
REMARK VINA RESULT:      -7.1      3.405      5.397
REMARK  Name = 
REMARK  2 active torsions:
REMARK  status: ('A' for Active; 'I' for Inactive)
REMARK    1  A    between atoms: N_15  and  C_16
REMARK    2  A    between atoms: C_16  and  C_17
REMARK                            x       y       z     vdW  Elec       q    Type
REMARK                         _______ _______ _______ _____ _____    ______ ____
ROOT
ATOM      1  O   UNL     1       4.441   7.351  17.831  0.00  0.00    +0.000 OA
ATOM      2  C   UNL     1       4.251   6.171  18.139  0.00  0.00    +0.000 C 
ATOM      3  N   UNL     1       2.963   5.735  18.334  0.00  0.00    +0.000 N 
ATOM      4  C   UNL     1       2.614   4.407  18.587  0.00  0.00    +0.000 A 
ATOM      5  C   UNL     1       1.289   4.000  18.460  0.00  0.00    +0.000 A 
ATOM      6  C   UNL     1       0.971   2.646  18.587  0.00  0.00    +0.000 A 
ATOM      7  C   UNL     1       1.971   1.715  18.873  0.00  0.00    +0.000 A 
ATOM      8  C   UNL     1       3.286   2.139  19.071  0.00  0.00    +0.000 A 
ATOM      9  C   UNL     1       3.610   3.490  18.930  0.00  0.00    +0.000 A 
ATOM     10  C   UNL     1       4.991   4.011  19.210  0.00  0.00    +0.000 C 
ATOM     11  C   UNL     1       5.389   5.122  18.214  0.00  0.00    +0.000 C 
ATOM     12  C   UNL     1       6.696   5.790  18.673  0.00  0.00    +0.000 C 
ATOM     13  C   UNL     1       7.773   4.879  18.129  0.00  0.00    +0.000 C 
ATOM     14  C   UNL     1       7.226   4.520  16.765  0.00  0.00    +0.000 C 
ATOM     15  N   UNL     1       5.758   4.469  16.909  0.00  0.00    +0.000 NA
ATOM     16  H   UNL     1       2.241   6.426  18.180  0.00  0.00    +0.000 HD
ENDROOT
BRANCH  15  17
ATOM     17  C   UNL     1       5.079   4.943  15.695  0.00  0.00    +0.000 C 
BRANCH  17  18
ATOM     18  C   UNL     1       5.829   4.539  14.432  0.00  0.00    +0.000 A 
ATOM     19  C   UNL     1       7.028   5.185  14.085  0.00  0.00    +0.000 A 
ATOM     20  C   UNL     1       7.673   4.887  12.881  0.00  0.00    +0.000 A 
ATOM     21  C   UNL     1       7.128   3.935  12.030  0.00  0.00    +0.000 A 
ATOM     22  F   UNL     1       7.729   3.671  10.861  0.00  0.00    +0.000 F 
ATOM     23  C   UNL     1       5.959   3.261  12.365  0.00  0.00    +0.000 A 
ATOM     24  C   UNL     1       5.311   3.558  13.568  0.00  0.00    +0.000 A 
ENDBRANCH  17  18
ENDBRANCH  15  17
TORSDOF 2
ENDMDL
MODEL 6
REMARK VINA RESULT:      -7.0      1.822      4.312
REMARK  Name = 
REMARK  2 active torsions:
REMARK  status: ('A' for Active; 'I' for Inactive)
REMARK    1  A    between atoms: N_15  and  C_16
REMARK    2  A    between atoms: C_16  and  C_17
REMARK                            x       y       z     vdW  Elec       q    Type
REMARK                         _______ _______ _______ _____ _____    ______ ____
ROOT
ATOM      1  O   UNL     1       2.524   2.937  16.888  0.00  0.00    +0.000 OA
ATOM      2  C   UNL     1       3.461   3.490  17.471  0.00  0.00    +0.000 C 
ATOM      3  N   UNL     1       4.512   3.972  16.730  0.00  0.00    +0.000 N 
ATOM      4  C   UNL     1       5.578   4.701  17.261  0.00  0.00    +0.000 A 
ATOM      5  C   UNL     1       6.423   5.414  16.415  0.00  0.00    +0.000 A 
ATOM      6  C   UNL     1       7.404   6.243  16.964  0.00  0.00    +0.000 A 
ATOM      7  C   UNL     1       7.555   6.328  18.349  0.00  0.00    +0.000 A 
ATOM      8  C   UNL     1       6.753   5.556  19.189  0.00  0.00    +0.000 A 
ATOM      9  C   UNL     1       5.761   4.737  18.645  0.00  0.00    +0.000 A 
ATOM     10  C   UNL     1       4.924   3.826  19.498  0.00  0.00    +0.000 C 
ATOM     11  C   UNL     1       3.464   3.765  18.995  0.00  0.00    +0.000 C 
ATOM     12  C   UNL     1       2.705   2.652  19.737  0.00  0.00    +0.000 C 
ATOM     13  C   UNL     1       2.263   3.315  21.022  0.00  0.00    +0.000 C 
ATOM     14  C   UNL     1       1.861   4.693  20.545  0.00  0.00    +0.000 C 
ATOM     15  N   UNL     1       2.768   5.026  19.430  0.00  0.00    +0.000 NA
ATOM     16  H   UNL     1       4.427   3.860  15.728  0.00  0.00    +0.000 HD
ENDROOT
BRANCH  15  17
ATOM     17  C   UNL     1       2.086   5.818  18.396  0.00  0.00    +0.000 C 
BRANCH  17  18
ATOM     18  C   UNL     1       1.897   7.267  18.826  0.00  0.00    +0.000 A 
ATOM     19  C   UNL     1       1.630   7.577  20.170  0.00  0.00    +0.000 A 
ATOM     20  C   UNL     1       1.362   8.894  20.557  0.00  0.00    +0.000 A 
ATOM     21  C   UNL     1       1.372   9.902  19.603  0.00  0.00    +0.000 A 
ATOM     22  F   UNL     1       1.084  11.160  19.967  0.00  0.00    +0.000 F 
ATOM     23  C   UNL     1       1.662   9.625  18.272  0.00  0.00    +0.000 A 
ATOM     24  C   UNL     1       1.930   8.309  17.882  0.00  0.00    +0.000 A 
ENDBRANCH  17  18
ENDBRANCH  15  17
TORSDOF 2
ENDMDL
MODEL 7
REMARK VINA RESULT:      -7.0      3.058      5.811
REMARK  Name = 
REMARK  2 active torsions:
REMARK  status: ('A' for Active; 'I' for Inactive)
REMARK    1  A    between atoms: N_15  and  C_16
REMARK    2  A    between atoms: C_16  and  C_17
REMARK                            x       y       z     vdW  Elec       q    Type
REMARK                         _______ _______ _______ _____ _____    ______ ____
ROOT
ATOM      1  O   UNL     1       4.864   2.648  19.842  0.00  0.00    +0.000 OA
ATOM      2  C   UNL     1       4.958   3.774  19.345  0.00  0.00    +0.000 C 
ATOM      3  N   UNL     1       6.153   4.446  19.446  0.00  0.00    +0.000 N 
ATOM      4  C   UNL     1       6.413   5.677  18.843  0.00  0.00    +0.000 A 
ATOM      5  C   UNL     1       7.725   6.133  18.728  0.00  0.00    +0.000 A 
ATOM      6  C   UNL     1       7.985   7.301  18.010  0.00  0.00    +0.000 A 
ATOM      7  C   UNL     1       6.936   8.022  17.439  0.00  0.00    +0.000 A 
ATOM      8  C   UNL     1       5.618   7.601  17.619  0.00  0.00    +0.000 A 
ATOM      9  C   UNL     1       5.354   6.425  18.325  0.00  0.00    +0.000 A 
ATOM     10  C   UNL     1       3.952   5.968  18.616  0.00  0.00    +0.000 C 
ATOM     11  C   UNL     1       3.826   4.432  18.518  0.00  0.00    +0.000 C 
ATOM     12  C   UNL     1       2.453   3.987  19.051  0.00  0.00    +0.000 C 
ATOM     13  C   UNL     1       1.535   4.165  17.863  0.00  0.00    +0.000 C 
ATOM     14  C   UNL     1       2.399   3.683  16.718  0.00  0.00    +0.000 C 
ATOM     15  N   UNL     1       3.785   4.058  17.061  0.00  0.00    +0.000 NA
ATOM     16  H   UNL     1       6.898   3.942  19.908  0.00  0.00    +0.000 HD
ENDROOT
BRANCH  15  17
ATOM     17  C   UNL     1       4.750   3.056  16.588  0.00  0.00    +0.000 C 
BRANCH  17  18
ATOM     18  C   UNL     1       5.655   3.612  15.496  0.00  0.00    +0.000 A 
ATOM     19  C   UNL     1       6.761   4.410  15.834  0.00  0.00    +0.000 A 
ATOM     20  C   UNL     1       7.542   5.001  14.836  0.00  0.00    +0.000 A 
ATOM     21  C   UNL     1       7.225   4.786  13.502  0.00  0.00    +0.000 A 
ATOM     22  F   UNL     1       7.955   5.377  12.545  0.00  0.00    +0.000 F 
ATOM     23  C   UNL     1       6.154   3.976  13.143  0.00  0.00    +0.000 A 
ATOM     24  C   UNL     1       5.370   3.384  14.139  0.00  0.00    +0.000 A 
ENDBRANCH  17  18
ENDBRANCH  15  17
TORSDOF 2
ENDMDL
MODEL 8
REMARK VINA RESULT:      -7.0      3.437      5.443
REMARK  Name = 
REMARK  2 active torsions:
REMARK  status: ('A' for Active; 'I' for Inactive)
REMARK    1  A    between atoms: N_15  and  C_16
REMARK    2  A    between atoms: C_16  and  C_17
REMARK                            x       y       z     vdW  Elec       q    Type
REMARK                         _______ _______ _______ _____ _____    ______ ____
ROOT
ATOM      1  O   UNL     1       4.523   7.368  17.820  0.00  0.00    +0.000 OA
ATOM      2  C   UNL     1       4.327   6.185  18.113  0.00  0.00    +0.000 C 
ATOM      3  N   UNL     1       3.039   5.761  18.335  0.00  0.00    +0.000 N 
ATOM      4  C   UNL     1       2.681   4.433  18.575  0.00  0.00    +0.000 A 
ATOM      5  C   UNL     1       1.348   4.044  18.476  0.00  0.00    +0.000 A 
ATOM      6  C   UNL     1       1.017   2.692  18.589  0.00  0.00    +0.000 A 
ATOM      7  C   UNL     1       2.013   1.744  18.832  0.00  0.00    +0.000 A 
ATOM      8  C   UNL     1       3.338   2.149  19.003  0.00  0.00    +0.000 A 
ATOM      9  C   UNL     1       3.674   3.499  18.876  0.00  0.00    +0.000 A 
ATOM     10  C   UNL     1       5.069   3.999  19.128  0.00  0.00    +0.000 C 
ATOM     11  C   UNL     1       5.454   5.122  18.140  0.00  0.00    +0.000 C 
ATOM     12  C   UNL     1       6.780   5.767  18.575  0.00  0.00    +0.000 C 
ATOM     13  C   UNL     1       7.832   4.853  17.988  0.00  0.00    +0.000 C 
ATOM     14  C   UNL     1       7.244   4.524  16.633  0.00  0.00    +0.000 C 
ATOM     15  N   UNL     1       5.780   4.487  16.815  0.00  0.00    +0.000 NA
ATOM     16  H   UNL     1       2.322   6.463  18.212  0.00  0.00    +0.000 HD
ENDROOT
BRANCH  15  17
ATOM     17  C   UNL     1       5.075   4.989  15.627  0.00  0.00    +0.000 C 
BRANCH  17  18
ATOM     18  C   UNL     1       5.782   4.591  14.338  0.00  0.00    +0.000 A 
ATOM     19  C   UNL     1       5.209   3.632  13.485  0.00  0.00    +0.000 A 
ATOM     20  C   UNL     1       5.895   3.193  12.348  0.00  0.00    +0.000 A 
ATOM     21  C   UNL     1       7.147   3.718  12.058  0.00  0.00    +0.000 A 
ATOM     22  F   UNL     1       7.818   3.275  10.986  0.00  0.00    +0.000 F 
ATOM     23  C   UNL     1       7.720   4.689  12.871  0.00  0.00    +0.000 A 
ATOM     24  C   UNL     1       7.037   5.130  14.009  0.00  0.00    +0.000 A 
ENDBRANCH  17  18
ENDBRANCH  15  17
TORSDOF 2
ENDMDL
MODEL 9
REMARK VINA RESULT:      -6.9      1.791      4.339
REMARK  Name = 
REMARK  2 active torsions:
REMARK  status: ('A' for Active; 'I' for Inactive)
REMARK    1  A    between atoms: N_15  and  C_16
REMARK    2  A    between atoms: C_16  and  C_17
REMARK                            x       y       z     vdW  Elec       q    Type
REMARK                         _______ _______ _______ _____ _____    ______ ____
ROOT
ATOM      1  O   UNL     1       2.193   2.243  17.456  0.00  0.00    +0.000 OA
ATOM      2  C   UNL     1       3.131   2.960  17.816  0.00  0.00    +0.000 C 
ATOM      3  N   UNL     1       3.876   3.607  16.860  0.00  0.00    +0.000 N 
ATOM      4  C   UNL     1       4.894   4.519  17.144  0.00  0.00    +0.000 A 
ATOM      5  C   UNL     1       5.378   5.356  16.141  0.00  0.00    +0.000 A 
ATOM      6  C   UNL     1       6.302   6.351  16.464  0.00  0.00    +0.000 A 
ATOM      7  C   UNL     1       6.760   6.484  17.776  0.00  0.00    +0.000 A 
ATOM      8  C   UNL     1       6.327   5.596  18.762  0.00  0.00    +0.000 A 
ATOM      9  C   UNL     1       5.392   4.608  18.446  0.00  0.00    +0.000 A 
ATOM     10  C   UNL     1       4.952   3.578  19.448  0.00  0.00    +0.000 C 
ATOM     11  C   UNL     1       3.448   3.255  19.303  0.00  0.00    +0.000 C 
ATOM     12  C   UNL     1       3.091   2.038  20.173  0.00  0.00    +0.000 C 
ATOM     13  C   UNL     1       2.860   2.634  21.543  0.00  0.00    +0.000 C 
ATOM     14  C   UNL     1       2.123   3.913  21.212  0.00  0.00    +0.000 C 
ATOM     15  N   UNL     1       2.667   4.382  19.923  0.00  0.00    +0.000 NA
ATOM     16  H   UNL     1       3.577   3.466  15.905  0.00  0.00    +0.000 HD
ENDROOT
BRANCH  15  17
ATOM     17  C   UNL     1       1.633   5.026  19.101  0.00  0.00    +0.000 C 
BRANCH  17  18
ATOM     18  C   UNL     1       1.871   6.524  18.963  0.00  0.00    +0.000 A 
ATOM     19  C   UNL     1       1.474   7.402  19.986  0.00  0.00    +0.000 A 
ATOM     20  C   UNL     1       1.604   8.784  19.827  0.00  0.00    +0.000 A 
ATOM     21  C   UNL     1       2.140   9.291  18.651  0.00  0.00    +0.000 A 
ATOM     22  F   UNL     1       2.236  10.617  18.485  0.00  0.00    +0.000 F 
ATOM     23  C   UNL     1       2.568   8.442  17.637  0.00  0.00    +0.000 A 
ATOM     24  C   UNL     1       2.439   7.058  17.793  0.00  0.00    +0.000 A 
ENDBRANCH  17  18
ENDBRANCH  15  17
TORSDOF 2
ENDMDL
