MODEL 1
REMARK VINA RESULT:      -8.6      0.000      0.000
REMARK  Name = 
REMARK  6 active torsions:
REMARK  status: ('A' for Active; 'I' for Inactive)
REMARK    1  A    between atoms: C_2  and  O_3
REMARK    2  A    between atoms: C_2  and  C_11
REMARK    3  A    between atoms: O_3  and  C_4
REMARK    4  A    between atoms: C_16  and  N_17
REMARK    5  A    between atoms: N_17  and  C_18
REMARK    6  A    between atoms: C_22  and  C_23
REMARK                            x       y       z     vdW  Elec       q    Type
REMARK                         _______ _______ _______ _____ _____    ______ ____
ROOT
ATOM      1  C   UNL     1       3.372   3.795  19.227  0.00  0.00    +0.000 A 
ATOM      2  C   UNL     1       2.920   2.526  18.820  0.00  0.00    +0.000 A 
ATOM      3  C   UNL     1       1.602   2.129  19.051  0.00  0.00    +0.000 A 
ATOM      4  C   UNL     1       0.732   2.975  19.724  0.00  0.00    +0.000 A 
ATOM      5  C   UNL     1       1.172   4.231  20.138  0.00  0.00    +0.000 A 
ATOM      6  C   UNL     1       2.467   4.701  19.837  0.00  0.00    +0.000 A 
ENDROOT
BRANCH   1   8
ATOM      7  O   UNL     1       5.726   3.702  19.502  0.00  0.00    +0.000 OA
ATOM      8  C   UNL     1       4.769   4.196  18.914  0.00  0.00    +0.000 C 
BRANCH   8   9
ATOM      9  O   UNL     1       4.807   5.158  17.904  0.00  0.00    +0.000 OA
BRANCH   9  10
ATOM     10  C   UNL     1       5.497   4.962  16.683  0.00  0.00    +0.000 A 
ATOM     11  C   UNL     1       6.825   5.341  16.491  0.00  0.00    +0.000 A 
ATOM     12  C   UNL     1       7.412   5.195  15.232  0.00  0.00    +0.000 A 
ATOM     13  C   UNL     1       6.683   4.636  14.182  0.00  0.00    +0.000 A 
ATOM     14 CL   UNL     1       7.392   4.512  12.621  0.00  0.00    +0.000 Cl
ATOM     15  C   UNL     1       5.376   4.188  14.392  0.00  0.00    +0.000 A 
ATOM     16  C   UNL     1       4.782   4.347  15.649  0.00  0.00    +0.000 A 
ENDBRANCH   9  10
ENDBRANCH   8   9
ENDBRANCH   1   8
BRANCH   6  17
ATOM     17  N   UNL     1       2.817   6.032  20.229  0.00  0.00    +0.000 N 
ATOM     18  H   UNL     1       3.841   6.138  20.232  0.00  0.00    +0.000 HD
BRANCH  17  19
ATOM     19  C   UNL     1       2.236   7.228  19.707  0.00  0.00    +0.000 A 
ATOM     20  C   UNL     1       2.424   7.622  18.380  0.00  0.00    +0.000 A 
ATOM     21  C   UNL     1       1.905   8.829  17.951  0.00  0.00    +0.000 A 
ATOM     22  N   UNL     1       1.234   9.677  18.750  0.00  0.00    +0.000 NA
ATOM     23  C   UNL     1       1.065   9.316  20.054  0.00  0.00    +0.000 A 
ATOM     24  C   UNL     1       1.546   8.099  20.556  0.00  0.00    +0.000 A 
BRANCH  23  25
ATOM     25  C   UNL     1       0.367  10.291  20.994  0.00  0.00    +0.000 C 
ATOM     26  F   UNL     1       0.360   9.903  22.301  0.00  0.00    +0.000 F 
ATOM     27  F   UNL     1       0.932  11.535  20.982  0.00  0.00    +0.000 F 
ATOM     28  F   UNL     1      -0.945  10.482  20.662  0.00  0.00    +0.000 F 
ENDBRANCH  23  25
ENDBRANCH  17  19
ENDBRANCH   6  17
TORSDOF 6
ENDMDL
MODEL 2
REMARK VINA RESULT:      -8.5      4.749      6.901
REMARK  Name = 
REMARK  6 active torsions:
REMARK  status: ('A' for Active; 'I' for Inactive)
REMARK    1  A    between atoms: C_2  and  O_3
REMARK    2  A    between atoms: C_2  and  C_11
REMARK    3  A    between atoms: O_3  and  C_4
REMARK    4  A    between atoms: C_16  and  N_17
REMARK    5  A    between atoms: N_17  and  C_18
REMARK    6  A    between atoms: C_22  and  C_23
REMARK                            x       y       z     vdW  Elec       q    Type
REMARK                         _______ _______ _______ _____ _____    ______ ____
ROOT
ATOM      1  C   UNL     1       2.608   3.999  19.470  0.00  0.00    +0.000 A 
ATOM      2  C   UNL     1       1.364   3.397  19.204  0.00  0.00    +0.000 A 
ATOM      3  C   UNL     1       1.285   2.216  18.465  0.00  0.00    +0.000 A 
ATOM      4  C   UNL     1       2.439   1.643  17.950  0.00  0.00    +0.000 A 
ATOM      5  C   UNL     1       3.675   2.237  18.200  0.00  0.00    +0.000 A 
ATOM      6  C   UNL     1       3.800   3.376  19.021  0.00  0.00    +0.000 A 
ENDROOT
BRANCH   1   8
ATOM      7  O   UNL     1       2.321   5.213  21.488  0.00  0.00    +0.000 OA
ATOM      8  C   UNL     1       2.648   5.229  20.305  0.00  0.00    +0.000 C 
BRANCH   8   9
ATOM      9  O   UNL     1       3.097   6.327  19.571  0.00  0.00    +0.000 OA
BRANCH   9  10
ATOM     10  C   UNL     1       2.332   7.507  19.411  0.00  0.00    +0.000 A 
ATOM     11  C   UNL     1       1.631   8.107  20.457  0.00  0.00    +0.000 A 
ATOM     12  C   UNL     1       0.827   9.221  20.204  0.00  0.00    +0.000 A 
ATOM     13  C   UNL     1       0.758   9.754  18.916  0.00  0.00    +0.000 A 
ATOM     14 CL   UNL     1      -0.278  11.089  18.600  0.00  0.00    +0.000 Cl
ATOM     15  C   UNL     1       1.516   9.199  17.883  0.00  0.00    +0.000 A 
ATOM     16  C   UNL     1       2.310   8.074  18.132  0.00  0.00    +0.000 A 
ENDBRANCH   9  10
ENDBRANCH   8   9
ENDBRANCH   1   8
BRANCH   6  17
ATOM     17  N   UNL     1       5.112   3.879  19.295  0.00  0.00    +0.000 N 
ATOM     18  H   UNL     1       5.676   3.152  19.757  0.00  0.00    +0.000 HD
BRANCH  17  19
ATOM     19  C   UNL     1       5.940   4.578  18.365  0.00  0.00    +0.000 A 
ATOM     20  C   UNL     1       6.762   5.637  18.759  0.00  0.00    +0.000 A 
ATOM     21  C   UNL     1       7.482   6.328  17.803  0.00  0.00    +0.000 A 
ATOM     22  N   UNL     1       7.427   6.055  16.487  0.00  0.00    +0.000 NA
ATOM     23  C   UNL     1       6.611   5.039  16.086  0.00  0.00    +0.000 A 
ATOM     24  C   UNL     1       5.865   4.281  17.000  0.00  0.00    +0.000 A 
BRANCH  23  25
ATOM     25  C   UNL     1       6.480   4.756  14.595  0.00  0.00    +0.000 C 
ATOM     26  F   UNL     1       7.468   5.305  13.831  0.00  0.00    +0.000 F 
ATOM     27  F   UNL     1       6.490   3.420  14.306  0.00  0.00    +0.000 F 
ATOM     28  F   UNL     1       5.309   5.233  14.077  0.00  0.00    +0.000 F 
ENDBRANCH  23  25
ENDBRANCH  17  19
ENDBRANCH   6  17
TORSDOF 6
ENDMDL
MODEL 3
REMARK VINA RESULT:      -8.5      4.356      6.616
REMARK  Name = 
REMARK  6 active torsions:
REMARK  status: ('A' for Active; 'I' for Inactive)
REMARK    1  A    between atoms: C_2  and  O_3
REMARK    2  A    between atoms: C_2  and  C_11
REMARK    3  A    between atoms: O_3  and  C_4
REMARK    4  A    between atoms: C_16  and  N_17
REMARK    5  A    between atoms: N_17  and  C_18
REMARK    6  A    between atoms: C_22  and  C_23
REMARK                            x       y       z     vdW  Elec       q    Type
REMARK                         _______ _______ _______ _____ _____    ______ ____
ROOT
ATOM      1  C   UNL     1       2.244   3.991  19.102  0.00  0.00    +0.000 A 
ATOM      2  C   UNL     1       1.591   4.093  20.345  0.00  0.00    +0.000 A 
ATOM      3  C   UNL     1       1.960   3.277  21.415  0.00  0.00    +0.000 A 
ATOM      4  C   UNL     1       2.955   2.324  21.248  0.00  0.00    +0.000 A 
ATOM      5  C   UNL     1       3.602   2.209  20.019  0.00  0.00    +0.000 A 
ATOM      6  C   UNL     1       3.320   3.081  18.947  0.00  0.00    +0.000 A 
ENDROOT
BRANCH   1   8
ATOM      7  O   UNL     1       0.946   4.643  17.227  0.00  0.00    +0.000 OA
ATOM      8  C   UNL     1       1.853   4.917  18.006  0.00  0.00    +0.000 C 
BRANCH   8   9
ATOM      9  O   UNL     1       2.633   6.073  18.016  0.00  0.00    +0.000 OA
BRANCH   9  10
ATOM     10  C   UNL     1       2.181   7.300  18.559  0.00  0.00    +0.000 A 
ATOM     11  C   UNL     1       1.934   7.484  19.919  0.00  0.00    +0.000 A 
ATOM     12  C   UNL     1       1.405   8.696  20.369  0.00  0.00    +0.000 A 
ATOM     13  C   UNL     1       1.162   9.731  19.465  0.00  0.00    +0.000 A 
ATOM     14 CL   UNL     1       0.458  11.198  20.017  0.00  0.00    +0.000 Cl
ATOM     15  C   UNL     1       1.478   9.573  18.113  0.00  0.00    +0.000 A 
ATOM     16  C   UNL     1       1.993   8.355  17.659  0.00  0.00    +0.000 A 
ENDBRANCH   9  10
ENDBRANCH   8   9
ENDBRANCH   1   8
BRANCH   6  17
ATOM     17  N   UNL     1       4.083   2.950  17.743  0.00  0.00    +0.000 N 
ATOM     18  H   UNL     1       3.450   2.876  16.935  0.00  0.00    +0.000 HD
BRANCH  17  19
ATOM     19  C   UNL     1       5.198   3.763  17.377  0.00  0.00    +0.000 A 
ATOM     20  C   UNL     1       5.648   3.849  16.057  0.00  0.00    +0.000 A 
ATOM     21  C   UNL     1       6.780   4.589  15.772  0.00  0.00    +0.000 A 
ATOM     22  N   UNL     1       7.505   5.228  16.707  0.00  0.00    +0.000 NA
ATOM     23  C   UNL     1       7.092   5.133  18.003  0.00  0.00    +0.000 A 
ATOM     24  C   UNL     1       5.942   4.417  18.365  0.00  0.00    +0.000 A 
BRANCH  23  25
ATOM     25  C   UNL     1       7.936   5.793  19.086  0.00  0.00    +0.000 C 
ATOM     26  F   UNL     1       8.443   7.010  18.739  0.00  0.00    +0.000 F 
ATOM     27  F   UNL     1       7.243   5.999  20.246  0.00  0.00    +0.000 F 
ATOM     28  F   UNL     1       9.016   5.033  19.436  0.00  0.00    +0.000 F 
ENDBRANCH  23  25
ENDBRANCH  17  19
ENDBRANCH   6  17
TORSDOF 6
ENDMDL
MODEL 4
REMARK VINA RESULT:      -8.5      2.035      2.445
REMARK  Name = 
REMARK  6 active torsions:
REMARK  status: ('A' for Active; 'I' for Inactive)
REMARK    1  A    between atoms: C_2  and  O_3
REMARK    2  A    between atoms: C_2  and  C_11
REMARK    3  A    between atoms: O_3  and  C_4
REMARK    4  A    between atoms: C_16  and  N_17
REMARK    5  A    between atoms: N_17  and  C_18
REMARK    6  A    between atoms: C_22  and  C_23
REMARK                            x       y       z     vdW  Elec       q    Type
REMARK                         _______ _______ _______ _____ _____    ______ ____
ROOT
ATOM      1  C   UNL     1       3.157   3.581  18.295  0.00  0.00    +0.000 A 
ATOM      2  C   UNL     1       2.514   2.356  18.037  0.00  0.00    +0.000 A 
ATOM      3  C   UNL     1       1.329   2.019  18.693  0.00  0.00    +0.000 A 
ATOM      4  C   UNL     1       0.794   2.880  19.641  0.00  0.00    +0.000 A 
ATOM      5  C   UNL     1       1.427   4.091  19.910  0.00  0.00    +0.000 A 
ATOM      6  C   UNL     1       2.571   4.505  19.198  0.00  0.00    +0.000 A 
ENDROOT
BRANCH   1   8
ATOM      7  O   UNL     1       4.403   3.934  16.308  0.00  0.00    +0.000 OA
ATOM      8  C   UNL     1       4.389   3.922  17.535  0.00  0.00    +0.000 C 
BRANCH   8   9
ATOM      9  O   UNL     1       5.450   4.212  18.392  0.00  0.00    +0.000 OA
BRANCH   9  10
ATOM     10  C   UNL     1       6.258   5.365  18.249  0.00  0.00    +0.000 A 
ATOM     11  C   UNL     1       7.480   5.523  18.902  0.00  0.00    +0.000 A 
ATOM     12  C   UNL     1       8.179   6.726  18.781  0.00  0.00    +0.000 A 
ATOM     13  C   UNL     1       7.675   7.750  17.978  0.00  0.00    +0.000 A 
ATOM     14 CL   UNL     1       8.512   9.249  17.880  0.00  0.00    +0.000 Cl
ATOM     15  C   UNL     1       6.488   7.566  17.265  0.00  0.00    +0.000 A 
ATOM     16  C   UNL     1       5.779   6.367  17.398  0.00  0.00    +0.000 A 
ENDBRANCH   9  10
ENDBRANCH   8   9
ENDBRANCH   1   8
BRANCH   6  17
ATOM     17  N   UNL     1       3.118   5.798  19.477  0.00  0.00    +0.000 N 
ATOM     18  H   UNL     1       4.009   5.917  18.975  0.00  0.00    +0.000 HD
BRANCH  17  19
ATOM     19  C   UNL     1       2.397   7.030  19.426  0.00  0.00    +0.000 A 
ATOM     20  C   UNL     1       2.350   7.811  18.269  0.00  0.00    +0.000 A 
ATOM     21  C   UNL     1       1.705   9.033  18.300  0.00  0.00    +0.000 A 
ATOM     22  N   UNL     1       1.123   9.539  19.401  0.00  0.00    +0.000 NA
ATOM     23  C   UNL     1       1.182   8.798  20.545  0.00  0.00    +0.000 A 
ATOM     24  C   UNL     1       1.803   7.541  20.584  0.00  0.00    +0.000 A 
BRANCH  23  25
ATOM     25  C   UNL     1       0.589   9.381  21.821  0.00  0.00    +0.000 C 
ATOM     26  F   UNL     1       1.384   9.250  22.921  0.00  0.00    +0.000 F 
ATOM     27  F   UNL     1       0.319  10.717  21.718  0.00  0.00    +0.000 F 
ATOM     28  F   UNL     1      -0.599   8.794  22.156  0.00  0.00    +0.000 F 
ENDBRANCH  23  25
ENDBRANCH  17  19
ENDBRANCH   6  17
TORSDOF 6
ENDMDL
MODEL 5
REMARK VINA RESULT:      -8.5      1.810      2.192
REMARK  Name = 
REMARK  6 active torsions:
REMARK  status: ('A' for Active; 'I' for Inactive)
REMARK    1  A    between atoms: C_2  and  O_3
REMARK    2  A    between atoms: C_2  and  C_11
REMARK    3  A    between atoms: O_3  and  C_4
REMARK    4  A    between atoms: C_16  and  N_17
REMARK    5  A    between atoms: N_17  and  C_18
REMARK    6  A    between atoms: C_22  and  C_23
REMARK                            x       y       z     vdW  Elec       q    Type
REMARK                         _______ _______ _______ _____ _____    ______ ____
ROOT
ATOM      1  C   UNL     1       2.484   3.579  19.132  0.00  0.00    +0.000 A 
ATOM      2  C   UNL     1       1.881   2.384  19.567  0.00  0.00    +0.000 A 
ATOM      3  C   UNL     1       1.523   2.209  20.904  0.00  0.00    +0.000 A 
ATOM      4  C   UNL     1       1.800   3.206  21.830  0.00  0.00    +0.000 A 
ATOM      5  C   UNL     1       2.405   4.389  21.411  0.00  0.00    +0.000 A 
ATOM      6  C   UNL     1       2.691   4.637  20.053  0.00  0.00    +0.000 A 
ENDROOT
BRANCH   1   8
ATOM      7  O   UNL     1       1.933   4.036  16.870  0.00  0.00    +0.000 OA
ATOM      8  C   UNL     1       2.800   3.741  17.688  0.00  0.00    +0.000 C 
BRANCH   8   9
ATOM      9  O   UNL     1       4.155   3.524  17.436  0.00  0.00    +0.000 OA
BRANCH   9  10
ATOM     10  C   UNL     1       5.115   4.564  17.455  0.00  0.00    +0.000 A 
ATOM     11  C   UNL     1       6.195   4.585  18.336  0.00  0.00    +0.000 A 
ATOM     12  C   UNL     1       7.052   5.688  18.355  0.00  0.00    +0.000 A 
ATOM     13  C   UNL     1       6.849   6.746  17.468  0.00  0.00    +0.000 A 
ATOM     14 CL   UNL     1       7.873   8.125  17.536  0.00  0.00    +0.000 Cl
ATOM     15  C   UNL     1       5.811   6.693  16.535  0.00  0.00    +0.000 A 
ATOM     16  C   UNL     1       4.943   5.596  16.526  0.00  0.00    +0.000 A 
ENDBRANCH   9  10
ENDBRANCH   8   9
ENDBRANCH   1   8
BRANCH   6  17
ATOM     17  N   UNL     1       3.240   5.908  19.693  0.00  0.00    +0.000 N 
ATOM     18  H   UNL     1       3.967   5.784  18.974  0.00  0.00    +0.000 HD
BRANCH  17  19
ATOM     19  C   UNL     1       2.484   7.078  19.379  0.00  0.00    +0.000 A 
ATOM     20  C   UNL     1       2.479   7.632  18.096  0.00  0.00    +0.000 A 
ATOM     21  C   UNL     1       1.792   8.810  17.869  0.00  0.00    +0.000 A 
ATOM     22  N   UNL     1       1.131   9.483  18.827  0.00  0.00    +0.000 NA
ATOM     23  C   UNL     1       1.148   8.966  20.090  0.00  0.00    +0.000 A 
ATOM     24  C   UNL     1       1.806   7.766  20.391  0.00  0.00    +0.000 A 
BRANCH  23  25
ATOM     25  C   UNL     1       0.463   9.746  21.204  0.00  0.00    +0.000 C 
ATOM     26  F   UNL     1       0.445   9.106  22.409  0.00  0.00    +0.000 F 
ATOM     27  F   UNL     1       1.047  10.958  21.439  0.00  0.00    +0.000 F 
ATOM     28  F   UNL     1      -0.845  10.020  20.917  0.00  0.00    +0.000 F 
ENDBRANCH  23  25
ENDBRANCH  17  19
ENDBRANCH   6  17
TORSDOF 6
ENDMDL
MODEL 6
REMARK VINA RESULT:      -8.4      3.951      6.432
REMARK  Name = 
REMARK  6 active torsions:
REMARK  status: ('A' for Active; 'I' for Inactive)
REMARK    1  A    between atoms: C_2  and  O_3
REMARK    2  A    between atoms: C_2  and  C_11
REMARK    3  A    between atoms: O_3  and  C_4
REMARK    4  A    between atoms: C_16  and  N_17
REMARK    5  A    between atoms: N_17  and  C_18
REMARK    6  A    between atoms: C_22  and  C_23
REMARK                            x       y       z     vdW  Elec       q    Type
REMARK                         _______ _______ _______ _____ _____    ______ ____
ROOT
ATOM      1  C   UNL     1       5.931   6.175  17.435  0.00  0.00    +0.000 A 
ATOM      2  C   UNL     1       6.813   7.200  17.825  0.00  0.00    +0.000 A 
ATOM      3  C   UNL     1       7.913   6.925  18.638  0.00  0.00    +0.000 A 
ATOM      4  C   UNL     1       8.124   5.634  19.104  0.00  0.00    +0.000 A 
ATOM      5  C   UNL     1       7.250   4.614  18.731  0.00  0.00    +0.000 A 
ATOM      6  C   UNL     1       6.186   4.839  17.834  0.00  0.00    +0.000 A 
ENDROOT
BRANCH   1   8
ATOM      7  O   UNL     1       4.994   6.971  15.406  0.00  0.00    +0.000 OA
ATOM      8  C   UNL     1       4.802   6.505  16.525  0.00  0.00    +0.000 C 
BRANCH   8   9
ATOM      9  O   UNL     1       3.572   6.211  17.114  0.00  0.00    +0.000 OA
BRANCH   9  10
ATOM     10  C   UNL     1       2.918   7.093  18.007  0.00  0.00    +0.000 A 
ATOM     11  C   UNL     1       2.663   6.776  19.340  0.00  0.00    +0.000 A 
ATOM     12  C   UNL     1       1.936   7.662  20.137  0.00  0.00    +0.000 A 
ATOM     13  C   UNL     1       1.499   8.878  19.610  0.00  0.00    +0.000 A 
ATOM     14 CL   UNL     1       0.555   9.938  20.579  0.00  0.00    +0.000 Cl
ATOM     15  C   UNL     1       1.816   9.230  18.296  0.00  0.00    +0.000 A 
ATOM     16  C   UNL     1       2.532   8.336  17.492  0.00  0.00    +0.000 A 
ENDBRANCH   9  10
ENDBRANCH   8   9
ENDBRANCH   1   8
BRANCH   6  17
ATOM     17  N   UNL     1       5.381   3.723  17.438  0.00  0.00    +0.000 N 
ATOM     18  H   UNL     1       5.949   2.864  17.442  0.00  0.00    +0.000 HD
BRANCH  17  19
ATOM     19  C   UNL     1       4.084   3.415  17.950  0.00  0.00    +0.000 A 
ATOM     20  C   UNL     1       2.977   3.259  17.111  0.00  0.00    +0.000 A 
ATOM     21  C   UNL     1       1.731   3.041  17.666  0.00  0.00    +0.000 A 
ATOM     22  N   UNL     1       1.505   2.988  18.990  0.00  0.00    +0.000 NA
ATOM     23  C   UNL     1       2.572   3.162  19.822  0.00  0.00    +0.000 A 
ATOM     24  C   UNL     1       3.869   3.369  19.331  0.00  0.00    +0.000 A 
BRANCH  23  25
ATOM     25  C   UNL     1       2.329   3.174  21.325  0.00  0.00    +0.000 C 
ATOM     26  F   UNL     1       3.080   2.274  22.022  0.00  0.00    +0.000 F 
ATOM     27  F   UNL     1       2.586   4.388  21.895  0.00  0.00    +0.000 F 
ATOM     28  F   UNL     1       1.030   2.889  21.642  0.00  0.00    +0.000 F 
ENDBRANCH  23  25
ENDBRANCH  17  19
ENDBRANCH   6  17
TORSDOF 6
ENDMDL
MODEL 7
REMARK VINA RESULT:      -8.4      0.601      1.334
REMARK  Name = 
REMARK  6 active torsions:
REMARK  status: ('A' for Active; 'I' for Inactive)
REMARK    1  A    between atoms: C_2  and  O_3
REMARK    2  A    between atoms: C_2  and  C_11
REMARK    3  A    between atoms: O_3  and  C_4
REMARK    4  A    between atoms: C_16  and  N_17
REMARK    5  A    between atoms: N_17  and  C_18
REMARK    6  A    between atoms: C_22  and  C_23
REMARK                            x       y       z     vdW  Elec       q    Type
REMARK                         _______ _______ _______ _____ _____    ______ ____
ROOT
ATOM      1  C   UNL     1       3.332   4.026  19.451  0.00  0.00    +0.000 A 
ATOM      2  C   UNL     1       2.997   2.732  19.011  0.00  0.00    +0.000 A 
ATOM      3  C   UNL     1       1.714   2.219  19.209  0.00  0.00    +0.000 A 
ATOM      4  C   UNL     1       0.764   2.974  19.883  0.00  0.00    +0.000 A 
ATOM      5  C   UNL     1       1.088   4.253  20.331  0.00  0.00    +0.000 A 
ATOM      6  C   UNL     1       2.343   4.837  20.063  0.00  0.00    +0.000 A 
ENDROOT
BRANCH   1   8
ATOM      7  O   UNL     1       5.096   5.596  19.674  0.00  0.00    +0.000 OA
ATOM      8  C   UNL     1       4.695   4.551  19.172  0.00  0.00    +0.000 C 
BRANCH   8   9
ATOM      9  O   UNL     1       5.395   3.710  18.307  0.00  0.00    +0.000 OA
BRANCH   9  10
ATOM     10  C   UNL     1       5.807   4.110  17.013  0.00  0.00    +0.000 A 
ATOM     11  C   UNL     1       4.969   4.063  15.901  0.00  0.00    +0.000 A 
ATOM     12  C   UNL     1       5.472   4.392  14.640  0.00  0.00    +0.000 A 
ATOM     13  C   UNL     1       6.799   4.803  14.502  0.00  0.00    +0.000 A 
ATOM     14 CL   UNL     1       7.427   5.151  12.941  0.00  0.00    +0.000 Cl
ATOM     15  C   UNL     1       7.619   4.921  15.627  0.00  0.00    +0.000 A 
ATOM     16  C   UNL     1       7.120   4.577  16.888  0.00  0.00    +0.000 A 
ENDBRANCH   9  10
ENDBRANCH   8   9
ENDBRANCH   1   8
BRANCH   6  17
ATOM     17  N   UNL     1       2.571   6.185  20.488  0.00  0.00    +0.000 N 
ATOM     18  H   UNL     1       3.569   6.319  20.705  0.00  0.00    +0.000 HD
BRANCH  17  19
ATOM     19  C   UNL     1       2.087   7.355  19.827  0.00  0.00    +0.000 A 
ATOM     20  C   UNL     1       2.380   7.620  18.487  0.00  0.00    +0.000 A 
ATOM     21  C   UNL     1       1.952   8.806  17.921  0.00  0.00    +0.000 A 
ATOM     22  N   UNL     1       1.274   9.751  18.597  0.00  0.00    +0.000 NA
ATOM     23  C   UNL     1       1.003   9.516  19.913  0.00  0.00    +0.000 A 
ATOM     24  C   UNL     1       1.388   8.328  20.549  0.00  0.00    +0.000 A 
BRANCH  23  25
ATOM     25  C   UNL     1       0.297  10.601  20.715  0.00  0.00    +0.000 C 
ATOM     26  F   UNL     1       0.923  11.813  20.694  0.00  0.00    +0.000 F 
ATOM     27  F   UNL     1      -0.977  10.837  20.282  0.00  0.00    +0.000 F 
ATOM     28  F   UNL     1       0.178  10.274  22.037  0.00  0.00    +0.000 F 
ENDBRANCH  23  25
ENDBRANCH  17  19
ENDBRANCH   6  17
TORSDOF 6
ENDMDL
MODEL 8
REMARK VINA RESULT:      -8.4      4.577      7.290
REMARK  Name = 
REMARK  6 active torsions:
REMARK  status: ('A' for Active; 'I' for Inactive)
REMARK    1  A    between atoms: C_2  and  O_3
REMARK    2  A    between atoms: C_2  and  C_11
REMARK    3  A    between atoms: O_3  and  C_4
REMARK    4  A    between atoms: C_16  and  N_17
REMARK    5  A    between atoms: N_17  and  C_18
REMARK    6  A    between atoms: C_22  and  C_23
REMARK                            x       y       z     vdW  Elec       q    Type
REMARK                         _______ _______ _______ _____ _____    ______ ____
ROOT
ATOM      1  C   UNL     1       2.128   5.172  19.216  0.00  0.00    +0.000 A 
ATOM      2  C   UNL     1       1.529   4.749  20.417  0.00  0.00    +0.000 A 
ATOM      3  C   UNL     1       1.381   3.390  20.701  0.00  0.00    +0.000 A 
ATOM      4  C   UNL     1       1.790   2.441  19.776  0.00  0.00    +0.000 A 
ATOM      5  C   UNL     1       2.377   2.850  18.580  0.00  0.00    +0.000 A 
ATOM      6  C   UNL     1       2.629   4.209  18.303  0.00  0.00    +0.000 A 
ENDROOT
BRANCH   1   8
ATOM      7  O   UNL     1       2.409   7.087  17.845  0.00  0.00    +0.000 OA
ATOM      8  C   UNL     1       2.314   6.628  18.979  0.00  0.00    +0.000 C 
BRANCH   8   9
ATOM      9  O   UNL     1       2.352   7.338  20.179  0.00  0.00    +0.000 OA
BRANCH   9  10
ATOM     10  C   UNL     1       1.424   8.358  20.498  0.00  0.00    +0.000 A 
ATOM     11  C   UNL     1       1.025   9.335  19.587  0.00  0.00    +0.000 A 
ATOM     12  C   UNL     1       0.172  10.361  20.000  0.00  0.00    +0.000 A 
ATOM     13  C   UNL     1      -0.309  10.384  21.309  0.00  0.00    +0.000 A 
ATOM     14 CL   UNL     1      -1.312  11.681  21.826  0.00  0.00    +0.000 Cl
ATOM     15  C   UNL     1       0.030   9.365  22.203  0.00  0.00    +0.000 A 
ATOM     16  C   UNL     1       0.897   8.346  21.794  0.00  0.00    +0.000 A 
ENDBRANCH   9  10
ENDBRANCH   8   9
ENDBRANCH   1   8
BRANCH   6  17
ATOM     17  N   UNL     1       3.306   4.543  17.087  0.00  0.00    +0.000 N 
ATOM     18  H   UNL     1       2.875   5.376  16.664  0.00  0.00    +0.000 HD
BRANCH  17  19
ATOM     19  C   UNL     1       4.723   4.631  16.926  0.00  0.00    +0.000 A 
ATOM     20  C   UNL     1       5.372   4.108  15.805  0.00  0.00    +0.000 A 
ATOM     21  C   UNL     1       6.752   4.151  15.740  0.00  0.00    +0.000 A 
ATOM     22  N   UNL     1       7.528   4.656  16.715  0.00  0.00    +0.000 NA
ATOM     23  C   UNL     1       6.909   5.148  17.825  0.00  0.00    +0.000 A 
ATOM     24  C   UNL     1       5.512   5.157  17.954  0.00  0.00    +0.000 A 
BRANCH  23  25
ATOM     25  C   UNL     1       7.770   5.664  18.971  0.00  0.00    +0.000 C 
ATOM     26  F   UNL     1       8.828   4.861  19.283  0.00  0.00    +0.000 F 
ATOM     27  F   UNL     1       8.303   6.896  18.721  0.00  0.00    +0.000 F 
ATOM     28  F   UNL     1       7.061   5.802  20.131  0.00  0.00    +0.000 F 
ENDBRANCH  23  25
ENDBRANCH  17  19
ENDBRANCH   6  17
TORSDOF 6
ENDMDL
MODEL 9
REMARK VINA RESULT:      -8.3      5.202      7.456
REMARK  Name = 
REMARK  6 active torsions:
REMARK  status: ('A' for Active; 'I' for Inactive)
REMARK    1  A    between atoms: C_2  and  O_3
REMARK    2  A    between atoms: C_2  and  C_11
REMARK    3  A    between atoms: O_3  and  C_4
REMARK    4  A    between atoms: C_16  and  N_17
REMARK    5  A    between atoms: N_17  and  C_18
REMARK    6  A    between atoms: C_22  and  C_23
REMARK                            x       y       z     vdW  Elec       q    Type
REMARK                         _______ _______ _______ _____ _____    ______ ____
ROOT
ATOM      1  C   UNL     1       3.011   4.386  18.590  0.00  0.00    +0.000 A 
ATOM      2  C   UNL     1       1.634   4.159  18.769  0.00  0.00    +0.000 A 
ATOM      3  C   UNL     1       1.084   2.894  18.558  0.00  0.00    +0.000 A 
ATOM      4  C   UNL     1       1.893   1.851  18.128  0.00  0.00    +0.000 A 
ATOM      5  C   UNL     1       3.256   2.067  17.940  0.00  0.00    +0.000 A 
ATOM      6  C   UNL     1       3.860   3.306  18.236  0.00  0.00    +0.000 A 
ENDROOT
BRANCH   1   8
ATOM      7  O   UNL     1       4.476   5.901  19.678  0.00  0.00    +0.000 OA
ATOM      8  C   UNL     1       3.562   5.737  18.877  0.00  0.00    +0.000 C 
BRANCH   8   9
ATOM      9  O   UNL     1       2.914   6.719  18.127  0.00  0.00    +0.000 OA
BRANCH   9  10
ATOM     10  C   UNL     1       2.217   7.800  18.719  0.00  0.00    +0.000 A 
ATOM     11  C   UNL     1       1.833   7.815  20.058  0.00  0.00    +0.000 A 
ATOM     12  C   UNL     1       1.072   8.879  20.549  0.00  0.00    +0.000 A 
ATOM     13  C   UNL     1       0.731   9.940  19.709  0.00  0.00    +0.000 A 
ATOM     14 CL   UNL     1      -0.254  11.217  20.304  0.00  0.00    +0.000 Cl
ATOM     15  C   UNL     1       1.178   9.962  18.386  0.00  0.00    +0.000 A 
ATOM     16  C   UNL     1       1.928   8.890  17.890  0.00  0.00    +0.000 A 
ENDBRANCH   9  10
ENDBRANCH   8   9
ENDBRANCH   1   8
BRANCH   6  17
ATOM     17  N   UNL     1       5.279   3.425  18.091  0.00  0.00    +0.000 N 
ATOM     18  H   UNL     1       5.726   2.516  18.272  0.00  0.00    +0.000 HD
BRANCH  17  19
ATOM     19  C   UNL     1       5.950   4.053  16.998  0.00  0.00    +0.000 A 
ATOM     20  C   UNL     1       6.731   5.199  17.171  0.00  0.00    +0.000 A 
ATOM     21  C   UNL     1       7.292   5.811  16.066  0.00  0.00    +0.000 A 
ATOM     22  N   UNL     1       7.115   5.378  14.805  0.00  0.00    +0.000 NA
ATOM     23  C   UNL     1       6.334   4.275  14.619  0.00  0.00    +0.000 A 
ATOM     24  C   UNL     1       5.749   3.590  15.694  0.00  0.00    +0.000 A 
BRANCH  23  25
ATOM     25  C   UNL     1       6.064   3.806  13.195  0.00  0.00    +0.000 C 
ATOM     26  F   UNL     1       6.269   2.473  12.995  0.00  0.00    +0.000 F 
ATOM     27  F   UNL     1       4.781   4.048  12.792  0.00  0.00    +0.000 F 
ATOM     28  F   UNL     1       6.859   4.440  12.282  0.00  0.00    +0.000 F 
ENDBRANCH  23  25
ENDBRANCH  17  19
ENDBRANCH   6  17
TORSDOF 6
ENDMDL
