MODEL 1
REMARK VINA RESULT:      -9.3      0.000      0.000
REMARK  Name = 
REMARK  6 active torsions:
REMARK  status: ('A' for Active; 'I' for Inactive)
REMARK    1  A    between atoms: O_1  and  N_2
REMARK    2  A    between atoms: C_5  and  C_6
REMARK    3  A    between atoms: C_19  and  C_20
REMARK    4  A    between atoms: C_20  and  N_21
REMARK    5  A    between atoms: C_20  and  C_23
REMARK    6  A    between atoms: N_21  and  O_22
REMARK                            x       y       z     vdW  Elec       q    Type
REMARK                         _______ _______ _______ _____ _____    ______ ____
ROOT
ATOM      1  N   UNL     1       2.180   2.821  17.297  0.00  0.00    +0.000 NA
ATOM      2  C   UNL     1       2.315   3.330  18.479  0.00  0.00    +0.000 C 
ATOM      3  C   UNL     1       1.864   4.693  18.935  0.00  0.00    +0.000 C 
ATOM      4  C   UNL     1       2.388   5.777  18.334  0.00  0.00    +0.000 C 
ATOM      5  C   UNL     1       0.931   4.647  20.111  0.00  0.00    +0.000 C 
ATOM      6  C   UNL     1       1.526   3.802  21.236  0.00  0.00    +0.000 C 
ATOM      7  C   UNL     1       1.885   2.405  20.719  0.00  0.00    +0.000 C 
ATOM      8  C   UNL     1       2.929   2.448  19.579  0.00  0.00    +0.000 C 
ENDROOT
BRANCH   4   9
ATOM      9  C   UNL     1       2.121   7.128  18.821  0.00  0.00    +0.000 A 
ATOM     10  C   UNL     1       2.000   8.185  17.914  0.00  0.00    +0.000 A 
ATOM     11  C   UNL     1       1.581   9.441  18.357  0.00  0.00    +0.000 A 
ATOM     12  C   UNL     1       1.278   9.633  19.707  0.00  0.00    +0.000 A 
ATOM     13  C   UNL     1       1.412   8.579  20.617  0.00  0.00    +0.000 A 
ATOM     14  C   UNL     1       1.863   7.336  20.182  0.00  0.00    +0.000 A 
ATOM     15  O   UNL     1       1.090   8.689  21.944  0.00  0.00    +0.000 OA
ATOM     16  C   UNL     1       0.240   9.818  22.170  0.00  0.00    +0.000 C 
ATOM     17  C   UNL     1       0.798  11.050  21.477  0.00  0.00    +0.000 C 
ATOM     18  O   UNL     1       0.817  10.876  20.055  0.00  0.00    +0.000 OA
ENDBRANCH   4   9
BRANCH   1  19
ATOM     19  O   UNL     1       1.529   3.692  16.415  0.00  0.00    +0.000 OA
ATOM     20  H   UNL     1       2.024   3.555  15.586  0.00  0.00    +0.000 HD
ENDBRANCH   1  19
BRANCH   8  21
ATOM     21  C   UNL     1       4.363   2.933  19.974  0.00  0.00    +0.000 C 
BRANCH  21  22
ATOM     22  C   UNL     1       5.065   3.800  18.920  0.00  0.00    +0.000 A 
ATOM     23  C   UNL     1       5.765   4.972  19.252  0.00  0.00    +0.000 A 
ATOM     24  C   UNL     1       6.465   5.702  18.275  0.00  0.00    +0.000 A 
ATOM     25  C   UNL     1       6.474   5.262  16.959  0.00  0.00    +0.000 A 
ATOM     26  C   UNL     1       5.773   4.107  16.611  0.00  0.00    +0.000 A 
ATOM     27  C   UNL     1       5.038   3.404  17.572  0.00  0.00    +0.000 A 
ATOM     28  O   UNL     1       5.771   3.579  15.344  0.00  0.00    +0.000 OA
ATOM     29  C   UNL     1       6.876   4.085  14.587  0.00  0.00    +0.000 C 
ATOM     30  C   UNL     1       6.938   5.598  14.709  0.00  0.00    +0.000 C 
ATOM     31  O   UNL     1       7.208   5.995  16.058  0.00  0.00    +0.000 OA
ENDBRANCH  21  22
BRANCH  21  32
ATOM     32  N   UNL     1       5.269   1.838  20.412  0.00  0.00    +0.000 NA
ATOM     33  H   UNL     1       4.990   1.508  21.337  0.00  0.00    +0.000 HD
BRANCH  32  34
ATOM     34  O   UNL     1       4.989   0.669  19.582  0.00  0.00    +0.000 OA
ATOM     35  H   UNL     1       5.349  -0.052  20.138  0.00  0.00    +0.000 HD
ENDBRANCH  32  34
ENDBRANCH  21  32
ENDBRANCH   8  21
TORSDOF 6
ENDMDL
MODEL 2
REMARK VINA RESULT:      -8.9      0.746      1.408
REMARK  Name = 
REMARK  6 active torsions:
REMARK  status: ('A' for Active; 'I' for Inactive)
REMARK    1  A    between atoms: O_1  and  N_2
REMARK    2  A    between atoms: C_5  and  C_6
REMARK    3  A    between atoms: C_19  and  C_20
REMARK    4  A    between atoms: C_20  and  N_21
REMARK    5  A    between atoms: C_20  and  C_23
REMARK    6  A    between atoms: N_21  and  O_22
REMARK                            x       y       z     vdW  Elec       q    Type
REMARK                         _______ _______ _______ _____ _____    ______ ____
ROOT
ATOM      1  N   UNL     1       2.075   3.280  17.334  0.00  0.00    +0.000 NA
ATOM      2  C   UNL     1       2.217   3.608  18.578  0.00  0.00    +0.000 C 
ATOM      3  C   UNL     1       1.656   4.825  19.263  0.00  0.00    +0.000 C 
ATOM      4  C   UNL     1       2.037   6.040  18.829  0.00  0.00    +0.000 C 
ATOM      5  C   UNL     1       0.791   4.496  20.447  0.00  0.00    +0.000 C 
ATOM      6  C   UNL     1       1.523   3.552  21.400  0.00  0.00    +0.000 C 
ATOM      7  C   UNL     1       1.993   2.300  20.652  0.00  0.00    +0.000 C 
ATOM      8  C   UNL     1       2.970   2.633  19.499  0.00  0.00    +0.000 C 
ENDROOT
BRANCH   4   9
ATOM      9  C   UNL     1       1.662   7.262  19.537  0.00  0.00    +0.000 A 
ATOM     10  C   UNL     1       1.657   7.285  20.935  0.00  0.00    +0.000 A 
ATOM     11  C   UNL     1       1.464   8.490  21.612  0.00  0.00    +0.000 A 
ATOM     12  C   UNL     1       1.281   9.670  20.888  0.00  0.00    +0.000 A 
ATOM     13  C   UNL     1       1.272   9.645  19.488  0.00  0.00    +0.000 A 
ATOM     14  C   UNL     1       1.431   8.438  18.813  0.00  0.00    +0.000 A 
ATOM     15  O   UNL     1       1.141  10.771  18.719  0.00  0.00    +0.000 OA
ATOM     16  C   UNL     1       1.438  11.946  19.481  0.00  0.00    +0.000 C 
ATOM     17  C   UNL     1       0.706  11.914  20.812  0.00  0.00    +0.000 C 
ATOM     18  O   UNL     1       1.156  10.821  21.622  0.00  0.00    +0.000 OA
ENDBRANCH   4   9
BRANCH   1  19
ATOM     19  O   UNL     1       1.297   4.205  16.627  0.00  0.00    +0.000 OA
ATOM     20  H   UNL     1       1.957   4.873  16.366  0.00  0.00    +0.000 HD
ENDBRANCH   1  19
BRANCH   8  21
ATOM     21  C   UNL     1       4.366   3.200  19.920  0.00  0.00    +0.000 C 
BRANCH  21  22
ATOM     22  C   UNL     1       5.102   3.985  18.825  0.00  0.00    +0.000 A 
ATOM     23  C   UNL     1       5.909   5.098  19.107  0.00  0.00    +0.000 A 
ATOM     24  C   UNL     1       6.634   5.748  18.093  0.00  0.00    +0.000 A 
ATOM     25  C   UNL     1       6.560   5.284  16.787  0.00  0.00    +0.000 A 
ATOM     26  C   UNL     1       5.752   4.187  16.487  0.00  0.00    +0.000 A 
ATOM     27  C   UNL     1       4.995   3.566  17.487  0.00  0.00    +0.000 A 
ATOM     28  O   UNL     1       5.662   3.636  15.233  0.00  0.00    +0.000 OA
ATOM     29  C   UNL     1       6.778   4.033  14.429  0.00  0.00    +0.000 C 
ATOM     30  C   UNL     1       6.972   5.537  14.516  0.00  0.00    +0.000 C 
ATOM     31  O   UNL     1       7.321   5.935  15.846  0.00  0.00    +0.000 OA
ENDBRANCH  21  22
BRANCH  21  32
ATOM     32  N   UNL     1       5.275   2.182  20.509  0.00  0.00    +0.000 NA
ATOM     33  H   UNL     1       4.938   1.911  21.434  0.00  0.00    +0.000 HD
BRANCH  32  34
ATOM     34  O   UNL     1       5.106   0.942  19.756  0.00  0.00    +0.000 OA
ATOM     35  H   UNL     1       4.561   1.248  19.002  0.00  0.00    +0.000 HD
ENDBRANCH  32  34
ENDBRANCH  21  32
ENDBRANCH   8  21
TORSDOF 6
ENDMDL
MODEL 3
REMARK VINA RESULT:      -8.6      4.412      9.381
REMARK  Name = 
REMARK  6 active torsions:
REMARK  status: ('A' for Active; 'I' for Inactive)
REMARK    1  A    between atoms: O_1  and  N_2
REMARK    2  A    between atoms: C_5  and  C_6
REMARK    3  A    between atoms: C_19  and  C_20
REMARK    4  A    between atoms: C_20  and  N_21
REMARK    5  A    between atoms: C_20  and  C_23
REMARK    6  A    between atoms: N_21  and  O_22
REMARK                            x       y       z     vdW  Elec       q    Type
REMARK                         _______ _______ _______ _____ _____    ______ ____
ROOT
ATOM      1  N   UNL     1      -0.013  11.672  22.279  0.00  0.00    +0.000 NA
ATOM      2  C   UNL     1       0.124  11.376  21.027  0.00  0.00    +0.000 C 
ATOM      3  C   UNL     1       0.271  10.001  20.433  0.00  0.00    +0.000 C 
ATOM      4  C   UNL     1       1.330   9.254  20.794  0.00  0.00    +0.000 C 
ATOM      5  C   UNL     1      -0.775   9.684  19.402  0.00  0.00    +0.000 C 
ATOM      6  C   UNL     1      -0.845  10.790  18.350  0.00  0.00    +0.000 C 
ATOM      7  C   UNL     1      -1.077  12.148  19.021  0.00  0.00    +0.000 C 
ATOM      8  C   UNL     1       0.058  12.522  20.004  0.00  0.00    +0.000 C 
ENDROOT
BRANCH   4   9
ATOM      9  C   UNL     1       1.627   7.978  20.148  0.00  0.00    +0.000 A 
ATOM     10  C   UNL     1       2.206   7.957  18.876  0.00  0.00    +0.000 A 
ATOM     11  C   UNL     1       2.644   6.751  18.327  0.00  0.00    +0.000 A 
ATOM     12  C   UNL     1       2.507   5.568  19.058  0.00  0.00    +0.000 A 
ATOM     13  C   UNL     1       1.915   5.586  20.326  0.00  0.00    +0.000 A 
ATOM     14  C   UNL     1       1.447   6.784  20.858  0.00  0.00    +0.000 A 
ATOM     15  O   UNL     1       1.790   4.470  21.110  0.00  0.00    +0.000 OA
ATOM     16  C   UNL     1       2.681   3.439  20.675  0.00  0.00    +0.000 C 
ATOM     17  C   UNL     1       2.585   3.255  19.170  0.00  0.00    +0.000 C 
ATOM     18  O   UNL     1       3.014   4.435  18.478  0.00  0.00    +0.000 OA
ENDBRANCH   4   9
BRANCH   1  19
ATOM     19  O   UNL     1      -0.024  10.534  23.095  0.00  0.00    +0.000 OA
ATOM     20  H   UNL     1      -0.559  10.829  23.855  0.00  0.00    +0.000 HD
ENDBRANCH   1  19
BRANCH   8  21
ATOM     21  C   UNL     1       1.458  12.807  19.365  0.00  0.00    +0.000 C 
BRANCH  21  22
ATOM     22  C   UNL     1       2.221  13.987  19.982  0.00  0.00    +0.000 A 
ATOM     23  C   UNL     1       2.165  15.284  19.448  0.00  0.00    +0.000 A 
ATOM     24  C   UNL     1       2.810  16.360  20.081  0.00  0.00    +0.000 A 
ATOM     25  C   UNL     1       3.513  16.148  21.258  0.00  0.00    +0.000 A 
ATOM     26  C   UNL     1       3.591  14.862  21.795  0.00  0.00    +0.000 A 
ATOM     27  C   UNL     1       2.987  13.781  21.143  0.00  0.00    +0.000 A 
ATOM     28  O   UNL     1       4.224  14.575  22.978  0.00  0.00    +0.000 OA
ATOM     29  C   UNL     1       4.392  15.764  23.759  0.00  0.00    +0.000 C 
ATOM     30  C   UNL     1       4.988  16.867  22.901  0.00  0.00    +0.000 C 
ATOM     31  O   UNL     1       4.090  17.245  21.852  0.00  0.00    +0.000 OA
ENDBRANCH  21  22
BRANCH  21  32
ATOM     32  N   UNL     1       1.427  12.943  17.886  0.00  0.00    +0.000 NA
ATOM     33  H   UNL     1       1.652  13.903  17.622  0.00  0.00    +0.000 HD
BRANCH  32  34
ATOM     34  O   UNL     1       2.572  12.212  17.346  0.00  0.00    +0.000 OA
ATOM     35  H   UNL     1       2.555  11.399  17.891  0.00  0.00    +0.000 HD
ENDBRANCH  32  34
ENDBRANCH  21  32
ENDBRANCH   8  21
TORSDOF 6
ENDMDL
MODEL 4
REMARK VINA RESULT:      -8.5      4.415      9.411
REMARK  Name = 
REMARK  6 active torsions:
REMARK  status: ('A' for Active; 'I' for Inactive)
REMARK    1  A    between atoms: O_1  and  N_2
REMARK    2  A    between atoms: C_5  and  C_6
REMARK    3  A    between atoms: C_19  and  C_20
REMARK    4  A    between atoms: C_20  and  N_21
REMARK    5  A    between atoms: C_20  and  C_23
REMARK    6  A    between atoms: N_21  and  O_22
REMARK                            x       y       z     vdW  Elec       q    Type
REMARK                         _______ _______ _______ _____ _____    ______ ____
ROOT
ATOM      1  N   UNL     1       0.247  11.017  22.571  0.00  0.00    +0.000 NA
ATOM      2  C   UNL     1       0.175  10.725  21.312  0.00  0.00    +0.000 C 
ATOM      3  C   UNL     1       0.336   9.364  20.688  0.00  0.00    +0.000 C 
ATOM      4  C   UNL     1       1.508   8.722  20.838  0.00  0.00    +0.000 C 
ATOM      5  C   UNL     1      -0.850   8.943  19.867  0.00  0.00    +0.000 C 
ATOM      6  C   UNL     1      -1.218  10.029  18.858  0.00  0.00    +0.000 C 
ATOM      7  C   UNL     1      -1.446  11.365  19.573  0.00  0.00    +0.000 C 
ATOM      8  C   UNL     1      -0.187  11.851  20.330  0.00  0.00    +0.000 C 
ENDROOT
BRANCH   4   9
ATOM      9  C   UNL     1       1.797   7.474  20.136  0.00  0.00    +0.000 A 
ATOM     10  C   UNL     1       2.356   7.507  18.855  0.00  0.00    +0.000 A 
ATOM     11  C   UNL     1       2.787   6.325  18.251  0.00  0.00    +0.000 A 
ATOM     12  C   UNL     1       2.663   5.112  18.934  0.00  0.00    +0.000 A 
ATOM     13  C   UNL     1       2.091   5.077  20.211  0.00  0.00    +0.000 A 
ATOM     14  C   UNL     1       1.629   6.251  20.799  0.00  0.00    +0.000 A 
ATOM     15  O   UNL     1       1.980   3.930  20.951  0.00  0.00    +0.000 OA
ATOM     16  C   UNL     1       2.866   2.919  20.460  0.00  0.00    +0.000 C 
ATOM     17  C   UNL     1       2.746   2.796  18.950  0.00  0.00    +0.000 C 
ATOM     18  O   UNL     1       3.162   4.004  18.301  0.00  0.00    +0.000 OA
ENDBRANCH   4   9
BRANCH   1  19
ATOM     19  O   UNL     1       0.495   9.889  23.363  0.00  0.00    +0.000 OA
ATOM     20  H   UNL     1       1.315  10.139  23.827  0.00  0.00    +0.000 HD
ENDBRANCH   1  19
BRANCH   8  21
ATOM     21  C   UNL     1       1.036  12.260  19.444  0.00  0.00    +0.000 C 
BRANCH  21  22
ATOM     22  C   UNL     1       1.277  13.771  19.332  0.00  0.00    +0.000 A 
ATOM     23  C   UNL     1       2.516  14.362  19.628  0.00  0.00    +0.000 A 
ATOM     24  C   UNL     1       2.730  15.738  19.439  0.00  0.00    +0.000 A 
ATOM     25  C   UNL     1       1.705  16.535  18.948  0.00  0.00    +0.000 A 
ATOM     26  C   UNL     1       0.463  15.966  18.662  0.00  0.00    +0.000 A 
ATOM     27  C   UNL     1       0.235  14.605  18.891  0.00  0.00    +0.000 A 
ATOM     28  O   UNL     1      -0.586  16.673  18.129  0.00  0.00    +0.000 OA
ATOM     29  C   UNL     1      -0.120  17.885  17.526  0.00  0.00    +0.000 C 
ATOM     30  C   UNL     1       0.798  18.622  18.487  0.00  0.00    +0.000 C 
ATOM     31  O   UNL     1       1.985  17.865  18.748  0.00  0.00    +0.000 OA
ENDBRANCH  21  22
BRANCH  21  32
ATOM     32  N   UNL     1       1.029  11.648  18.090  0.00  0.00    +0.000 NA
ATOM     33  H   UNL     1       1.086  12.379  17.379  0.00  0.00    +0.000 HD
BRANCH  32  34
ATOM     34  O   UNL     1       2.302  10.955  17.906  0.00  0.00    +0.000 OA
ATOM     35  H   UNL     1       2.340  10.878  16.931  0.00  0.00    +0.000 HD
ENDBRANCH  32  34
ENDBRANCH  21  32
ENDBRANCH   8  21
TORSDOF 6
ENDMDL
MODEL 5
REMARK VINA RESULT:      -8.5      4.245      7.278
REMARK  Name = 
REMARK  6 active torsions:
REMARK  status: ('A' for Active; 'I' for Inactive)
REMARK    1  A    between atoms: O_1  and  N_2
REMARK    2  A    between atoms: C_5  and  C_6
REMARK    3  A    between atoms: C_19  and  C_20
REMARK    4  A    between atoms: C_20  and  N_21
REMARK    5  A    between atoms: C_20  and  C_23
REMARK    6  A    between atoms: N_21  and  O_22
REMARK                            x       y       z     vdW  Elec       q    Type
REMARK                         _______ _______ _______ _____ _____    ______ ____
ROOT
ATOM      1  N   UNL     1      -1.174  10.412  18.659  0.00  0.00    +0.000 NA
ATOM      2  C   UNL     1      -0.560  10.952  19.661  0.00  0.00    +0.000 C 
ATOM      3  C   UNL     1       0.056  12.325  19.712  0.00  0.00    +0.000 C 
ATOM      4  C   UNL     1       1.056  12.612  18.859  0.00  0.00    +0.000 C 
ATOM      5  C   UNL     1      -0.486  13.180  20.822  0.00  0.00    +0.000 C 
ATOM      6  C   UNL     1      -0.415  12.437  22.156  0.00  0.00    +0.000 C 
ATOM      7  C   UNL     1      -1.133  11.087  22.052  0.00  0.00    +0.000 C 
ATOM      8  C   UNL     1      -0.503  10.165  20.981  0.00  0.00    +0.000 C 
ENDROOT
BRANCH   4   9
ATOM      9  C   UNL     1       1.808  13.861  18.949  0.00  0.00    +0.000 A 
ATOM     10  C   UNL     1       1.207  15.067  18.575  0.00  0.00    +0.000 A 
ATOM     11  C   UNL     1       1.859  16.277  18.817  0.00  0.00    +0.000 A 
ATOM     12  C   UNL     1       3.110  16.277  19.438  0.00  0.00    +0.000 A 
ATOM     13  C   UNL     1       3.719  15.070  19.800  0.00  0.00    +0.000 A 
ATOM     14  C   UNL     1       3.084  13.861  19.528  0.00  0.00    +0.000 A 
ATOM     15  O   UNL     1       4.923  15.003  20.450  0.00  0.00    +0.000 OA
ATOM     16  C   UNL     1       5.242  16.257  21.061  0.00  0.00    +0.000 C 
ATOM     17  C   UNL     1       5.038  17.395  20.074  0.00  0.00    +0.000 C 
ATOM     18  O   UNL     1       3.661  17.506  19.694  0.00  0.00    +0.000 OA
ENDBRANCH   4   9
BRANCH   1  19
ATOM     19  O   UNL     1      -1.232  11.265  17.550  0.00  0.00    +0.000 OA
ATOM     20  H   UNL     1      -1.173  12.146  17.964  0.00  0.00    +0.000 HD
ENDBRANCH   1  19
BRANCH   8  21
ATOM     21  C   UNL     1       0.942   9.646  21.281  0.00  0.00    +0.000 C 
BRANCH  21  22
ATOM     22  C   UNL     1       1.431   8.525  20.353  0.00  0.00    +0.000 A 
ATOM     23  C   UNL     1       1.884   8.772  19.047  0.00  0.00    +0.000 A 
ATOM     24  C   UNL     1       2.401   7.737  18.249  0.00  0.00    +0.000 A 
ATOM     25  C   UNL     1       2.474   6.447  18.754  0.00  0.00    +0.000 A 
ATOM     26  C   UNL     1       2.016   6.182  20.045  0.00  0.00    +0.000 A 
ATOM     27  C   UNL     1       1.459   7.202  20.825  0.00  0.00    +0.000 A 
ATOM     28  O   UNL     1       2.097   4.946  20.636  0.00  0.00    +0.000 OA
ATOM     29  C   UNL     1       3.060   4.129  19.962  0.00  0.00    +0.000 C 
ATOM     30  C   UNL     1       2.815   4.168  18.463  0.00  0.00    +0.000 C 
ATOM     31  O   UNL     1       3.025   5.485  17.942  0.00  0.00    +0.000 OA
ENDBRANCH  21  22
BRANCH  21  32
ATOM     32  N   UNL     1       1.159   9.258  22.699  0.00  0.00    +0.000 NA
ATOM     33  H   UNL     1       1.039   8.249  22.805  0.00  0.00    +0.000 HD
BRANCH  32  34
ATOM     34  O   UNL     1       2.581   9.419  22.993  0.00  0.00    +0.000 OA
ATOM     35  H   UNL     1       2.964   9.433  22.093  0.00  0.00    +0.000 HD
ENDBRANCH  32  34
ENDBRANCH  21  32
ENDBRANCH   8  21
TORSDOF 6
ENDMDL
MODEL 6
REMARK VINA RESULT:      -8.5      4.565     10.498
REMARK  Name = 
REMARK  6 active torsions:
REMARK  status: ('A' for Active; 'I' for Inactive)
REMARK    1  A    between atoms: O_1  and  N_2
REMARK    2  A    between atoms: C_5  and  C_6
REMARK    3  A    between atoms: C_19  and  C_20
REMARK    4  A    between atoms: C_20  and  N_21
REMARK    5  A    between atoms: C_20  and  C_23
REMARK    6  A    between atoms: N_21  and  O_22
REMARK                            x       y       z     vdW  Elec       q    Type
REMARK                         _______ _______ _______ _____ _____    ______ ____
ROOT
ATOM      1  N   UNL     1      -1.473  12.461  18.437  0.00  0.00    +0.000 NA
ATOM      2  C   UNL     1      -0.265  12.399  18.897  0.00  0.00    +0.000 C 
ATOM      3  C   UNL     1       0.664  11.216  18.846  0.00  0.00    +0.000 C 
ATOM      4  C   UNL     1       0.296  10.083  19.472  0.00  0.00    +0.000 C 
ATOM      5  C   UNL     1       1.968  11.513  18.162  0.00  0.00    +0.000 C 
ATOM      6  C   UNL     1       2.615  12.762  18.758  0.00  0.00    +0.000 C 
ATOM      7  C   UNL     1       1.642  13.944  18.702  0.00  0.00    +0.000 C 
ATOM      8  C   UNL     1       0.343  13.677  19.499  0.00  0.00    +0.000 C 
ENDROOT
BRANCH   4   9
ATOM      9  C   UNL     1       1.205   8.947  19.601  0.00  0.00    +0.000 A 
ATOM     10  C   UNL     1       1.175   8.155  20.753  0.00  0.00    +0.000 A 
ATOM     11  C   UNL     1       1.919   6.976  20.811  0.00  0.00    +0.000 A 
ATOM     12  C   UNL     1       2.687   6.588  19.711  0.00  0.00    +0.000 A 
ATOM     13  C   UNL     1       2.729   7.387  18.562  0.00  0.00    +0.000 A 
ATOM     14  C   UNL     1       2.015   8.580  18.517  0.00  0.00    +0.000 A 
ATOM     15  O   UNL     1       3.427   7.042  17.434  0.00  0.00    +0.000 OA
ATOM     16  C   UNL     1       3.728   5.643  17.429  0.00  0.00    +0.000 C 
ATOM     17  C   UNL     1       4.304   5.219  18.770  0.00  0.00    +0.000 C 
ATOM     18  O   UNL     1       3.343   5.390  19.820  0.00  0.00    +0.000 OA
ENDBRANCH   4   9
BRANCH   1  19
ATOM     19  O   UNL     1      -1.874  11.260  17.838  0.00  0.00    +0.000 OA
ATOM     20  H   UNL     1      -1.266  10.614  18.244  0.00  0.00    +0.000 HD
ENDBRANCH   1  19
BRANCH   8  21
ATOM     21  C   UNL     1       0.496  13.567  21.052  0.00  0.00    +0.000 C 
BRANCH  21  22
ATOM     22  C   UNL     1      -0.772  13.128  21.797  0.00  0.00    +0.000 A 
ATOM     23  C   UNL     1      -0.856  11.908  22.487  0.00  0.00    +0.000 A 
ATOM     24  C   UNL     1      -2.002  11.568  23.227  0.00  0.00    +0.000 A 
ATOM     25  C   UNL     1      -3.072  12.450  23.286  0.00  0.00    +0.000 A 
ATOM     26  C   UNL     1      -3.010  13.661  22.593  0.00  0.00    +0.000 A 
ATOM     27  C   UNL     1      -1.889  13.981  21.820  0.00  0.00    +0.000 A 
ATOM     28  O   UNL     1      -4.002  14.608  22.638  0.00  0.00    +0.000 OA
ATOM     29  C   UNL     1      -4.849  14.394  23.773  0.00  0.00    +0.000 C 
ATOM     30  C   UNL     1      -5.275  12.937  23.836  0.00  0.00    +0.000 C 
ATOM     31  O   UNL     1      -4.149  12.081  24.056  0.00  0.00    +0.000 OA
ENDBRANCH  21  22
BRANCH  21  32
ATOM     32  N   UNL     1       1.059  14.787  21.688  0.00  0.00    +0.000 NA
ATOM     33  H   UNL     1       0.572  14.975  22.566  0.00  0.00    +0.000 HD
BRANCH  32  34
ATOM     34  O   UNL     1       2.404  14.465  22.159  0.00  0.00    +0.000 OA
ATOM     35  H   UNL     1       2.584  15.219  22.757  0.00  0.00    +0.000 HD
ENDBRANCH  32  34
ENDBRANCH  21  32
ENDBRANCH   8  21
TORSDOF 6
ENDMDL
MODEL 7
REMARK VINA RESULT:      -8.5      4.639      9.243
REMARK  Name = 
REMARK  6 active torsions:
REMARK  status: ('A' for Active; 'I' for Inactive)
REMARK    1  A    between atoms: O_1  and  N_2
REMARK    2  A    between atoms: C_5  and  C_6
REMARK    3  A    between atoms: C_19  and  C_20
REMARK    4  A    between atoms: C_20  and  N_21
REMARK    5  A    between atoms: C_20  and  C_23
REMARK    6  A    between atoms: N_21  and  O_22
REMARK                            x       y       z     vdW  Elec       q    Type
REMARK                         _______ _______ _______ _____ _____    ______ ____
ROOT
ATOM      1  N   UNL     1       0.030  11.729  22.201  0.00  0.00    +0.000 NA
ATOM      2  C   UNL     1       0.186  11.426  20.952  0.00  0.00    +0.000 C 
ATOM      3  C   UNL     1       0.309  10.045  20.364  0.00  0.00    +0.000 C 
ATOM      4  C   UNL     1       1.339   9.272  20.751  0.00  0.00    +0.000 C 
ATOM      5  C   UNL     1      -0.722   9.754  19.311  0.00  0.00    +0.000 C 
ATOM      6  C   UNL     1      -0.739  10.859  18.256  0.00  0.00    +0.000 C 
ATOM      7  C   UNL     1      -0.949  12.225  18.919  0.00  0.00    +0.000 C 
ATOM      8  C   UNL     1       0.173  12.571  19.926  0.00  0.00    +0.000 C 
ENDROOT
BRANCH   4   9
ATOM      9  C   UNL     1       1.616   7.986  20.114  0.00  0.00    +0.000 A 
ATOM     10  C   UNL     1       2.203   7.947  18.846  0.00  0.00    +0.000 A 
ATOM     11  C   UNL     1       2.622   6.730  18.307  0.00  0.00    +0.000 A 
ATOM     12  C   UNL     1       2.457   5.554  19.043  0.00  0.00    +0.000 A 
ATOM     13  C   UNL     1       1.856   5.591  20.306  0.00  0.00    +0.000 A 
ATOM     14  C   UNL     1       1.408   6.800  20.829  0.00  0.00    +0.000 A 
ATOM     15  O   UNL     1       1.705   4.481  21.097  0.00  0.00    +0.000 OA
ATOM     16  C   UNL     1       2.579   3.431  20.673  0.00  0.00    +0.000 C 
ATOM     17  C   UNL     1       2.489   3.240  19.168  0.00  0.00    +0.000 C 
ATOM     18  O   UNL     1       2.945   4.407  18.473  0.00  0.00    +0.000 OA
ENDBRANCH   4   9
BRANCH   1  19
ATOM     19  O   UNL     1      -0.030  10.593  23.018  0.00  0.00    +0.000 OA
ATOM     20  H   UNL     1       0.870  10.561  23.392  0.00  0.00    +0.000 HD
ENDBRANCH   1  19
BRANCH   8  21
ATOM     21  C   UNL     1       1.594  12.816  19.318  0.00  0.00    +0.000 C 
BRANCH  21  22
ATOM     22  C   UNL     1       2.333  14.040  19.875  0.00  0.00    +0.000 A 
ATOM     23  C   UNL     1       2.182  14.472  21.203  0.00  0.00    +0.000 A 
ATOM     24  C   UNL     1       2.933  15.548  21.708  0.00  0.00    +0.000 A 
ATOM     25  C   UNL     1       3.845  16.197  20.889  0.00  0.00    +0.000 A 
ATOM     26  C   UNL     1       3.997  15.790  19.563  0.00  0.00    +0.000 A 
ATOM     27  C   UNL     1       3.219  14.748  19.045  0.00  0.00    +0.000 A 
ATOM     28  O   UNL     1       4.911  16.346  18.702  0.00  0.00    +0.000 OA
ATOM     29  C   UNL     1       5.926  17.045  19.430  0.00  0.00    +0.000 C 
ATOM     30  C   UNL     1       5.288  17.966  20.456  0.00  0.00    +0.000 C 
ATOM     31  O   UNL     1       4.578  17.216  21.449  0.00  0.00    +0.000 OA
ENDBRANCH  21  22
BRANCH  21  32
ATOM     32  N   UNL     1       1.615  12.847  17.832  0.00  0.00    +0.000 NA
ATOM     33  H   UNL     1       2.041  13.717  17.510  0.00  0.00    +0.000 HD
BRANCH  32  34
ATOM     34  O   UNL     1       2.588  11.855  17.379  0.00  0.00    +0.000 OA
ATOM     35  H   UNL     1       3.305  12.429  17.041  0.00  0.00    +0.000 HD
ENDBRANCH  32  34
ENDBRANCH  21  32
ENDBRANCH   8  21
TORSDOF 6
ENDMDL
MODEL 8
REMARK VINA RESULT:      -8.5      0.758      1.510
REMARK  Name = 
REMARK  6 active torsions:
REMARK  status: ('A' for Active; 'I' for Inactive)
REMARK    1  A    between atoms: O_1  and  N_2
REMARK    2  A    between atoms: C_5  and  C_6
REMARK    3  A    between atoms: C_19  and  C_20
REMARK    4  A    between atoms: C_20  and  N_21
REMARK    5  A    between atoms: C_20  and  C_23
REMARK    6  A    between atoms: N_21  and  O_22
REMARK                            x       y       z     vdW  Elec       q    Type
REMARK                         _______ _______ _______ _____ _____    ______ ____
ROOT
ATOM      1  N   UNL     1       2.085   2.738  17.306  0.00  0.00    +0.000 NA
ATOM      2  C   UNL     1       2.251   3.247  18.484  0.00  0.00    +0.000 C 
ATOM      3  C   UNL     1       1.828   4.616  18.946  0.00  0.00    +0.000 C 
ATOM      4  C   UNL     1       2.355   5.692  18.334  0.00  0.00    +0.000 C 
ATOM      5  C   UNL     1       0.918   4.586  20.141  0.00  0.00    +0.000 C 
ATOM      6  C   UNL     1       1.524   3.734  21.256  0.00  0.00    +0.000 C 
ATOM      7  C   UNL     1       1.852   2.331  20.734  0.00  0.00    +0.000 C 
ATOM      8  C   UNL     1       2.873   2.357  19.573  0.00  0.00    +0.000 C 
ENDROOT
BRANCH   4   9
ATOM      9  C   UNL     1       2.118   7.048  18.824  0.00  0.00    +0.000 A 
ATOM     10  C   UNL     1       2.009   8.108  17.918  0.00  0.00    +0.000 A 
ATOM     11  C   UNL     1       1.618   9.371  18.365  0.00  0.00    +0.000 A 
ATOM     12  C   UNL     1       1.329   9.568  19.718  0.00  0.00    +0.000 A 
ATOM     13  C   UNL     1       1.451   8.510  20.627  0.00  0.00    +0.000 A 
ATOM     14  C   UNL     1       1.875   7.259  20.187  0.00  0.00    +0.000 A 
ATOM     15  O   UNL     1       1.142   8.625  21.957  0.00  0.00    +0.000 OA
ATOM     16  C   UNL     1       0.315   9.770  22.190  0.00  0.00    +0.000 C 
ATOM     17  C   UNL     1       0.891  10.991  21.493  0.00  0.00    +0.000 C 
ATOM     18  O   UNL     1       0.895  10.819  20.071  0.00  0.00    +0.000 OA
ENDBRANCH   4   9
BRANCH   1  19
ATOM     19  O   UNL     1       1.428   3.618  16.436  0.00  0.00    +0.000 OA
ATOM     20  H   UNL     1       0.490   3.407  16.598  0.00  0.00    +0.000 HD
ENDBRANCH   1  19
BRANCH   8  21
ATOM     21  C   UNL     1       4.322   2.822  19.939  0.00  0.00    +0.000 C 
BRANCH  21  22
ATOM     22  C   UNL     1       5.040   3.621  18.842  0.00  0.00    +0.000 A 
ATOM     23  C   UNL     1       4.935   3.296  17.480  0.00  0.00    +0.000 A 
ATOM     24  C   UNL     1       5.538   4.094  16.493  0.00  0.00    +0.000 A 
ATOM     25  C   UNL     1       6.249   5.227  16.861  0.00  0.00    +0.000 A 
ATOM     26  C   UNL     1       6.375   5.557  18.211  0.00  0.00    +0.000 A 
ATOM     27  C   UNL     1       5.813   4.740  19.198  0.00  0.00    +0.000 A 
ATOM     28  O   UNL     1       7.018   6.685  18.656  0.00  0.00    +0.000 OA
ATOM     29  C   UNL     1       7.141   7.643  17.598  0.00  0.00    +0.000 C 
ATOM     30  C   UNL     1       7.695   6.972  16.352  0.00  0.00    +0.000 C 
ATOM     31  O   UNL     1       6.783   5.989  15.849  0.00  0.00    +0.000 OA
ENDBRANCH  21  22
BRANCH  21  32
ATOM     32  N   UNL     1       5.201   1.726  20.423  0.00  0.00    +0.000 NA
ATOM     33  H   UNL     1       4.859   1.378  21.320  0.00  0.00    +0.000 HD
BRANCH  32  34
ATOM     34  O   UNL     1       4.990   0.568  19.556  0.00  0.00    +0.000 OA
ATOM     35  H   UNL     1       5.750   0.003  19.801  0.00  0.00    +0.000 HD
ENDBRANCH  32  34
ENDBRANCH  21  32
ENDBRANCH   8  21
TORSDOF 6
ENDMDL
MODEL 9
REMARK VINA RESULT:      -8.3      3.636      6.854
REMARK  Name = 
REMARK  6 active torsions:
REMARK  status: ('A' for Active; 'I' for Inactive)
REMARK    1  A    between atoms: O_1  and  N_2
REMARK    2  A    between atoms: C_5  and  C_6
REMARK    3  A    between atoms: C_19  and  C_20
REMARK    4  A    between atoms: C_20  and  N_21
REMARK    5  A    between atoms: C_20  and  C_23
REMARK    6  A    between atoms: N_21  and  O_22
REMARK                            x       y       z     vdW  Elec       q    Type
REMARK                         _______ _______ _______ _____ _____    ______ ____
ROOT
ATOM      1  N   UNL     1       2.593  11.743  17.883  0.00  0.00    +0.000 NA
ATOM      2  C   UNL     1       1.615  11.232  18.559  0.00  0.00    +0.000 C 
ATOM      3  C   UNL     1       0.668  11.963  19.473  0.00  0.00    +0.000 C 
ATOM      4  C   UNL     1       1.171  12.593  20.550  0.00  0.00    +0.000 C 
ATOM      5  C   UNL     1      -0.776  11.792  19.093  0.00  0.00    +0.000 C 
ATOM      6  C   UNL     1      -1.117  10.311  18.930  0.00  0.00    +0.000 C 
ATOM      7  C   UNL     1      -0.165   9.654  17.926  0.00  0.00    +0.000 C 
ATOM      8  C   UNL     1       1.314   9.736  18.373  0.00  0.00    +0.000 C 
ENDROOT
BRANCH   4   9
ATOM      9  C   UNL     1       0.306  13.190  21.565  0.00  0.00    +0.000 A 
ATOM     10  C   UNL     1       0.358  14.566  21.805  0.00  0.00    +0.000 A 
ATOM     11  C   UNL     1      -0.578  15.164  22.650  0.00  0.00    +0.000 A 
ATOM     12  C   UNL     1      -1.570  14.382  23.247  0.00  0.00    +0.000 A 
ATOM     13  C   UNL     1      -1.614  13.002  23.018  0.00  0.00    +0.000 A 
ATOM     14  C   UNL     1      -0.659  12.401  22.203  0.00  0.00    +0.000 A 
ATOM     15  O   UNL     1      -2.585  12.186  23.538  0.00  0.00    +0.000 OA
ATOM     16  C   UNL     1      -3.721  12.950  23.956  0.00  0.00    +0.000 C 
ATOM     17  C   UNL     1      -3.282  14.141  24.791  0.00  0.00    +0.000 C 
ATOM     18  O   UNL     1      -2.488  15.048  24.016  0.00  0.00    +0.000 OA
ENDBRANCH   4   9
BRANCH   1  19
ATOM     19  O   UNL     1       2.704  13.126  18.074  0.00  0.00    +0.000 OA
ATOM     20  H   UNL     1       3.213  13.179  18.904  0.00  0.00    +0.000 HD
ENDBRANCH   1  19
BRANCH   8  21
ATOM     21  C   UNL     1       1.697   8.908  19.644  0.00  0.00    +0.000 C 
BRANCH  21  22
ATOM     22  C   UNL     1       2.109   7.455  19.369  0.00  0.00    +0.000 A 
ATOM     23  C   UNL     1       2.873   7.086  18.250  0.00  0.00    +0.000 A 
ATOM     24  C   UNL     1       3.303   5.760  18.068  0.00  0.00    +0.000 A 
ATOM     25  C   UNL     1       2.975   4.793  19.007  0.00  0.00    +0.000 A 
ATOM     26  C   UNL     1       2.204   5.140  20.117  0.00  0.00    +0.000 A 
ATOM     27  C   UNL     1       1.738   6.449  20.278  0.00  0.00    +0.000 A 
ATOM     28  O   UNL     1       1.877   4.256  21.115  0.00  0.00    +0.000 OA
ATOM     29  C   UNL     1       2.753   3.124  21.090  0.00  0.00    +0.000 C 
ATOM     30  C   UNL     1       2.849   2.573  19.677  0.00  0.00    +0.000 C 
ATOM     31  O   UNL     1       3.455   3.523  18.794  0.00  0.00    +0.000 OA
ENDBRANCH  21  22
BRANCH  21  32
ATOM     32  N   UNL     1       0.672   8.948  20.720  0.00  0.00    +0.000 NA
ATOM     33  H   UNL     1       0.413   7.997  20.986  0.00  0.00    +0.000 HD
BRANCH  32  34
ATOM     34  O   UNL     1       1.321   9.430  21.937  0.00  0.00    +0.000 OA
ATOM     35  H   UNL     1       1.704   8.602  22.292  0.00  0.00    +0.000 HD
ENDBRANCH  32  34
ENDBRANCH  21  32
ENDBRANCH   8  21
TORSDOF 6
ENDMDL
