MODEL 1
REMARK VINA RESULT:      -6.6      0.000      0.000
REMARK  Name = 
REMARK  1 active torsions:
REMARK  status: ('A' for Active; 'I' for Inactive)
REMARK    1  A    between atoms: C_6  and  N_7
REMARK                            x       y       z     vdW  Elec       q    Type
REMARK                         _______ _______ _______ _____ _____    ______ ____
ROOT
ATOM      1 CL   UNL     1       0.991   4.467  20.230  0.00  0.00    +0.000 Cl
ATOM      2  C   UNL     1       2.604   3.899  20.034  0.00  0.00    +0.000 A 
ATOM      3  C   UNL     1       2.930   2.614  20.442  0.00  0.00    +0.000 A 
ATOM      4  C   UNL     1       4.228   2.199  20.236  0.00  0.00    +0.000 A 
ATOM      5  N   UNL     1       5.181   2.975  19.678  0.00  0.00    +0.000 NA
ATOM      6  C   UNL     1       4.851   4.235  19.335  0.00  0.00    +0.000 A 
ATOM      7  C   UNL     1       3.565   4.727  19.470  0.00  0.00    +0.000 A 
ENDROOT
BRANCH   6   8
ATOM      8  N   UNL     1       5.831   5.039  18.748  0.00  0.00    +0.000 NA
ATOM      9  C   UNL     1       6.015   5.080  17.469  0.00  0.00    +0.000 A 
ATOM     10  S   UNL     1       5.293   4.273  16.127  0.00  0.00    +0.000 S 
ATOM     11  S   UNL     1       6.780   4.581  14.793  0.00  0.00    +0.000 S 
ATOM     12  N   UNL     1       7.423   5.887  15.594  0.00  0.00    +0.000 NA
ATOM     13  C   UNL     1       7.012   5.992  16.817  0.00  0.00    +0.000 A 
ATOM     14 CL   UNL     1       7.648   7.265  17.773  0.00  0.00    +0.000 Cl
ENDBRANCH   6   8
TORSDOF 1
ENDMDL
MODEL 2
REMARK VINA RESULT:      -6.3      1.957      1.957
REMARK  Name = 
REMARK  1 active torsions:
REMARK  status: ('A' for Active; 'I' for Inactive)
REMARK    1  A    between atoms: C_6  and  N_7
REMARK                            x       y       z     vdW  Elec       q    Type
REMARK                         _______ _______ _______ _____ _____    ______ ____
ROOT
ATOM      1 CL   UNL     1       0.735   4.214  20.437  0.00  0.00    +0.000 Cl
ATOM      2  C   UNL     1       2.307   3.611  20.079  0.00  0.00    +0.000 A 
ATOM      3  C   UNL     1       2.913   2.720  20.952  0.00  0.00    +0.000 A 
ATOM      4  C   UNL     1       4.159   2.246  20.604  0.00  0.00    +0.000 A 
ATOM      5  N   UNL     1       4.809   2.611  19.479  0.00  0.00    +0.000 NA
ATOM      6  C   UNL     1       4.220   3.514  18.672  0.00  0.00    +0.000 A 
ATOM      7  C   UNL     1       2.956   4.018  18.921  0.00  0.00    +0.000 A 
ENDROOT
BRANCH   6   8
ATOM      8  N   UNL     1       4.886   3.889  17.502  0.00  0.00    +0.000 NA
ATOM      9  C   UNL     1       5.862   4.736  17.506  0.00  0.00    +0.000 A 
ATOM     10  S   UNL     1       6.638   5.668  18.732  0.00  0.00    +0.000 S 
ATOM     11  S   UNL     1       7.475   7.059  17.527  0.00  0.00    +0.000 S 
ATOM     12  N   UNL     1       7.427   6.114  16.162  0.00  0.00    +0.000 NA
ATOM     13  C   UNL     1       6.636   5.095  16.270  0.00  0.00    +0.000 A 
ATOM     14 CL   UNL     1       6.450   4.071  14.908  0.00  0.00    +0.000 Cl
ENDBRANCH   6   8
TORSDOF 1
ENDMDL
MODEL 3
REMARK VINA RESULT:      -6.2      2.221      2.221
REMARK  Name = 
REMARK  1 active torsions:
REMARK  status: ('A' for Active; 'I' for Inactive)
REMARK    1  A    between atoms: C_6  and  N_7
REMARK                            x       y       z     vdW  Elec       q    Type
REMARK                         _______ _______ _______ _____ _____    ______ ____
ROOT
ATOM      1 CL   UNL     1       1.056   4.918  20.498  0.00  0.00    +0.000 Cl
ATOM      2  C   UNL     1       2.034   3.918  19.495  0.00  0.00    +0.000 A 
ATOM      3  C   UNL     1       1.991   2.541  19.653  0.00  0.00    +0.000 A 
ATOM      4  C   UNL     1       2.772   1.785  18.806  0.00  0.00    +0.000 A 
ATOM      5  N   UNL     1       3.569   2.314  17.854  0.00  0.00    +0.000 NA
ATOM      6  C   UNL     1       3.629   3.655  17.752  0.00  0.00    +0.000 A 
ATOM      7  C   UNL     1       2.855   4.494  18.535  0.00  0.00    +0.000 A 
ENDROOT
BRANCH   6   8
ATOM      8  N   UNL     1       4.446   4.208  16.763  0.00  0.00    +0.000 NA
ATOM      9  C   UNL     1       5.544   4.830  17.045  0.00  0.00    +0.000 A 
ATOM     10  S   UNL     1       6.351   5.235  18.514  0.00  0.00    +0.000 S 
ATOM     11  S   UNL     1       7.508   6.726  17.787  0.00  0.00    +0.000 S 
ATOM     12  N   UNL     1       7.425   6.214  16.208  0.00  0.00    +0.000 NA
ATOM     13  C   UNL     1       6.471   5.365  15.992  0.00  0.00    +0.000 A 
ATOM     14 CL   UNL     1       6.240   4.804  14.389  0.00  0.00    +0.000 Cl
ENDBRANCH   6   8
TORSDOF 1
ENDMDL
MODEL 4
REMARK VINA RESULT:      -6.1      2.697      2.805
REMARK  Name = 
REMARK  1 active torsions:
REMARK  status: ('A' for Active; 'I' for Inactive)
REMARK    1  A    between atoms: C_6  and  N_7
REMARK                            x       y       z     vdW  Elec       q    Type
REMARK                         _______ _______ _______ _____ _____    ______ ____
ROOT
ATOM      1 CL   UNL     1       0.501   2.143  18.824  0.00  0.00    +0.000 Cl
ATOM      2  C   UNL     1       1.297   3.626  19.181  0.00  0.00    +0.000 A 
ATOM      3  C   UNL     1       1.095   4.232  20.412  0.00  0.00    +0.000 A 
ATOM      4  C   UNL     1       1.779   5.403  20.658  0.00  0.00    +0.000 A 
ATOM      5  N   UNL     1       2.612   5.982  19.768  0.00  0.00    +0.000 NA
ATOM      6  C   UNL     1       2.754   5.400  18.562  0.00  0.00    +0.000 A 
ATOM      7  C   UNL     1       2.136   4.205  18.238  0.00  0.00    +0.000 A 
ENDROOT
BRANCH   6   8
ATOM      8  N   UNL     1       3.622   5.991  17.640  0.00  0.00    +0.000 NA
ATOM      9  C   UNL     1       4.907   5.910  17.753  0.00  0.00    +0.000 A 
ATOM     10  S   UNL     1       5.967   5.198  18.912  0.00  0.00    +0.000 S 
ATOM     11  S   UNL     1       7.624   6.263  18.456  0.00  0.00    +0.000 S 
ATOM     12  N   UNL     1       7.121   6.660  16.923  0.00  0.00    +0.000 NA
ATOM     13  C   UNL     1       5.853   6.475  16.734  0.00  0.00    +0.000 A 
ATOM     14 CL   UNL     1       5.195   6.904  15.211  0.00  0.00    +0.000 Cl
ENDBRANCH   6   8
TORSDOF 1
ENDMDL
MODEL 5
REMARK VINA RESULT:      -6.1      3.038      5.431
REMARK  Name = 
REMARK  1 active torsions:
REMARK  status: ('A' for Active; 'I' for Inactive)
REMARK    1  A    between atoms: C_6  and  N_7
REMARK                            x       y       z     vdW  Elec       q    Type
REMARK                         _______ _______ _______ _____ _____    ______ ____
ROOT
ATOM      1 CL   UNL     1       6.079   3.991  14.465  0.00  0.00    +0.000 Cl
ATOM      2  C   UNL     1       6.142   4.498  16.108  0.00  0.00    +0.000 A 
ATOM      3  C   UNL     1       7.367   4.563  16.757  0.00  0.00    +0.000 A 
ATOM      4  C   UNL     1       7.365   5.003  18.062  0.00  0.00    +0.000 A 
ATOM      5  N   UNL     1       6.246   5.357  18.730  0.00  0.00    +0.000 NA
ATOM      6  C   UNL     1       5.066   5.239  18.093  0.00  0.00    +0.000 A 
ATOM      7  C   UNL     1       4.972   4.840  16.772  0.00  0.00    +0.000 A 
ENDROOT
BRANCH   6   8
ATOM      8  N   UNL     1       3.905   5.611  18.777  0.00  0.00    +0.000 NA
ATOM      9  C   UNL     1       3.218   4.769  19.477  0.00  0.00    +0.000 A 
ATOM     10  S   UNL     1       3.360   3.082  19.803  0.00  0.00    +0.000 S 
ATOM     11  S   UNL     1       1.449   2.754  20.379  0.00  0.00    +0.000 S 
ATOM     12  N   UNL     1       1.143   4.340  20.768  0.00  0.00    +0.000 NA
ATOM     13  C   UNL     1       2.011   5.166  20.277  0.00  0.00    +0.000 A 
ATOM     14 CL   UNL     1       1.776   6.841  20.556  0.00  0.00    +0.000 Cl
ENDBRANCH   6   8
TORSDOF 1
ENDMDL
MODEL 6
REMARK VINA RESULT:      -6.0      1.308      1.400
REMARK  Name = 
REMARK  1 active torsions:
REMARK  status: ('A' for Active; 'I' for Inactive)
REMARK    1  A    between atoms: C_6  and  N_7
REMARK                            x       y       z     vdW  Elec       q    Type
REMARK                         _______ _______ _______ _____ _____    ______ ____
ROOT
ATOM      1 CL   UNL     1       0.924   6.083  20.754  0.00  0.00    +0.000 Cl
ATOM      2  C   UNL     1       1.947   4.790  20.261  0.00  0.00    +0.000 A 
ATOM      3  C   UNL     1       1.439   3.501  20.198  0.00  0.00    +0.000 A 
ATOM      4  C   UNL     1       2.292   2.508  19.770  0.00  0.00    +0.000 A 
ATOM      5  N   UNL     1       3.578   2.725  19.427  0.00  0.00    +0.000 NA
ATOM      6  C   UNL     1       4.062   3.976  19.543  0.00  0.00    +0.000 A 
ATOM      7  C   UNL     1       3.271   5.044  19.929  0.00  0.00    +0.000 A 
ENDROOT
BRANCH   6   8
ATOM      8  N   UNL     1       5.391   4.208  19.180  0.00  0.00    +0.000 NA
ATOM      9  C   UNL     1       5.744   4.428  17.956  0.00  0.00    +0.000 A 
ATOM     10  S   UNL     1       4.897   4.485  16.455  0.00  0.00    +0.000 S 
ATOM     11  S   UNL     1       6.485   4.206  15.235  0.00  0.00    +0.000 S 
ATOM     12  N   UNL     1       7.610   4.714  16.347  0.00  0.00    +0.000 NA
ATOM     13  C   UNL     1       7.155   4.751  17.558  0.00  0.00    +0.000 A 
ATOM     14 CL   UNL     1       8.235   5.202  18.811  0.00  0.00    +0.000 Cl
ENDBRANCH   6   8
TORSDOF 1
ENDMDL
MODEL 7
REMARK VINA RESULT:      -6.0      2.944      5.525
REMARK  Name = 
REMARK  1 active torsions:
REMARK  status: ('A' for Active; 'I' for Inactive)
REMARK    1  A    between atoms: C_6  and  N_7
REMARK                            x       y       z     vdW  Elec       q    Type
REMARK                         _______ _______ _______ _____ _____    ______ ____
ROOT
ATOM      1 CL   UNL     1       5.804   4.032  14.132  0.00  0.00    +0.000 Cl
ATOM      2  C   UNL     1       6.015   4.169  15.834  0.00  0.00    +0.000 A 
ATOM      3  C   UNL     1       7.239   4.580  16.341  0.00  0.00    +0.000 A 
ATOM      4  C   UNL     1       7.346   4.701  17.709  0.00  0.00    +0.000 A 
ATOM      5  N   UNL     1       6.337   4.433  18.563  0.00  0.00    +0.000 NA
ATOM      6  C   UNL     1       5.174   3.990  18.050  0.00  0.00    +0.000 A 
ATOM      7  C   UNL     1       4.962   3.871  16.688  0.00  0.00    +0.000 A 
ENDROOT
BRANCH   6   8
ATOM      8  N   UNL     1       4.123   3.718  18.930  0.00  0.00    +0.000 NA
ATOM      9  C   UNL     1       3.253   4.615  19.262  0.00  0.00    +0.000 A 
ATOM     10  S   UNL     1       3.041   6.282  18.876  0.00  0.00    +0.000 S 
ATOM     11  S   UNL     1       1.853   6.773  20.437  0.00  0.00    +0.000 S 
ATOM     12  N   UNL     1       1.340   5.219  20.720  0.00  0.00    +0.000 NA
ATOM     13  C   UNL     1       2.076   4.322  20.147  0.00  0.00    +0.000 A 
ATOM     14 CL   UNL     1       1.689   2.673  20.410  0.00  0.00    +0.000 Cl
ENDBRANCH   6   8
TORSDOF 1
ENDMDL
MODEL 8
REMARK VINA RESULT:      -6.0      1.318      1.362
REMARK  Name = 
REMARK  1 active torsions:
REMARK  status: ('A' for Active; 'I' for Inactive)
REMARK    1  A    between atoms: C_6  and  N_7
REMARK                            x       y       z     vdW  Elec       q    Type
REMARK                         _______ _______ _______ _____ _____    ______ ____
ROOT
ATOM      1 CL   UNL     1       1.532   3.122  21.626  0.00  0.00    +0.000 Cl
ATOM      2  C   UNL     1       2.475   2.887  20.205  0.00  0.00    +0.000 A 
ATOM      3  C   UNL     1       2.058   1.970  19.252  0.00  0.00    +0.000 A 
ATOM      4  C   UNL     1       2.834   1.841  18.120  0.00  0.00    +0.000 A 
ATOM      5  N   UNL     1       3.965   2.546  17.906  0.00  0.00    +0.000 NA
ATOM      6  C   UNL     1       4.374   3.394  18.868  0.00  0.00    +0.000 A 
ATOM      7  C   UNL     1       3.642   3.616  20.021  0.00  0.00    +0.000 A 
ENDROOT
BRANCH   6   8
ATOM      8  N   UNL     1       5.540   4.132  18.648  0.00  0.00    +0.000 NA
ATOM      9  C   UNL     1       5.857   4.587  17.480  0.00  0.00    +0.000 A 
ATOM     10  S   UNL     1       5.140   4.481  15.916  0.00  0.00    +0.000 S 
ATOM     11  S   UNL     1       6.788   4.926  14.831  0.00  0.00    +0.000 S 
ATOM     12  N   UNL     1       7.574   5.696  16.075  0.00  0.00    +0.000 NA
ATOM     13  C   UNL     1       7.067   5.442  17.239  0.00  0.00    +0.000 A 
ATOM     14 CL   UNL     1       7.825   6.129  18.615  0.00  0.00    +0.000 Cl
ENDBRANCH   6   8
TORSDOF 1
ENDMDL
MODEL 9
REMARK VINA RESULT:      -5.9      1.594      2.010
REMARK  Name = 
REMARK  1 active torsions:
REMARK  status: ('A' for Active; 'I' for Inactive)
REMARK    1  A    between atoms: C_6  and  N_7
REMARK                            x       y       z     vdW  Elec       q    Type
REMARK                         _______ _______ _______ _____ _____    ______ ____
ROOT
ATOM      1 CL   UNL     1       1.062   1.762  19.144  0.00  0.00    +0.000 Cl
ATOM      2  C   UNL     1       1.872   3.240  19.490  0.00  0.00    +0.000 A 
ATOM      3  C   UNL     1       1.167   4.289  20.061  0.00  0.00    +0.000 A 
ATOM      4  C   UNL     1       1.870   5.440  20.345  0.00  0.00    +0.000 A 
ATOM      5  N   UNL     1       3.185   5.594  20.087  0.00  0.00    +0.000 NA
ATOM      6  C   UNL     1       3.837   4.579  19.489  0.00  0.00    +0.000 A 
ATOM      7  C   UNL     1       3.223   3.373  19.199  0.00  0.00    +0.000 A 
ENDROOT
BRANCH   6   8
ATOM      8  N   UNL     1       5.201   4.731  19.228  0.00  0.00    +0.000 NA
ATOM      9  C   UNL     1       5.665   4.831  18.025  0.00  0.00    +0.000 A 
ATOM     10  S   UNL     1       4.952   4.790  16.456  0.00  0.00    +0.000 S 
ATOM     11  S   UNL     1       6.624   4.349  15.408  0.00  0.00    +0.000 S 
ATOM     12  N   UNL     1       7.672   4.910  16.569  0.00  0.00    +0.000 NA
ATOM     13  C   UNL     1       7.118   5.068  17.729  0.00  0.00    +0.000 A 
ATOM     14 CL   UNL     1       8.106   5.585  19.030  0.00  0.00    +0.000 Cl
ENDBRANCH   6   8
TORSDOF 1
ENDMDL
