MODEL 1
REMARK VINA RESULT:      -8.6      0.000      0.000
REMARK  Name = 
REMARK  10 active torsions:
REMARK  status: ('A' for Active; 'I' for Inactive)
REMARK    1  A    between atoms: C_1  and  C_2
REMARK    2  A    between atoms: C_2  and  C_3
REMARK    3  A    between atoms: C_3  and  C_4
REMARK    4  A    between atoms: C_4  and  C_5
REMARK    5  A    between atoms: C_11  and  N_12
REMARK    6  A    between atoms: N_14  and  C_15
REMARK    7  A    between atoms: C_15  and  C_16
REMARK    8  A    between atoms: C_19  and  C_20
REMARK    9  A    between atoms: C_25  and  C_26
REMARK   10  A    between atoms: C_26  and  O_28
REMARK                            x       y       z     vdW  Elec       q    Type
REMARK                         _______ _______ _______ _____ _____    ______ ____
ROOT
ATOM      1  C   UNL     1       3.625   5.752  19.625  0.00  0.00    +0.000 C 
ENDROOT
BRANCH   1  10
ATOM      2  C   UNL     1       2.943   4.232  17.745  0.00  0.00    +0.000 A 
ATOM      3  N   UNL     1       3.465   3.701  16.661  0.00  0.00    +0.000 NA
ATOM      4  C   UNL     1       4.788   4.041  16.672  0.00  0.00    +0.000 A 
ATOM      5  C   UNL     1       5.761   3.723  15.714  0.00  0.00    +0.000 A 
ATOM      6  C   UNL     1       7.062   4.178  15.901  0.00  0.00    +0.000 A 
ATOM      7  C   UNL     1       7.395   4.880  17.058  0.00  0.00    +0.000 A 
ATOM      8  C   UNL     1       6.451   5.181  18.062  0.00  0.00    +0.000 A 
ATOM      9  C   UNL     1       5.121   4.781  17.810  0.00  0.00    +0.000 A 
ATOM     10  N   UNL     1       3.899   4.954  18.441  0.00  0.00    +0.000 N 
BRANCH   8  11
ATOM     11  N   UNL     1       6.922   5.745  19.251  0.00  0.00    +0.000 N 
ATOM     12  H   UNL     1       7.698   6.386  19.119  0.00  0.00    +0.000 HD
ATOM     13  H   UNL     1       6.232   6.085  19.899  0.00  0.00    +0.000 HD
ENDBRANCH   8  11
BRANCH   2  14
ATOM     14  C   UNL     1       1.498   4.115  18.129  0.00  0.00    +0.000 C 
BRANCH  14  15
ATOM     15  C   UNL     1       1.257   2.939  19.077  0.00  0.00    +0.000 C 
BRANCH  15  17
ATOM     16  C   UNL     1       2.011   2.937  21.469  0.00  0.00    +0.000 C 
ATOM     17  C   UNL     1       0.944   3.410  20.496  0.00  0.00    +0.000 C 
ENDBRANCH  15  17
ENDBRANCH  14  15
ENDBRANCH   2  14
ENDBRANCH   1  10
BRANCH   1  18
ATOM     18  C   UNL     1       2.798   6.990  19.373  0.00  0.00    +0.000 A 
ATOM     19  C   UNL     1       2.797   7.637  18.132  0.00  0.00    +0.000 A 
ATOM     20  C   UNL     1       1.890   8.671  17.862  0.00  0.00    +0.000 A 
ATOM     21  C   UNL     1       1.005   9.142  18.843  0.00  0.00    +0.000 A 
ATOM     22  C   UNL     1       1.027   8.492  20.090  0.00  0.00    +0.000 A 
ATOM     23  C   UNL     1       1.889   7.422  20.346  0.00  0.00    +0.000 A 
BRANCH  21  24
ATOM     24  C   UNL     1       0.085  10.284  18.613  0.00  0.00    +0.000 A 
ATOM     25  C   UNL     1      -1.109  10.047  17.890  0.00  0.00    +0.000 A 
ATOM     26  C   UNL     1      -2.059  11.050  17.656  0.00  0.00    +0.000 A 
ATOM     27  C   UNL     1      -1.825  12.337  18.118  0.00  0.00    +0.000 A 
ATOM     28  C   UNL     1      -0.653  12.614  18.810  0.00  0.00    +0.000 A 
ATOM     29  C   UNL     1       0.301  11.601  19.075  0.00  0.00    +0.000 A 
BRANCH  29  30
ATOM     30  C   UNL     1       1.494  12.087  19.831  0.00  0.00    +0.000 C 
ATOM     31  O   UNL     1       2.393  12.704  19.283  0.00  0.00    +0.000 OA
BRANCH  30  32
ATOM     32  O   UNL     1       1.468  11.874  21.159  0.00  0.00    +0.000 OA
ATOM     33  H   UNL     1       2.298  11.554  21.558  0.00  0.00    +0.000 HD
ENDBRANCH  30  32
ENDBRANCH  29  30
ENDBRANCH  21  24
ENDBRANCH   1  18
TORSDOF 9
ENDMDL
MODEL 2
REMARK VINA RESULT:      -8.5      0.565      1.087
REMARK  Name = 
REMARK  10 active torsions:
REMARK  status: ('A' for Active; 'I' for Inactive)
REMARK    1  A    between atoms: C_1  and  C_2
REMARK    2  A    between atoms: C_2  and  C_3
REMARK    3  A    between atoms: C_3  and  C_4
REMARK    4  A    between atoms: C_4  and  C_5
REMARK    5  A    between atoms: C_11  and  N_12
REMARK    6  A    between atoms: N_14  and  C_15
REMARK    7  A    between atoms: C_15  and  C_16
REMARK    8  A    between atoms: C_19  and  C_20
REMARK    9  A    between atoms: C_25  and  C_26
REMARK   10  A    between atoms: C_26  and  O_28
REMARK                            x       y       z     vdW  Elec       q    Type
REMARK                         _______ _______ _______ _____ _____    ______ ____
ROOT
ATOM      1  C   UNL     1       3.652   5.710  19.674  0.00  0.00    +0.000 C 
ENDROOT
BRANCH   1  10
ATOM      2  C   UNL     1       2.958   4.211  17.781  0.00  0.00    +0.000 A 
ATOM      3  N   UNL     1       3.471   3.698  16.684  0.00  0.00    +0.000 NA
ATOM      4  C   UNL     1       4.792   4.045  16.686  0.00  0.00    +0.000 A 
ATOM      5  C   UNL     1       5.757   3.745  15.713  0.00  0.00    +0.000 A 
ATOM      6  C   UNL     1       7.057   4.206  15.893  0.00  0.00    +0.000 A 
ATOM      7  C   UNL     1       7.399   4.893  17.055  0.00  0.00    +0.000 A 
ATOM      8  C   UNL     1       6.464   5.176  18.073  0.00  0.00    +0.000 A 
ATOM      9  C   UNL     1       5.133   4.772  17.830  0.00  0.00    +0.000 A 
ATOM     10  N   UNL     1       3.917   4.930  18.476  0.00  0.00    +0.000 N 
BRANCH   8  11
ATOM     11  N   UNL     1       6.944   5.727  19.265  0.00  0.00    +0.000 N 
ATOM     12  H   UNL     1       7.480   5.076  19.829  0.00  0.00    +0.000 HD
ATOM     13  H   UNL     1       7.361   6.640  19.209  0.00  0.00    +0.000 HD
ENDBRANCH   8  11
BRANCH   2  14
ATOM     14  C   UNL     1       1.518   4.081  18.179  0.00  0.00    +0.000 C 
BRANCH  14  15
ATOM     15  C   UNL     1       1.297   2.904  19.130  0.00  0.00    +0.000 C 
BRANCH  15  17
ATOM     16  C   UNL     1       1.999   2.939  21.538  0.00  0.00    +0.000 C 
ATOM     17  C   UNL     1       0.939   3.373  20.539  0.00  0.00    +0.000 C 
ENDBRANCH  15  17
ENDBRANCH  14  15
ENDBRANCH   2  14
ENDBRANCH   1  10
BRANCH   1  18
ATOM     18  C   UNL     1       2.624   6.803  19.499  0.00  0.00    +0.000 A 
ATOM     19  C   UNL     1       1.732   7.148  20.521  0.00  0.00    +0.000 A 
ATOM     20  C   UNL     1       0.913   8.280  20.408  0.00  0.00    +0.000 A 
ATOM     21  C   UNL     1       0.903   9.061  19.242  0.00  0.00    +0.000 A 
ATOM     22  C   UNL     1       1.793   8.693  18.217  0.00  0.00    +0.000 A 
ATOM     23  C   UNL     1       2.655   7.601  18.350  0.00  0.00    +0.000 A 
BRANCH  21  24
ATOM     24  C   UNL     1      -0.007  10.219  19.060  0.00  0.00    +0.000 A 
ATOM     25  C   UNL     1      -0.894  10.207  17.955  0.00  0.00    +0.000 A 
ATOM     26  C   UNL     1      -1.817  11.234  17.720  0.00  0.00    +0.000 A 
ATOM     27  C   UNL     1      -1.859  12.327  18.574  0.00  0.00    +0.000 A 
ATOM     28  C   UNL     1      -0.988  12.387  19.654  0.00  0.00    +0.000 A 
ATOM     29  C   UNL     1      -0.070  11.340  19.916  0.00  0.00    +0.000 A 
BRANCH  29  30
ATOM     30  C   UNL     1       0.782  11.581  21.120  0.00  0.00    +0.000 C 
ATOM     31  O   UNL     1       1.796  12.259  21.063  0.00  0.00    +0.000 OA
BRANCH  30  32
ATOM     32  O   UNL     1       0.314  11.074  22.275  0.00  0.00    +0.000 OA
ATOM     33  H   UNL     1      -0.186  10.241  22.205  0.00  0.00    +0.000 HD
ENDBRANCH  30  32
ENDBRANCH  29  30
ENDBRANCH  21  24
ENDBRANCH   1  18
TORSDOF 9
ENDMDL
MODEL 3
REMARK VINA RESULT:      -8.3      1.492      2.195
REMARK  Name = 
REMARK  10 active torsions:
REMARK  status: ('A' for Active; 'I' for Inactive)
REMARK    1  A    between atoms: C_1  and  C_2
REMARK    2  A    between atoms: C_2  and  C_3
REMARK    3  A    between atoms: C_3  and  C_4
REMARK    4  A    between atoms: C_4  and  C_5
REMARK    5  A    between atoms: C_11  and  N_12
REMARK    6  A    between atoms: N_14  and  C_15
REMARK    7  A    between atoms: C_15  and  C_16
REMARK    8  A    between atoms: C_19  and  C_20
REMARK    9  A    between atoms: C_25  and  C_26
REMARK   10  A    between atoms: C_26  and  O_28
REMARK                            x       y       z     vdW  Elec       q    Type
REMARK                         _______ _______ _______ _____ _____    ______ ____
ROOT
ATOM      1  C   UNL     1       3.300   5.678  19.655  0.00  0.00    +0.000 C 
ENDROOT
BRANCH   1  10
ATOM      2  C   UNL     1       2.719   4.259  17.665  0.00  0.00    +0.000 A 
ATOM      3  N   UNL     1       3.293   3.799  16.574  0.00  0.00    +0.000 NA
ATOM      4  C   UNL     1       4.608   4.158  16.658  0.00  0.00    +0.000 A 
ATOM      5  C   UNL     1       5.624   3.911  15.723  0.00  0.00    +0.000 A 
ATOM      6  C   UNL     1       6.908   4.374  15.989  0.00  0.00    +0.000 A 
ATOM      7  C   UNL     1       7.183   5.013  17.196  0.00  0.00    +0.000 A 
ATOM      8  C   UNL     1       6.195   5.241  18.177  0.00  0.00    +0.000 A 
ATOM      9  C   UNL     1       4.883   4.836  17.849  0.00  0.00    +0.000 A 
ATOM     10  N   UNL     1       3.634   4.954  18.439  0.00  0.00    +0.000 N 
BRANCH   8  11
ATOM     11  N   UNL     1       6.608   5.743  19.415  0.00  0.00    +0.000 N 
ATOM     12  H   UNL     1       5.940   6.375  19.842  0.00  0.00    +0.000 HD
ATOM     13  H   UNL     1       7.005   5.086  20.063  0.00  0.00    +0.000 HD
ENDBRANCH   8  11
BRANCH   2  14
ATOM     14  C   UNL     1       1.262   4.098  17.983  0.00  0.00    +0.000 C 
BRANCH  14  15
ATOM     15  C   UNL     1       1.008   2.877  18.869  0.00  0.00    +0.000 C 
BRANCH  15  17
ATOM     16  C   UNL     1       1.765   2.689  21.253  0.00  0.00    +0.000 C 
ATOM     17  C   UNL     1       0.723   3.277  20.315  0.00  0.00    +0.000 C 
ENDBRANCH  15  17
ENDBRANCH  14  15
ENDBRANCH   2  14
ENDBRANCH   1  10
BRANCH   1  18
ATOM     18  C   UNL     1       2.543   6.966  19.433  0.00  0.00    +0.000 A 
ATOM     19  C   UNL     1       1.759   7.544  20.439  0.00  0.00    +0.000 A 
ATOM     20  C   UNL     1       1.214   8.825  20.278  0.00  0.00    +0.000 A 
ATOM     21  C   UNL     1       1.372   9.541  19.082  0.00  0.00    +0.000 A 
ATOM     22  C   UNL     1       2.150   8.942  18.074  0.00  0.00    +0.000 A 
ATOM     23  C   UNL     1       2.744   7.689  18.253  0.00  0.00    +0.000 A 
BRANCH  21  24
ATOM     24  C   UNL     1       0.745  10.866  18.850  0.00  0.00    +0.000 A 
ATOM     25  C   UNL     1       1.470  12.024  19.225  0.00  0.00    +0.000 A 
ATOM     26  C   UNL     1       0.982  13.320  19.011  0.00  0.00    +0.000 A 
ATOM     27  C   UNL     1      -0.270  13.495  18.438  0.00  0.00    +0.000 A 
ATOM     28  C   UNL     1      -1.022  12.383  18.081  0.00  0.00    +0.000 A 
ATOM     29  C   UNL     1      -0.525  11.069  18.267  0.00  0.00    +0.000 A 
BRANCH  29  30
ATOM     30  C   UNL     1      -1.473  10.003  17.822  0.00  0.00    +0.000 C 
ATOM     31  O   UNL     1      -2.498   9.759  18.438  0.00  0.00    +0.000 OA
BRANCH  30  32
ATOM     32  O   UNL     1      -1.163   9.397  16.662  0.00  0.00    +0.000 OA
ATOM     33  H   UNL     1      -0.590   9.900  16.056  0.00  0.00    +0.000 HD
ENDBRANCH  30  32
ENDBRANCH  29  30
ENDBRANCH  21  24
ENDBRANCH   1  18
TORSDOF 9
ENDMDL
MODEL 4
REMARK VINA RESULT:      -8.1      1.406      1.749
REMARK  Name = 
REMARK  10 active torsions:
REMARK  status: ('A' for Active; 'I' for Inactive)
REMARK    1  A    between atoms: C_1  and  C_2
REMARK    2  A    between atoms: C_2  and  C_3
REMARK    3  A    between atoms: C_3  and  C_4
REMARK    4  A    between atoms: C_4  and  C_5
REMARK    5  A    between atoms: C_11  and  N_12
REMARK    6  A    between atoms: N_14  and  C_15
REMARK    7  A    between atoms: C_15  and  C_16
REMARK    8  A    between atoms: C_19  and  C_20
REMARK    9  A    between atoms: C_25  and  C_26
REMARK   10  A    between atoms: C_26  and  O_28
REMARK                            x       y       z     vdW  Elec       q    Type
REMARK                         _______ _______ _______ _____ _____    ______ ____
ROOT
ATOM      1  C   UNL     1       3.684   4.920  19.731  0.00  0.00    +0.000 C 
ENDROOT
BRANCH   1  10
ATOM      2  C   UNL     1       2.968   3.934  17.534  0.00  0.00    +0.000 A 
ATOM      3  N   UNL     1       3.469   3.706  16.340  0.00  0.00    +0.000 NA
ATOM      4  C   UNL     1       4.791   4.042  16.413  0.00  0.00    +0.000 A 
ATOM      5  C   UNL     1       5.745   3.990  15.387  0.00  0.00    +0.000 A 
ATOM      6  C   UNL     1       7.048   4.392  15.660  0.00  0.00    +0.000 A 
ATOM      7  C   UNL     1       7.403   4.772  16.953  0.00  0.00    +0.000 A 
ATOM      8  C   UNL     1       6.479   4.796  18.019  0.00  0.00    +0.000 A 
ATOM      9  C   UNL     1       5.145   4.464  17.698  0.00  0.00    +0.000 A 
ATOM     10  N   UNL     1       3.936   4.459  18.375  0.00  0.00    +0.000 N 
BRANCH   8  11
ATOM     11  N   UNL     1       6.973   5.037  19.305  0.00  0.00    +0.000 N 
ATOM     12  H   UNL     1       6.699   5.938  19.684  0.00  0.00    +0.000 HD
ATOM     13  H   UNL     1       6.899   4.286  19.969  0.00  0.00    +0.000 HD
ENDBRANCH   8  11
BRANCH   2  14
ATOM     14  C   UNL     1       1.531   3.710  17.903  0.00  0.00    +0.000 C 
BRANCH  14  15
ATOM     15  C   UNL     1       1.375   2.564  18.904  0.00  0.00    +0.000 C 
BRANCH  15  17
ATOM     16  C   UNL     1       1.477   2.637  21.408  0.00  0.00    +0.000 C 
ATOM     17  C   UNL     1       0.669   3.019  20.179  0.00  0.00    +0.000 C 
ENDBRANCH  15  17
ENDBRANCH  14  15
ENDBRANCH   2  14
ENDBRANCH   1  10
BRANCH   1  18
ATOM     18  C   UNL     1       2.903   6.210  19.822  0.00  0.00    +0.000 A 
ATOM     19  C   UNL     1       2.977   7.189  18.825  0.00  0.00    +0.000 A 
ATOM     20  C   UNL     1       2.112   8.292  18.836  0.00  0.00    +0.000 A 
ATOM     21  C   UNL     1       1.196   8.492  19.880  0.00  0.00    +0.000 A 
ATOM     22  C   UNL     1       1.143   7.507  20.883  0.00  0.00    +0.000 A 
ATOM     23  C   UNL     1       1.963   6.375  20.845  0.00  0.00    +0.000 A 
BRANCH  21  24
ATOM     24  C   UNL     1       0.319   9.687  19.961  0.00  0.00    +0.000 A 
ATOM     25  C   UNL     1      -0.028  10.346  18.756  0.00  0.00    +0.000 A 
ATOM     26  C   UNL     1      -0.881  11.457  18.725  0.00  0.00    +0.000 A 
ATOM     27  C   UNL     1      -1.392  11.962  19.912  0.00  0.00    +0.000 A 
ATOM     28  C   UNL     1      -1.055  11.357  21.116  0.00  0.00    +0.000 A 
ATOM     29  C   UNL     1      -0.215  10.217  21.156  0.00  0.00    +0.000 A 
BRANCH  29  30
ATOM     30  C   UNL     1       0.034   9.706  22.538  0.00  0.00    +0.000 C 
ATOM     31  O   UNL     1       1.097   9.890  23.107  0.00  0.00    +0.000 OA
BRANCH  30  32
ATOM     32  O   UNL     1      -1.014   9.110  23.136  0.00  0.00    +0.000 OA
ATOM     33  H   UNL     1      -0.868   8.804  24.049  0.00  0.00    +0.000 HD
ENDBRANCH  30  32
ENDBRANCH  29  30
ENDBRANCH  21  24
ENDBRANCH   1  18
TORSDOF 9
ENDMDL
MODEL 5
REMARK VINA RESULT:      -8.1      0.885      1.395
REMARK  Name = 
REMARK  10 active torsions:
REMARK  status: ('A' for Active; 'I' for Inactive)
REMARK    1  A    between atoms: C_1  and  C_2
REMARK    2  A    between atoms: C_2  and  C_3
REMARK    3  A    between atoms: C_3  and  C_4
REMARK    4  A    between atoms: C_4  and  C_5
REMARK    5  A    between atoms: C_11  and  N_12
REMARK    6  A    between atoms: N_14  and  C_15
REMARK    7  A    between atoms: C_15  and  C_16
REMARK    8  A    between atoms: C_19  and  C_20
REMARK    9  A    between atoms: C_25  and  C_26
REMARK   10  A    between atoms: C_26  and  O_28
REMARK                            x       y       z     vdW  Elec       q    Type
REMARK                         _______ _______ _______ _____ _____    ______ ____
ROOT
ATOM      1  C   UNL     1       4.298   5.910  19.326  0.00  0.00    +0.000 C 
ENDROOT
BRANCH   1  10
ATOM      2  C   UNL     1       3.882   3.735  18.139  0.00  0.00    +0.000 A 
ATOM      3  N   UNL     1       4.202   3.148  17.007  0.00  0.00    +0.000 NA
ATOM      4  C   UNL     1       5.094   3.977  16.387  0.00  0.00    +0.000 A 
ATOM      5  C   UNL     1       5.710   3.794  15.142  0.00  0.00    +0.000 A 
ATOM      6  C   UNL     1       6.586   4.769  14.675  0.00  0.00    +0.000 A 
ATOM      7  C   UNL     1       6.889   5.872  15.472  0.00  0.00    +0.000 A 
ATOM      8  C   UNL     1       6.320   6.066  16.748  0.00  0.00    +0.000 A 
ATOM      9  C   UNL     1       5.372   5.107  17.163  0.00  0.00    +0.000 A 
ATOM     10  N   UNL     1       4.519   4.962  18.246  0.00  0.00    +0.000 N 
BRANCH   8  11
ATOM     11  N   UNL     1       6.812   7.117  17.528  0.00  0.00    +0.000 N 
ATOM     12  H   UNL     1       6.217   7.354  18.315  0.00  0.00    +0.000 HD
ATOM     13  H   UNL     1       7.790   7.092  17.761  0.00  0.00    +0.000 HD
ENDBRANCH   8  11
BRANCH   2  14
ATOM     14  C   UNL     1       2.914   3.173  19.137  0.00  0.00    +0.000 C 
BRANCH  14  15
ATOM     15  C   UNL     1       1.493   3.686  18.898  0.00  0.00    +0.000 C 
BRANCH  15  17
ATOM     16  C   UNL     1       1.518   3.283  21.373  0.00  0.00    +0.000 C 
ATOM     17  C   UNL     1       0.719   3.840  20.206  0.00  0.00    +0.000 C 
ENDBRANCH  15  17
ENDBRANCH  14  15
ENDBRANCH   2  14
ENDBRANCH   1  10
BRANCH   1  18
ATOM     18  C   UNL     1       3.171   6.886  19.086  0.00  0.00    +0.000 A 
ATOM     19  C   UNL     1       2.240   7.198  20.084  0.00  0.00    +0.000 A 
ATOM     20  C   UNL     1       1.315   8.236  19.904  0.00  0.00    +0.000 A 
ATOM     21  C   UNL     1       1.240   8.947  18.697  0.00  0.00    +0.000 A 
ATOM     22  C   UNL     1       2.172   8.612  17.698  0.00  0.00    +0.000 A 
ATOM     23  C   UNL     1       3.135   7.618  17.894  0.00  0.00    +0.000 A 
BRANCH  21  24
ATOM     24  C   UNL     1       0.223   9.999  18.446  0.00  0.00    +0.000 A 
ATOM     25  C   UNL     1      -0.893   9.672  17.638  0.00  0.00    +0.000 A 
ATOM     26  C   UNL     1      -1.925  10.583  17.377  0.00  0.00    +0.000 A 
ATOM     27  C   UNL     1      -1.853  11.868  17.896  0.00  0.00    +0.000 A 
ATOM     28  C   UNL     1      -0.761  12.234  18.672  0.00  0.00    +0.000 A 
ATOM     29  C   UNL     1       0.274  11.311  18.966  0.00  0.00    +0.000 A 
BRANCH  29  30
ATOM     30  C   UNL     1       1.362  11.884  19.814  0.00  0.00    +0.000 C 
ATOM     31  O   UNL     1       1.380  11.728  21.025  0.00  0.00    +0.000 OA
BRANCH  30  32
ATOM     32  O   UNL     1       2.353  12.504  19.149  0.00  0.00    +0.000 OA
ATOM     33  H   UNL     1       2.278  13.473  19.076  0.00  0.00    +0.000 HD
ENDBRANCH  30  32
ENDBRANCH  29  30
ENDBRANCH  21  24
ENDBRANCH   1  18
TORSDOF 9
ENDMDL
MODEL 6
REMARK VINA RESULT:      -7.9      1.476      3.720
REMARK  Name = 
REMARK  10 active torsions:
REMARK  status: ('A' for Active; 'I' for Inactive)
REMARK    1  A    between atoms: C_1  and  C_2
REMARK    2  A    between atoms: C_2  and  C_3
REMARK    3  A    between atoms: C_3  and  C_4
REMARK    4  A    between atoms: C_4  and  C_5
REMARK    5  A    between atoms: C_11  and  N_12
REMARK    6  A    between atoms: N_14  and  C_15
REMARK    7  A    between atoms: C_15  and  C_16
REMARK    8  A    between atoms: C_19  and  C_20
REMARK    9  A    between atoms: C_25  and  C_26
REMARK   10  A    between atoms: C_26  and  O_28
REMARK                            x       y       z     vdW  Elec       q    Type
REMARK                         _______ _______ _______ _____ _____    ______ ____
ROOT
ATOM      1  C   UNL     1       3.720   6.574  19.270  0.00  0.00    +0.000 C 
ENDROOT
BRANCH   1  10
ATOM      2  C   UNL     1       4.115   5.239  17.178  0.00  0.00    +0.000 A 
ATOM      3  N   UNL     1       3.876   4.033  16.712  0.00  0.00    +0.000 NA
ATOM      4  C   UNL     1       3.107   3.409  17.654  0.00  0.00    +0.000 A 
ATOM      5  C   UNL     1       2.611   2.098  17.621  0.00  0.00    +0.000 A 
ATOM      6  C   UNL     1       1.851   1.640  18.693  0.00  0.00    +0.000 A 
ATOM      7  C   UNL     1       1.539   2.501  19.744  0.00  0.00    +0.000 A 
ATOM      8  C   UNL     1       1.987   3.838  19.788  0.00  0.00    +0.000 A 
ATOM      9  C   UNL     1       2.824   4.254  18.731  0.00  0.00    +0.000 A 
ATOM     10  N   UNL     1       3.551   5.396  18.434  0.00  0.00    +0.000 N 
BRANCH   8  11
ATOM     11  N   UNL     1       1.485   4.659  20.803  0.00  0.00    +0.000 N 
ATOM     12  H   UNL     1       0.635   5.151  20.547  0.00  0.00    +0.000 HD
ATOM     13  H   UNL     1       1.456   4.271  21.730  0.00  0.00    +0.000 HD
ENDBRANCH   8  11
BRANCH   2  14
ATOM     14  C   UNL     1       4.939   6.270  16.465  0.00  0.00    +0.000 C 
BRANCH  14  15
ATOM     15  C   UNL     1       6.423   5.901  16.453  0.00  0.00    +0.000 C 
BRANCH  15  17
ATOM     16  C   UNL     1       7.683   7.753  17.580  0.00  0.00    +0.000 C 
ATOM     17  C   UNL     1       7.128   6.346  17.732  0.00  0.00    +0.000 C 
ENDBRANCH  15  17
ENDBRANCH  14  15
ENDBRANCH   2  14
ENDBRANCH   1  10
BRANCH   1  18
ATOM     18  C   UNL     1       2.531   7.505  19.294  0.00  0.00    +0.000 A 
ATOM     19  C   UNL     1       1.800   7.738  20.465  0.00  0.00    +0.000 A 
ATOM     20  C   UNL     1       0.819   8.737  20.512  0.00  0.00    +0.000 A 
ATOM     21  C   UNL     1       0.484   9.487  19.374  0.00  0.00    +0.000 A 
ATOM     22  C   UNL     1       1.216   9.231  18.201  0.00  0.00    +0.000 A 
ATOM     23  C   UNL     1       2.237   8.276  18.165  0.00  0.00    +0.000 A 
BRANCH  21  24
ATOM     24  C   UNL     1      -0.601  10.499  19.370  0.00  0.00    +0.000 A 
ATOM     25  C   UNL     1      -1.587  10.420  18.355  0.00  0.00    +0.000 A 
ATOM     26  C   UNL     1      -2.671  11.305  18.289  0.00  0.00    +0.000 A 
ATOM     27  C   UNL     1      -2.786  12.320  19.228  0.00  0.00    +0.000 A 
ATOM     28  C   UNL     1      -1.826  12.445  20.223  0.00  0.00    +0.000 A 
ATOM     29  C   UNL     1      -0.740  11.539  20.315  0.00  0.00    +0.000 A 
BRANCH  29  30
ATOM     30  C   UNL     1       0.187  11.831  21.449  0.00  0.00    +0.000 C 
ATOM     31  O   UNL     1       1.253  12.401  21.276  0.00  0.00    +0.000 OA
BRANCH  30  32
ATOM     32  O   UNL     1      -0.267  11.502  22.672  0.00  0.00    +0.000 OA
ATOM     33  H   UNL     1      -0.742  12.203  23.154  0.00  0.00    +0.000 HD
ENDBRANCH  30  32
ENDBRANCH  29  30
ENDBRANCH  21  24
ENDBRANCH   1  18
TORSDOF 9
ENDMDL
MODEL 7
REMARK VINA RESULT:      -7.9      1.894      4.212
REMARK  Name = 
REMARK  10 active torsions:
REMARK  status: ('A' for Active; 'I' for Inactive)
REMARK    1  A    between atoms: C_1  and  C_2
REMARK    2  A    between atoms: C_2  and  C_3
REMARK    3  A    between atoms: C_3  and  C_4
REMARK    4  A    between atoms: C_4  and  C_5
REMARK    5  A    between atoms: C_11  and  N_12
REMARK    6  A    between atoms: N_14  and  C_15
REMARK    7  A    between atoms: C_15  and  C_16
REMARK    8  A    between atoms: C_19  and  C_20
REMARK    9  A    between atoms: C_25  and  C_26
REMARK   10  A    between atoms: C_26  and  O_28
REMARK                            x       y       z     vdW  Elec       q    Type
REMARK                         _______ _______ _______ _____ _____    ______ ____
ROOT
ATOM      1  C   UNL     1       3.745   6.385  17.566  0.00  0.00    +0.000 C 
ENDROOT
BRANCH   1  10
ATOM      2  C   UNL     1       5.243   4.781  18.789  0.00  0.00    +0.000 A 
ATOM      3  N   UNL     1       5.152   3.651  19.456  0.00  0.00    +0.000 NA
ATOM      4  C   UNL     1       3.855   3.240  19.327  0.00  0.00    +0.000 A 
ATOM      5  C   UNL     1       3.263   2.095  19.878  0.00  0.00    +0.000 A 
ATOM      6  C   UNL     1       1.912   1.857  19.640  0.00  0.00    +0.000 A 
ATOM      7  C   UNL     1       1.189   2.713  18.812  0.00  0.00    +0.000 A 
ATOM      8  C   UNL     1       1.764   3.851  18.208  0.00  0.00    +0.000 A 
ATOM      9  C   UNL     1       3.112   4.117  18.531  0.00  0.00    +0.000 A 
ATOM     10  N   UNL     1       4.011   5.138  18.266  0.00  0.00    +0.000 N 
BRANCH   8  11
ATOM     11  N   UNL     1       0.997   4.549  17.271  0.00  0.00    +0.000 N 
ATOM     12  H   UNL     1       0.476   3.948  16.641  0.00  0.00    +0.000 HD
ATOM     13  H   UNL     1       0.460   5.328  17.611  0.00  0.00    +0.000 HD
ENDBRANCH   8  11
BRANCH   2  14
ATOM     14  C   UNL     1       6.500   5.592  18.674  0.00  0.00    +0.000 C 
BRANCH  14  15
ATOM     15  C   UNL     1       7.452   5.014  17.625  0.00  0.00    +0.000 C 
BRANCH  15  17
ATOM     16  C   UNL     1       6.452   4.225  15.465  0.00  0.00    +0.000 C 
ATOM     17  C   UNL     1       7.044   5.411  16.209  0.00  0.00    +0.000 C 
ENDBRANCH  15  17
ENDBRANCH  14  15
ENDBRANCH   2  14
ENDBRANCH   1  10
BRANCH   1  18
ATOM     18  C   UNL     1       2.922   7.382  18.348  0.00  0.00    +0.000 A 
ATOM     19  C   UNL     1       2.439   8.558  17.764  0.00  0.00    +0.000 A 
ATOM     20  C   UNL     1       1.530   9.378  18.447  0.00  0.00    +0.000 A 
ATOM     21  C   UNL     1       1.131   9.090  19.761  0.00  0.00    +0.000 A 
ATOM     22  C   UNL     1       1.636   7.912  20.340  0.00  0.00    +0.000 A 
ATOM     23  C   UNL     1       2.496   7.060  19.641  0.00  0.00    +0.000 A 
BRANCH  21  24
ATOM     24  C   UNL     1       0.230   9.977  20.539  0.00  0.00    +0.000 A 
ATOM     25  C   UNL     1       0.238   9.866  21.951  0.00  0.00    +0.000 A 
ATOM     26  C   UNL     1      -0.546  10.684  22.774  0.00  0.00    +0.000 A 
ATOM     27  C   UNL     1      -1.390  11.626  22.202  0.00  0.00    +0.000 A 
ATOM     28  C   UNL     1      -1.444  11.746  20.819  0.00  0.00    +0.000 A 
ATOM     29  C   UNL     1      -0.635  10.942  19.979  0.00  0.00    +0.000 A 
BRANCH  29  30
ATOM     30  C   UNL     1      -0.829  11.216  18.523  0.00  0.00    +0.000 C 
ATOM     31  O   UNL     1      -1.591  10.548  17.841  0.00  0.00    +0.000 OA
BRANCH  30  32
ATOM     32  O   UNL     1      -0.178  12.289  18.041  0.00  0.00    +0.000 OA
ATOM     33  H   UNL     1      -0.296  13.120  18.537  0.00  0.00    +0.000 HD
ENDBRANCH  30  32
ENDBRANCH  29  30
ENDBRANCH  21  24
ENDBRANCH   1  18
TORSDOF 9
ENDMDL
MODEL 8
REMARK VINA RESULT:      -7.9      1.390      1.996
REMARK  Name = 
REMARK  10 active torsions:
REMARK  status: ('A' for Active; 'I' for Inactive)
REMARK    1  A    between atoms: C_1  and  C_2
REMARK    2  A    between atoms: C_2  and  C_3
REMARK    3  A    between atoms: C_3  and  C_4
REMARK    4  A    between atoms: C_4  and  C_5
REMARK    5  A    between atoms: C_11  and  N_12
REMARK    6  A    between atoms: N_14  and  C_15
REMARK    7  A    between atoms: C_15  and  C_16
REMARK    8  A    between atoms: C_19  and  C_20
REMARK    9  A    between atoms: C_25  and  C_26
REMARK   10  A    between atoms: C_26  and  O_28
REMARK                            x       y       z     vdW  Elec       q    Type
REMARK                         _______ _______ _______ _____ _____    ______ ____
ROOT
ATOM      1  C   UNL     1       3.704   4.994  19.714  0.00  0.00    +0.000 C 
ENDROOT
BRANCH   1  10
ATOM      2  C   UNL     1       3.046   3.889  17.556  0.00  0.00    +0.000 A 
ATOM      3  N   UNL     1       3.569   3.623  16.379  0.00  0.00    +0.000 NA
ATOM      4  C   UNL     1       4.880   4.002  16.452  0.00  0.00    +0.000 A 
ATOM      5  C   UNL     1       5.848   3.933  15.441  0.00  0.00    +0.000 A 
ATOM      6  C   UNL     1       7.135   4.386  15.712  0.00  0.00    +0.000 A 
ATOM      7  C   UNL     1       7.462   4.834  16.990  0.00  0.00    +0.000 A 
ATOM      8  C   UNL     1       6.523   4.878  18.043  0.00  0.00    +0.000 A 
ATOM      9  C   UNL     1       5.204   4.492  17.721  0.00  0.00    +0.000 A 
ATOM     10  N   UNL     1       3.987   4.481  18.383  0.00  0.00    +0.000 N 
BRANCH   8  11
ATOM     11  N   UNL     1       6.993   5.191  19.322  0.00  0.00    +0.000 N 
ATOM     12  H   UNL     1       6.635   6.069  19.684  0.00  0.00    +0.000 HD
ATOM     13  H   UNL     1       6.992   4.451  20.001  0.00  0.00    +0.000 HD
ENDBRANCH   8  11
BRANCH   2  14
ATOM     14  C   UNL     1       1.612   3.639  17.917  0.00  0.00    +0.000 C 
BRANCH  14  15
ATOM     15  C   UNL     1       1.478   2.543  18.976  0.00  0.00    +0.000 C 
BRANCH  15  17
ATOM     16  C   UNL     1       1.461   2.642  21.481  0.00  0.00    +0.000 C 
ATOM     17  C   UNL     1       0.727   3.037  20.210  0.00  0.00    +0.000 C 
ENDBRANCH  15  17
ENDBRANCH  14  15
ENDBRANCH   2  14
ENDBRANCH   1  10
BRANCH   1  18
ATOM     18  C   UNL     1       2.771   6.182  19.745  0.00  0.00    +0.000 A 
ATOM     19  C   UNL     1       1.959   6.453  20.852  0.00  0.00    +0.000 A 
ATOM     20  C   UNL     1       1.239   7.653  20.938  0.00  0.00    +0.000 A 
ATOM     21  C   UNL     1       1.247   8.586  19.891  0.00  0.00    +0.000 A 
ATOM     22  C   UNL     1       2.056   8.293  18.778  0.00  0.00    +0.000 A 
ATOM     23  C   UNL     1       2.822   7.126  18.714  0.00  0.00    +0.000 A 
BRANCH  21  24
ATOM     24  C   UNL     1       0.437   9.830  19.917  0.00  0.00    +0.000 A 
ATOM     25  C   UNL     1       0.357  10.602  18.732  0.00  0.00    +0.000 A 
ATOM     26  C   UNL     1      -0.413  11.768  18.645  0.00  0.00    +0.000 A 
ATOM     27  C   UNL     1      -1.108  12.217  19.760  0.00  0.00    +0.000 A 
ATOM     28  C   UNL     1      -1.034  11.500  20.948  0.00  0.00    +0.000 A 
ATOM     29  C   UNL     1      -0.280  10.304  21.038  0.00  0.00    +0.000 A 
BRANCH  29  30
ATOM     30  C   UNL     1      -0.320   9.674  22.392  0.00  0.00    +0.000 C 
ATOM     31  O   UNL     1      -1.079   8.753  22.648  0.00  0.00    +0.000 OA
BRANCH  30  32
ATOM     32  O   UNL     1       0.587  10.131  23.274  0.00  0.00    +0.000 OA
ATOM     33  H   UNL     1       1.350  10.605  22.896  0.00  0.00    +0.000 HD
ENDBRANCH  30  32
ENDBRANCH  29  30
ENDBRANCH  21  24
ENDBRANCH   1  18
TORSDOF 9
ENDMDL
MODEL 9
REMARK VINA RESULT:      -7.8      1.153      3.626
REMARK  Name = 
REMARK  10 active torsions:
REMARK  status: ('A' for Active; 'I' for Inactive)
REMARK    1  A    between atoms: C_1  and  C_2
REMARK    2  A    between atoms: C_2  and  C_3
REMARK    3  A    between atoms: C_3  and  C_4
REMARK    4  A    between atoms: C_4  and  C_5
REMARK    5  A    between atoms: C_11  and  N_12
REMARK    6  A    between atoms: N_14  and  C_15
REMARK    7  A    between atoms: C_15  and  C_16
REMARK    8  A    between atoms: C_19  and  C_20
REMARK    9  A    between atoms: C_25  and  C_26
REMARK   10  A    between atoms: C_26  and  O_28
REMARK                            x       y       z     vdW  Elec       q    Type
REMARK                         _______ _______ _______ _____ _____    ______ ____
ROOT
ATOM      1  C   UNL     1       3.872   6.329  19.222  0.00  0.00    +0.000 C 
ENDROOT
BRANCH   1  10
ATOM      2  C   UNL     1       4.281   4.862  17.223  0.00  0.00    +0.000 A 
ATOM      3  N   UNL     1       3.957   3.663  16.791  0.00  0.00    +0.000 NA
ATOM      4  C   UNL     1       3.065   3.162  17.697  0.00  0.00    +0.000 A 
ATOM      5  C   UNL     1       2.445   1.905  17.682  0.00  0.00    +0.000 A 
ATOM      6  C   UNL     1       1.570   1.574  18.712  0.00  0.00    +0.000 A 
ATOM      7  C   UNL     1       1.271   2.511  19.699  0.00  0.00    +0.000 A 
ATOM      8  C   UNL     1       1.844   3.800  19.722  0.00  0.00    +0.000 A 
ATOM      9  C   UNL     1       2.792   4.082  18.714  0.00  0.00    +0.000 A 
ATOM     10  N   UNL     1       3.647   5.133  18.425  0.00  0.00    +0.000 N 
BRANCH   8  11
ATOM     11  N   UNL     1       1.356   4.714  20.661  0.00  0.00    +0.000 N 
ATOM     12  H   UNL     1       0.353   4.654  20.805  0.00  0.00    +0.000 HD
ATOM     13  H   UNL     1       1.876   4.810  21.516  0.00  0.00    +0.000 HD
ENDBRANCH   8  11
BRANCH   2  14
ATOM     14  C   UNL     1       5.250   5.774  16.532  0.00  0.00    +0.000 C 
BRANCH  14  15
ATOM     15  C   UNL     1       6.594   5.087  16.282  0.00  0.00    +0.000 C 
BRANCH  15  17
ATOM     16  C   UNL     1       7.588   6.124  18.338  0.00  0.00    +0.000 C 
ATOM     17  C   UNL     1       7.347   4.826  17.585  0.00  0.00    +0.000 C 
ENDBRANCH  15  17
ENDBRANCH  14  15
ENDBRANCH   2  14
ENDBRANCH   1  10
BRANCH   1  18
ATOM     18  C   UNL     1       2.791   7.377  19.103  0.00  0.00    +0.000 A 
ATOM     19  C   UNL     1       2.021   7.771  20.203  0.00  0.00    +0.000 A 
ATOM     20  C   UNL     1       1.153   8.868  20.117  0.00  0.00    +0.000 A 
ATOM     21  C   UNL     1       0.970   9.561  18.911  0.00  0.00    +0.000 A 
ATOM     22  C   UNL     1       1.739   9.145  17.810  0.00  0.00    +0.000 A 
ATOM     23  C   UNL     1       2.651   8.089  17.907  0.00  0.00    +0.000 A 
BRANCH  21  24
ATOM     24  C   UNL     1       0.003  10.678  18.766  0.00  0.00    +0.000 A 
ATOM     25  C   UNL     1      -1.378  10.365  18.711  0.00  0.00    +0.000 A 
ATOM     26  C   UNL     1      -2.369  11.350  18.615  0.00  0.00    +0.000 A 
ATOM     27  C   UNL     1      -2.003  12.686  18.540  0.00  0.00    +0.000 A 
ATOM     28  C   UNL     1      -0.658  13.031  18.565  0.00  0.00    +0.000 A 
ATOM     29  C   UNL     1       0.351  12.044  18.690  0.00  0.00    +0.000 A 
BRANCH  29  30
ATOM     30  C   UNL     1       1.736  12.604  18.700  0.00  0.00    +0.000 C 
ATOM     31  O   UNL     1       2.283  12.943  19.737  0.00  0.00    +0.000 OA
BRANCH  30  32
ATOM     32  O   UNL     1       2.362  12.630  17.510  0.00  0.00    +0.000 OA
ATOM     33  H   UNL     1       2.962  13.383  17.358  0.00  0.00    +0.000 HD
ENDBRANCH  30  32
ENDBRANCH  29  30
ENDBRANCH  21  24
ENDBRANCH   1  18
TORSDOF 9
ENDMDL
