MODEL 1
REMARK VINA RESULT:      -8.4      0.000      0.000
REMARK  Name = 
REMARK  13 active torsions:
REMARK  status: ('A' for Active; 'I' for Inactive)
REMARK    1  A    between atoms: C_1  and  C_2
REMARK    2  A    between atoms: C_2  and  C_3
REMARK    3  A    between atoms: C_3  and  C_4
REMARK    4  A    between atoms: C_4  and  C_5
REMARK    5  A    between atoms: C_5  and  N_6
REMARK    6  A    between atoms: N_9  and  C_10
REMARK    7  A    between atoms: C_16  and  O_17
REMARK    8  A    between atoms: O_17  and  C_18
REMARK    9  A    between atoms: C_18  and  C_19
REMARK   10  A    between atoms: C_19  and  C_20
REMARK   11  A    between atoms: C_20  and  N_21
REMARK   12  A    between atoms: C_24  and  C_25
REMARK   13  A    between atoms: C_31  and  C_32
REMARK                            x       y       z     vdW  Elec       q    Type
REMARK                         _______ _______ _______ _____ _____    ______ ____
ROOT
ATOM      1  C   UNL     1       3.165   3.669  19.104  0.00  0.00    +0.000 A 
ATOM      2  C   UNL     1       3.367   2.565  19.950  0.00  0.00    +0.000 A 
ATOM      3  F   UNL     1       4.190   1.576  19.559  0.00  0.00    +0.000 F 
ATOM      4  C   UNL     1       2.774   2.476  21.203  0.00  0.00    +0.000 A 
ATOM      5  C   UNL     1       1.932   3.492  21.625  0.00  0.00    +0.000 A 
ATOM      6  C   UNL     1       1.698   4.586  20.790  0.00  0.00    +0.000 A 
ATOM      7  C   UNL     1       2.305   4.700  19.523  0.00  0.00    +0.000 A 
ENDROOT
BRANCH   1  11
ATOM      8  N   UNL     1       5.652   3.870  16.484  0.00  0.00    +0.000 N 
ATOM      9  C   UNL     1       5.104   4.207  17.712  0.00  0.00    +0.000 C 
ATOM     10  O   UNL     1       5.707   4.854  18.562  0.00  0.00    +0.000 OA
ATOM     11  N   UNL     1       3.860   3.632  17.862  0.00  0.00    +0.000 N 
ATOM     12  H   UNL     1       5.005   3.632  15.751  0.00  0.00    +0.000 HD
ATOM     13  H   UNL     1       3.826   2.723  17.411  0.00  0.00    +0.000 HD
BRANCH   8  14
ATOM     14  C   UNL     1       6.979   4.323  16.106  0.00  0.00    +0.000 C 
BRANCH  14  15
ATOM     15  C   UNL     1       7.095   4.577  14.600  0.00  0.00    +0.000 C 
BRANCH  15  16
ATOM     16  C   UNL     1       5.864   4.039  13.863  0.00  0.00    +0.000 C 
BRANCH  16  18
ATOM     17  C   UNL     1       4.938   3.130  11.703  0.00  0.00    +0.000 C 
ATOM     18  C   UNL     1       6.183   3.630  12.424  0.00  0.00    +0.000 C 
ENDBRANCH  16  18
ENDBRANCH  15  16
ENDBRANCH  14  15
ENDBRANCH   8  14
ENDBRANCH   1  11
BRANCH   7  19
ATOM     19  O   UNL     1       2.031   5.741  18.658  0.00  0.00    +0.000 OA
BRANCH  19  20
ATOM     20  C   UNL     1       2.620   6.994  19.016  0.00  0.00    +0.000 C 
BRANCH  20  21
ATOM     21  C   UNL     1       1.969   7.602  20.251  0.00  0.00    +0.000 C 
BRANCH  21  22
ATOM     22  C   UNL     1       1.080   8.773  19.825  0.00  0.00    +0.000 C 
BRANCH  22  23
ATOM     23  N   UNL     1       0.563   9.517  20.955  0.00  0.00    +0.000 N 
ATOM     24  C   UNL     1       0.811   9.204  22.262  0.00  0.00    +0.000 A 
ATOM     25  N   UNL     1       0.203  10.040  23.073  0.00  0.00    +0.000 NA
ATOM     26  C   UNL     1      -0.472  10.926  22.258  0.00  0.00    +0.000 A 
ATOM     27  C   UNL     1      -0.215  10.653  20.922  0.00  0.00    +0.000 A 
ATOM     28  C   UNL     1      -0.608  11.330  19.657  0.00  0.00    +0.000 C 
BRANCH  26  29
ATOM     29  C   UNL     1      -1.281  12.015  22.782  0.00  0.00    +0.000 A 
ATOM     30  C   UNL     1      -2.593  11.770  23.210  0.00  0.00    +0.000 A 
ATOM     31  C   UNL     1      -3.357  12.795  23.777  0.00  0.00    +0.000 A 
ATOM     32  C   UNL     1      -2.815  14.071  23.929  0.00  0.00    +0.000 A 
ATOM     33  C   UNL     1      -1.526  14.334  23.472  0.00  0.00    +0.000 A 
ATOM     34  C   UNL     1      -0.781  13.320  22.872  0.00  0.00    +0.000 A 
ENDBRANCH  26  29
ENDBRANCH  22  23
ENDBRANCH  21  22
ENDBRANCH  20  21
ENDBRANCH  19  20
ENDBRANCH   7  19
TORSDOF 11
ENDMDL
MODEL 2
REMARK VINA RESULT:      -8.3      0.935      1.584
REMARK  Name = 
REMARK  13 active torsions:
REMARK  status: ('A' for Active; 'I' for Inactive)
REMARK    1  A    between atoms: C_1  and  C_2
REMARK    2  A    between atoms: C_2  and  C_3
REMARK    3  A    between atoms: C_3  and  C_4
REMARK    4  A    between atoms: C_4  and  C_5
REMARK    5  A    between atoms: C_5  and  N_6
REMARK    6  A    between atoms: N_9  and  C_10
REMARK    7  A    between atoms: C_16  and  O_17
REMARK    8  A    between atoms: O_17  and  C_18
REMARK    9  A    between atoms: C_18  and  C_19
REMARK   10  A    between atoms: C_19  and  C_20
REMARK   11  A    between atoms: C_20  and  N_21
REMARK   12  A    between atoms: C_24  and  C_25
REMARK   13  A    between atoms: C_31  and  C_32
REMARK                            x       y       z     vdW  Elec       q    Type
REMARK                         _______ _______ _______ _____ _____    ______ ____
ROOT
ATOM      1  C   UNL     1       2.864   4.121  18.855  0.00  0.00    +0.000 A 
ATOM      2  C   UNL     1       2.367   2.811  18.957  0.00  0.00    +0.000 A 
ATOM      3  F   UNL     1       2.615   1.931  17.969  0.00  0.00    +0.000 F 
ATOM      4  C   UNL     1       1.657   2.374  20.067  0.00  0.00    +0.000 A 
ATOM      5  C   UNL     1       1.402   3.264  21.099  0.00  0.00    +0.000 A 
ATOM      6  C   UNL     1       1.865   4.577  21.006  0.00  0.00    +0.000 A 
ATOM      7  C   UNL     1       2.602   5.032  19.894  0.00  0.00    +0.000 A 
ENDROOT
BRANCH   1  11
ATOM      8  N   UNL     1       5.448   4.545  16.358  0.00  0.00    +0.000 N 
ATOM      9  C   UNL     1       4.975   4.431  17.656  0.00  0.00    +0.000 C 
ATOM     10  O   UNL     1       5.707   4.275  18.628  0.00  0.00    +0.000 OA
ATOM     11  N   UNL     1       3.595   4.415  17.669  0.00  0.00    +0.000 N 
ATOM     12  H   UNL     1       4.833   4.978  15.690  0.00  0.00    +0.000 HD
ATOM     13  H   UNL     1       3.233   3.944  16.847  0.00  0.00    +0.000 HD
BRANCH   8  14
ATOM     14  C   UNL     1       6.873   4.543  16.077  0.00  0.00    +0.000 C 
BRANCH  14  15
ATOM     15  C   UNL     1       7.165   4.523  14.574  0.00  0.00    +0.000 C 
BRANCH  15  16
ATOM     16  C   UNL     1       5.959   3.991  13.794  0.00  0.00    +0.000 C 
BRANCH  16  18
ATOM     17  C   UNL     1       5.158   2.898  11.669  0.00  0.00    +0.000 C 
ATOM     18  C   UNL     1       6.326   3.583  12.366  0.00  0.00    +0.000 C 
ENDBRANCH  16  18
ENDBRANCH  15  16
ENDBRANCH  14  15
ENDBRANCH   8  14
ENDBRANCH   1  11
BRANCH   7  19
ATOM     19  O   UNL     1       3.009   6.345  19.757  0.00  0.00    +0.000 OA
BRANCH  19  20
ATOM     20  C   UNL     1       2.286   7.102  18.784  0.00  0.00    +0.000 C 
BRANCH  20  21
ATOM     21  C   UNL     1       2.003   8.521  19.257  0.00  0.00    +0.000 C 
BRANCH  21  22
ATOM     22  C   UNL     1       1.209   8.467  20.564  0.00  0.00    +0.000 C 
BRANCH  22  23
ATOM     23  N   UNL     1       0.406   9.653  20.776  0.00  0.00    +0.000 N 
ATOM     24  C   UNL     1      -0.027  10.479  19.777  0.00  0.00    +0.000 A 
ATOM     25  N   UNL     1      -0.723  11.484  20.260  0.00  0.00    +0.000 NA
ATOM     26  C   UNL     1      -0.733  11.305  21.628  0.00  0.00    +0.000 A 
ATOM     27  C   UNL     1      -0.080  10.131  21.973  0.00  0.00    +0.000 A 
ATOM     28  C   UNL     1       0.126   9.429  23.269  0.00  0.00    +0.000 C 
BRANCH  26  29
ATOM     29  C   UNL     1      -1.405  12.224  22.535  0.00  0.00    +0.000 A 
ATOM     30  C   UNL     1      -0.821  13.461  22.837  0.00  0.00    +0.000 A 
ATOM     31  C   UNL     1      -1.489  14.380  23.654  0.00  0.00    +0.000 A 
ATOM     32  C   UNL     1      -2.748  14.073  24.169  0.00  0.00    +0.000 A 
ATOM     33  C   UNL     1      -3.319  12.831  23.906  0.00  0.00    +0.000 A 
ATOM     34  C   UNL     1      -2.634  11.903  23.123  0.00  0.00    +0.000 A 
ENDBRANCH  26  29
ENDBRANCH  22  23
ENDBRANCH  21  22
ENDBRANCH  20  21
ENDBRANCH  19  20
ENDBRANCH   7  19
TORSDOF 11
ENDMDL
MODEL 3
REMARK VINA RESULT:      -8.3      1.166      1.189
REMARK  Name = 
REMARK  13 active torsions:
REMARK  status: ('A' for Active; 'I' for Inactive)
REMARK    1  A    between atoms: C_1  and  C_2
REMARK    2  A    between atoms: C_2  and  C_3
REMARK    3  A    between atoms: C_3  and  C_4
REMARK    4  A    between atoms: C_4  and  C_5
REMARK    5  A    between atoms: C_5  and  N_6
REMARK    6  A    between atoms: N_9  and  C_10
REMARK    7  A    between atoms: C_16  and  O_17
REMARK    8  A    between atoms: O_17  and  C_18
REMARK    9  A    between atoms: C_18  and  C_19
REMARK   10  A    between atoms: C_19  and  C_20
REMARK   11  A    between atoms: C_20  and  N_21
REMARK   12  A    between atoms: C_24  and  C_25
REMARK   13  A    between atoms: C_31  and  C_32
REMARK                            x       y       z     vdW  Elec       q    Type
REMARK                         _______ _______ _______ _____ _____    ______ ____
ROOT
ATOM      1  C   UNL     1       2.566   4.543  18.466  0.00  0.00    +0.000 A 
ATOM      2  C   UNL     1       1.936   3.295  18.335  0.00  0.00    +0.000 A 
ATOM      3  F   UNL     1       2.185   2.539  17.250  0.00  0.00    +0.000 F 
ATOM      4  C   UNL     1       1.089   2.788  19.312  0.00  0.00    +0.000 A 
ATOM      5  C   UNL     1       0.830   3.549  20.442  0.00  0.00    +0.000 A 
ATOM      6  C   UNL     1       1.426   4.803  20.580  0.00  0.00    +0.000 A 
ATOM      7  C   UNL     1       2.302   5.324  19.605  0.00  0.00    +0.000 A 
ENDROOT
BRANCH   1  11
ATOM      8  N   UNL     1       5.338   4.877  16.165  0.00  0.00    +0.000 N 
ATOM      9  C   UNL     1       4.764   4.577  17.391  0.00  0.00    +0.000 C 
ATOM     10  O   UNL     1       5.366   4.004  18.293  0.00  0.00    +0.000 OA
ATOM     11  N   UNL     1       3.427   4.917  17.395  0.00  0.00    +0.000 N 
ATOM     12  H   UNL     1       4.899   5.604  15.626  0.00  0.00    +0.000 HD
ATOM     13  H   UNL     1       3.015   4.772  16.480  0.00  0.00    +0.000 HD
BRANCH   8  14
ATOM     14  C   UNL     1       6.733   4.574  15.896  0.00  0.00    +0.000 C 
BRANCH  14  15
ATOM     15  C   UNL     1       7.055   4.613  14.399  0.00  0.00    +0.000 C 
BRANCH  15  16
ATOM     16  C   UNL     1       5.787   4.398  13.567  0.00  0.00    +0.000 C 
BRANCH  16  18
ATOM     17  C   UNL     1       4.824   3.214  11.561  0.00  0.00    +0.000 C 
ATOM     18  C   UNL     1       5.906   3.192  12.632  0.00  0.00    +0.000 C 
ENDBRANCH  16  18
ENDBRANCH  15  16
ENDBRANCH  14  15
ENDBRANCH   8  14
ENDBRANCH   1  11
BRANCH   7  19
ATOM     19  O   UNL     1       2.846   6.590  19.696  0.00  0.00    +0.000 OA
BRANCH  19  20
ATOM     20  C   UNL     1       2.034   7.636  19.157  0.00  0.00    +0.000 C 
BRANCH  20  21
ATOM     21  C   UNL     1       1.771   8.739  20.172  0.00  0.00    +0.000 C 
BRANCH  21  22
ATOM     22  C   UNL     1       0.303   9.162  20.086  0.00  0.00    +0.000 C 
BRANCH  22  23
ATOM     23  N   UNL     1      -0.134   9.893  21.257  0.00  0.00    +0.000 N 
ATOM     24  C   UNL     1       0.126   9.515  22.544  0.00  0.00    +0.000 A 
ATOM     25  N   UNL     1      -0.404  10.356  23.403  0.00  0.00    +0.000 NA
ATOM     26  C   UNL     1      -1.040  11.314  22.641  0.00  0.00    +0.000 A 
ATOM     27  C   UNL     1      -0.837  11.078  21.289  0.00  0.00    +0.000 A 
ATOM     28  C   UNL     1      -1.218  11.828  20.061  0.00  0.00    +0.000 C 
BRANCH  26  29
ATOM     29  C   UNL     1      -1.762  12.432  23.228  0.00  0.00    +0.000 A 
ATOM     30  C   UNL     1      -3.098  12.274  23.623  0.00  0.00    +0.000 A 
ATOM     31  C   UNL     1      -3.782  13.321  24.250  0.00  0.00    +0.000 A 
ATOM     32  C   UNL     1      -3.134  14.532  24.494  0.00  0.00    +0.000 A 
ATOM     33  C   UNL     1      -1.820  14.712  24.072  0.00  0.00    +0.000 A 
ATOM     34  C   UNL     1      -1.154  13.680  23.413  0.00  0.00    +0.000 A 
ENDBRANCH  26  29
ENDBRANCH  22  23
ENDBRANCH  21  22
ENDBRANCH  20  21
ENDBRANCH  19  20
ENDBRANCH   7  19
TORSDOF 11
ENDMDL
MODEL 4
REMARK VINA RESULT:      -8.1      2.310      3.183
REMARK  Name = 
REMARK  13 active torsions:
REMARK  status: ('A' for Active; 'I' for Inactive)
REMARK    1  A    between atoms: C_1  and  C_2
REMARK    2  A    between atoms: C_2  and  C_3
REMARK    3  A    between atoms: C_3  and  C_4
REMARK    4  A    between atoms: C_4  and  C_5
REMARK    5  A    between atoms: C_5  and  N_6
REMARK    6  A    between atoms: N_9  and  C_10
REMARK    7  A    between atoms: C_16  and  O_17
REMARK    8  A    between atoms: O_17  and  C_18
REMARK    9  A    between atoms: C_18  and  C_19
REMARK   10  A    between atoms: C_19  and  C_20
REMARK   11  A    between atoms: C_20  and  N_21
REMARK   12  A    between atoms: C_24  and  C_25
REMARK   13  A    between atoms: C_31  and  C_32
REMARK                            x       y       z     vdW  Elec       q    Type
REMARK                         _______ _______ _______ _____ _____    ______ ____
ROOT
ATOM      1  C   UNL     1       2.837   4.493  18.574  0.00  0.00    +0.000 A 
ATOM      2  C   UNL     1       2.349   3.393  17.849  0.00  0.00    +0.000 A 
ATOM      3  F   UNL     1       2.916   3.074  16.672  0.00  0.00    +0.000 F 
ATOM      4  C   UNL     1       1.321   2.591  18.327  0.00  0.00    +0.000 A 
ATOM      5  C   UNL     1       0.733   2.899  19.543  0.00  0.00    +0.000 A 
ATOM      6  C   UNL     1       1.185   4.003  20.268  0.00  0.00    +0.000 A 
ATOM      7  C   UNL     1       2.240   4.817  19.806  0.00  0.00    +0.000 A 
ENDROOT
BRANCH   1  11
ATOM      8  N   UNL     1       6.090   5.724  17.577  0.00  0.00    +0.000 N 
ATOM      9  C   UNL     1       5.203   5.102  18.443  0.00  0.00    +0.000 C 
ATOM     10  O   UNL     1       5.561   4.476  19.436  0.00  0.00    +0.000 OA
ATOM     11  N   UNL     1       3.912   5.206  17.970  0.00  0.00    +0.000 N 
ATOM     12  H   UNL     1       5.716   6.457  16.999  0.00  0.00    +0.000 HD
ATOM     13  H   UNL     1       3.895   5.172  16.956  0.00  0.00    +0.000 HD
BRANCH   8  14
ATOM     14  C   UNL     1       7.519   5.718  17.836  0.00  0.00    +0.000 C 
BRANCH  14  15
ATOM     15  C   UNL     1       8.016   7.065  18.369  0.00  0.00    +0.000 C 
BRANCH  15  16
ATOM     16  C   UNL     1       7.545   8.211  17.468  0.00  0.00    +0.000 C 
BRANCH  16  18
ATOM     17  C   UNL     1       9.029   9.441  19.091  0.00  0.00    +0.000 C 
ATOM     18  C   UNL     1       8.269   9.524  17.775  0.00  0.00    +0.000 C 
ENDBRANCH  16  18
ENDBRANCH  15  16
ENDBRANCH  14  15
ENDBRANCH   8  14
ENDBRANCH   1  11
BRANCH   7  19
ATOM     19  O   UNL     1       2.654   5.950  20.478  0.00  0.00    +0.000 OA
BRANCH  19  20
ATOM     20  C   UNL     1       2.118   7.178  19.979  0.00  0.00    +0.000 C 
BRANCH  20  21
ATOM     21  C   UNL     1       1.050   7.753  20.898  0.00  0.00    +0.000 C 
BRANCH  21  22
ATOM     22  C   UNL     1       0.793   9.213  20.520  0.00  0.00    +0.000 C 
BRANCH  22  23
ATOM     23  N   UNL     1       0.140   9.955  21.577  0.00  0.00    +0.000 N 
ATOM     24  C   UNL     1       0.149   9.590  22.895  0.00  0.00    +0.000 A 
ATOM     25  N   UNL     1      -0.536  10.439  23.627  0.00  0.00    +0.000 NA
ATOM     26  C   UNL     1      -1.015  11.388  22.748  0.00  0.00    +0.000 A 
ATOM     27  C   UNL     1      -0.556  11.139  21.462  0.00  0.00    +0.000 A 
ATOM     28  C   UNL     1      -0.695  11.875  20.176  0.00  0.00    +0.000 C 
BRANCH  26  29
ATOM     29  C   UNL     1      -1.837  12.510  23.174  0.00  0.00    +0.000 A 
ATOM     30  C   UNL     1      -1.254  13.767  23.379  0.00  0.00    +0.000 A 
ATOM     31  C   UNL     1      -2.044  14.869  23.723  0.00  0.00    +0.000 A 
ATOM     32  C   UNL     1      -3.425  14.725  23.858  0.00  0.00    +0.000 A 
ATOM     33  C   UNL     1      -4.009  13.472  23.694  0.00  0.00    +0.000 A 
ATOM     34  C   UNL     1      -3.213  12.369  23.389  0.00  0.00    +0.000 A 
ENDBRANCH  26  29
ENDBRANCH  22  23
ENDBRANCH  21  22
ENDBRANCH  20  21
ENDBRANCH  19  20
ENDBRANCH   7  19
TORSDOF 11
ENDMDL
MODEL 5
REMARK VINA RESULT:      -8.1      1.567      2.553
REMARK  Name = 
REMARK  13 active torsions:
REMARK  status: ('A' for Active; 'I' for Inactive)
REMARK    1  A    between atoms: C_1  and  C_2
REMARK    2  A    between atoms: C_2  and  C_3
REMARK    3  A    between atoms: C_3  and  C_4
REMARK    4  A    between atoms: C_4  and  C_5
REMARK    5  A    between atoms: C_5  and  N_6
REMARK    6  A    between atoms: N_9  and  C_10
REMARK    7  A    between atoms: C_16  and  O_17
REMARK    8  A    between atoms: O_17  and  C_18
REMARK    9  A    between atoms: C_18  and  C_19
REMARK   10  A    between atoms: C_19  and  C_20
REMARK   11  A    between atoms: C_20  and  N_21
REMARK   12  A    between atoms: C_24  and  C_25
REMARK   13  A    between atoms: C_31  and  C_32
REMARK                            x       y       z     vdW  Elec       q    Type
REMARK                         _______ _______ _______ _____ _____    ______ ____
ROOT
ATOM      1  C   UNL     1       3.425   3.803  19.611  0.00  0.00    +0.000 A 
ATOM      2  C   UNL     1       2.923   2.500  19.765  0.00  0.00    +0.000 A 
ATOM      3  F   UNL     1       3.691   1.452  19.419  0.00  0.00    +0.000 F 
ATOM      4  C   UNL     1       1.668   2.251  20.305  0.00  0.00    +0.000 A 
ATOM      5  C   UNL     1       0.868   3.320  20.678  0.00  0.00    +0.000 A 
ATOM      6  C   UNL     1       1.338   4.624  20.509  0.00  0.00    +0.000 A 
ATOM      7  C   UNL     1       2.616   4.894  19.980  0.00  0.00    +0.000 A 
ENDROOT
BRANCH   1  11
ATOM      8  N   UNL     1       6.292   4.401  17.486  0.00  0.00    +0.000 N 
ATOM      9  C   UNL     1       4.949   4.158  17.730  0.00  0.00    +0.000 C 
ATOM     10  O   UNL     1       4.081   4.256  16.868  0.00  0.00    +0.000 OA
ATOM     11  N   UNL     1       4.738   3.901  19.068  0.00  0.00    +0.000 N 
ATOM     12  H   UNL     1       6.948   3.998  18.134  0.00  0.00    +0.000 HD
ATOM     13  H   UNL     1       5.370   4.447  19.644  0.00  0.00    +0.000 HD
BRANCH   8  14
ATOM     14  C   UNL     1       6.764   4.737  16.154  0.00  0.00    +0.000 C 
BRANCH  14  15
ATOM     15  C   UNL     1       7.245   6.188  16.061  0.00  0.00    +0.000 C 
BRANCH  15  16
ATOM     16  C   UNL     1       6.815   6.982  17.299  0.00  0.00    +0.000 C 
BRANCH  16  18
ATOM     17  C   UNL     1       8.185   8.992  17.957  0.00  0.00    +0.000 C 
ATOM     18  C   UNL     1       8.011   7.487  18.108  0.00  0.00    +0.000 C 
ENDBRANCH  16  18
ENDBRANCH  15  16
ENDBRANCH  14  15
ENDBRANCH   8  14
ENDBRANCH   1  11
BRANCH   7  19
ATOM     19  O   UNL     1       3.068   6.177  19.745  0.00  0.00    +0.000 OA
BRANCH  19  20
ATOM     20  C   UNL     1       2.043   7.143  19.498  0.00  0.00    +0.000 C 
BRANCH  20  21
ATOM     21  C   UNL     1       1.742   7.987  20.728  0.00  0.00    +0.000 C 
BRANCH  21  22
ATOM     22  C   UNL     1       1.045   9.278  20.294  0.00  0.00    +0.000 C 
BRANCH  22  23
ATOM     23  N   UNL     1       0.369   9.940  21.390  0.00  0.00    +0.000 N 
ATOM     24  C   UNL     1       0.423   9.528  22.692  0.00  0.00    +0.000 A 
ATOM     25  N   UNL     1      -0.297  10.306  23.467  0.00  0.00    +0.000 NA
ATOM     26  C   UNL     1      -0.847  11.257  22.633  0.00  0.00    +0.000 A 
ATOM     27  C   UNL     1      -0.398  11.084  21.331  0.00  0.00    +0.000 A 
ATOM     28  C   UNL     1      -0.603  11.858  20.077  0.00  0.00    +0.000 C 
BRANCH  26  29
ATOM     29  C   UNL     1      -1.725  12.312  23.115  0.00  0.00    +0.000 A 
ATOM     30  C   UNL     1      -1.240  13.619  23.251  0.00  0.00    +0.000 A 
ATOM     31  C   UNL     1      -2.092  14.655  23.649  0.00  0.00    +0.000 A 
ATOM     32  C   UNL     1      -3.438  14.394  23.907  0.00  0.00    +0.000 A 
ATOM     33  C   UNL     1      -3.920  13.092  23.811  0.00  0.00    +0.000 A 
ATOM     34  C   UNL     1      -3.060  12.056  23.452  0.00  0.00    +0.000 A 
ENDBRANCH  26  29
ENDBRANCH  22  23
ENDBRANCH  21  22
ENDBRANCH  20  21
ENDBRANCH  19  20
ENDBRANCH   7  19
TORSDOF 11
ENDMDL
MODEL 6
REMARK VINA RESULT:      -8.0      1.370      1.831
REMARK  Name = 
REMARK  13 active torsions:
REMARK  status: ('A' for Active; 'I' for Inactive)
REMARK    1  A    between atoms: C_1  and  C_2
REMARK    2  A    between atoms: C_2  and  C_3
REMARK    3  A    between atoms: C_3  and  C_4
REMARK    4  A    between atoms: C_4  and  C_5
REMARK    5  A    between atoms: C_5  and  N_6
REMARK    6  A    between atoms: N_9  and  C_10
REMARK    7  A    between atoms: C_16  and  O_17
REMARK    8  A    between atoms: O_17  and  C_18
REMARK    9  A    between atoms: C_18  and  C_19
REMARK   10  A    between atoms: C_19  and  C_20
REMARK   11  A    between atoms: C_20  and  N_21
REMARK   12  A    between atoms: C_24  and  C_25
REMARK   13  A    between atoms: C_31  and  C_32
REMARK                            x       y       z     vdW  Elec       q    Type
REMARK                         _______ _______ _______ _____ _____    ______ ____
ROOT
ATOM      1  C   UNL     1       3.901   4.028  19.606  0.00  0.00    +0.000 A 
ATOM      2  C   UNL     1       3.574   2.818  20.241  0.00  0.00    +0.000 A 
ATOM      3  F   UNL     1       4.348   1.736  20.038  0.00  0.00    +0.000 F 
ATOM      4  C   UNL     1       2.497   2.706  21.110  0.00  0.00    +0.000 A 
ATOM      5  C   UNL     1       1.695   3.814  21.338  0.00  0.00    +0.000 A 
ATOM      6  C   UNL     1       1.987   5.019  20.698  0.00  0.00    +0.000 A 
ATOM      7  C   UNL     1       3.088   5.154  19.827  0.00  0.00    +0.000 A 
ENDROOT
BRANCH   1  11
ATOM      8  N   UNL     1       6.163   3.885  16.786  0.00  0.00    +0.000 N 
ATOM      9  C   UNL     1       4.958   3.652  17.432  0.00  0.00    +0.000 C 
ATOM     10  O   UNL     1       3.945   3.278  16.850  0.00  0.00    +0.000 OA
ATOM     11  N   UNL     1       5.049   3.996  18.764  0.00  0.00    +0.000 N 
ATOM     12  H   UNL     1       6.991   3.873  17.357  0.00  0.00    +0.000 HD
ATOM     13  H   UNL     1       5.660   4.796  18.890  0.00  0.00    +0.000 HD
BRANCH   8  14
ATOM     14  C   UNL     1       6.309   3.638  15.362  0.00  0.00    +0.000 C 
BRANCH  14  15
ATOM     15  C   UNL     1       6.233   4.930  14.542  0.00  0.00    +0.000 C 
BRANCH  15  16
ATOM     16  C   UNL     1       6.654   4.676  13.091  0.00  0.00    +0.000 C 
BRANCH  16  18
ATOM     17  C   UNL     1       4.805   3.513  11.833  0.00  0.00    +0.000 C 
ATOM     18  C   UNL     1       6.131   3.339  12.562  0.00  0.00    +0.000 C 
ENDBRANCH  16  18
ENDBRANCH  15  16
ENDBRANCH  14  15
ENDBRANCH   8  14
ENDBRANCH   1  11
BRANCH   7  19
ATOM     19  O   UNL     1       3.349   6.320  19.135  0.00  0.00    +0.000 OA
BRANCH  19  20
ATOM     20  C   UNL     1       2.478   6.576  18.031  0.00  0.00    +0.000 C 
BRANCH  20  21
ATOM     21  C   UNL     1       1.953   8.004  18.033  0.00  0.00    +0.000 C 
BRANCH  21  22
ATOM     22  C   UNL     1       1.935   8.531  19.470  0.00  0.00    +0.000 C 
BRANCH  22  23
ATOM     23  N   UNL     1       1.052   9.666  19.634  0.00  0.00    +0.000 N 
ATOM     24  C   UNL     1       1.053  10.768  18.825  0.00  0.00    +0.000 A 
ATOM     25  N   UNL     1       0.158  11.646  19.218  0.00  0.00    +0.000 NA
ATOM     26  C   UNL     1      -0.442  11.095  20.331  0.00  0.00    +0.000 A 
ATOM     27  C   UNL     1       0.062   9.826  20.580  0.00  0.00    +0.000 A 
ATOM     28  C   UNL     1      -0.281   8.778  21.578  0.00  0.00    +0.000 C 
BRANCH  26  29
ATOM     29  C   UNL     1      -1.496  11.771  21.071  0.00  0.00    +0.000 A 
ATOM     30  C   UNL     1      -2.569  12.354  20.386  0.00  0.00    +0.000 A 
ATOM     31  C   UNL     1      -3.623  12.948  21.090  0.00  0.00    +0.000 A 
ATOM     32  C   UNL     1      -3.615  12.957  22.484  0.00  0.00    +0.000 A 
ATOM     33  C   UNL     1      -2.534  12.414  23.174  0.00  0.00    +0.000 A 
ATOM     34  C   UNL     1      -1.469  11.858  22.468  0.00  0.00    +0.000 A 
ENDBRANCH  26  29
ENDBRANCH  22  23
ENDBRANCH  21  22
ENDBRANCH  20  21
ENDBRANCH  19  20
ENDBRANCH   7  19
TORSDOF 11
ENDMDL
MODEL 7
REMARK VINA RESULT:      -7.9      6.620     10.986
REMARK  Name = 
REMARK  13 active torsions:
REMARK  status: ('A' for Active; 'I' for Inactive)
REMARK    1  A    between atoms: C_1  and  C_2
REMARK    2  A    between atoms: C_2  and  C_3
REMARK    3  A    between atoms: C_3  and  C_4
REMARK    4  A    between atoms: C_4  and  C_5
REMARK    5  A    between atoms: C_5  and  N_6
REMARK    6  A    between atoms: N_9  and  C_10
REMARK    7  A    between atoms: C_16  and  O_17
REMARK    8  A    between atoms: O_17  and  C_18
REMARK    9  A    between atoms: C_18  and  C_19
REMARK   10  A    between atoms: C_19  and  C_20
REMARK   11  A    between atoms: C_20  and  N_21
REMARK   12  A    between atoms: C_24  and  C_25
REMARK   13  A    between atoms: C_31  and  C_32
REMARK                            x       y       z     vdW  Elec       q    Type
REMARK                         _______ _______ _______ _____ _____    ______ ____
ROOT
ATOM      1  C   UNL     1       9.164  13.084  17.716  0.00  0.00    +0.000 A 
ATOM      2  C   UNL     1      10.299  13.902  17.587  0.00  0.00    +0.000 A 
ATOM      3  F   UNL     1      10.142  15.212  17.329  0.00  0.00    +0.000 F 
ATOM      4  C   UNL     1      11.587  13.411  17.758  0.00  0.00    +0.000 A 
ATOM      5  C   UNL     1      11.765  12.065  18.036  0.00  0.00    +0.000 A 
ATOM      6  C   UNL     1      10.652  11.230  18.143  0.00  0.00    +0.000 A 
ATOM      7  C   UNL     1       9.337  11.715  17.990  0.00  0.00    +0.000 A 
ENDROOT
BRANCH   1  11
ATOM      8  N   UNL     1       6.169  15.072  18.131  0.00  0.00    +0.000 N 
ATOM      9  C   UNL     1       7.259  14.348  18.589  0.00  0.00    +0.000 C 
ATOM     10  O   UNL     1       7.622  14.350  19.761  0.00  0.00    +0.000 OA
ATOM     11  N   UNL     1       7.909  13.734  17.539  0.00  0.00    +0.000 N 
ATOM     12  H   UNL     1       5.761  14.771  17.262  0.00  0.00    +0.000 HD
ATOM     13  H   UNL     1       7.870  14.309  16.705  0.00  0.00    +0.000 HD
BRANCH   8  14
ATOM     14  C   UNL     1       5.344  15.844  19.043  0.00  0.00    +0.000 C 
BRANCH  14  15
ATOM     15  C   UNL     1       4.201  16.564  18.321  0.00  0.00    +0.000 C 
BRANCH  15  16
ATOM     16  C   UNL     1       3.350  15.568  17.526  0.00  0.00    +0.000 C 
BRANCH  16  18
ATOM     17  C   UNL     1       2.792  13.227  18.272  0.00  0.00    +0.000 C 
ATOM     18  C   UNL     1       2.470  14.706  18.432  0.00  0.00    +0.000 C 
ENDBRANCH  16  18
ENDBRANCH  15  16
ENDBRANCH  14  15
ENDBRANCH   8  14
ENDBRANCH   1  11
BRANCH   7  19
ATOM     19  O   UNL     1       8.231  10.890  18.027  0.00  0.00    +0.000 OA
BRANCH  19  20
ATOM     20  C   UNL     1       8.522   9.493  18.117  0.00  0.00    +0.000 C 
BRANCH  20  21
ATOM     21  C   UNL     1       7.353   8.633  17.660  0.00  0.00    +0.000 C 
BRANCH  21  22
ATOM     22  C   UNL     1       7.810   7.175  17.561  0.00  0.00    +0.000 C 
BRANCH  22  23
ATOM     23  N   UNL     1       6.848   6.252  18.125  0.00  0.00    +0.000 N 
ATOM     24  C   UNL     1       6.990   5.634  19.336  0.00  0.00    +0.000 A 
ATOM     25  N   UNL     1       5.974   4.840  19.586  0.00  0.00    +0.000 NA
ATOM     26  C   UNL     1       5.143   4.941  18.490  0.00  0.00    +0.000 A 
ATOM     27  C   UNL     1       5.641   5.866  17.582  0.00  0.00    +0.000 A 
ATOM     28  C   UNL     1       5.117   6.412  16.302  0.00  0.00    +0.000 C 
BRANCH  26  29
ATOM     29  C   UNL     1       3.897   4.200  18.378  0.00  0.00    +0.000 A 
ATOM     30  C   UNL     1       3.913   2.860  17.969  0.00  0.00    +0.000 A 
ATOM     31  C   UNL     1       2.727   2.118  17.922  0.00  0.00    +0.000 A 
ATOM     32  C   UNL     1       1.518   2.707  18.291  0.00  0.00    +0.000 A 
ATOM     33  C   UNL     1       1.486   4.048  18.661  0.00  0.00    +0.000 A 
ATOM     34  C   UNL     1       2.663   4.795  18.669  0.00  0.00    +0.000 A 
ENDBRANCH  26  29
ENDBRANCH  22  23
ENDBRANCH  21  22
ENDBRANCH  20  21
ENDBRANCH  19  20
ENDBRANCH   7  19
TORSDOF 11
ENDMDL
MODEL 8
REMARK VINA RESULT:      -7.9      2.600      4.154
REMARK  Name = 
REMARK  13 active torsions:
REMARK  status: ('A' for Active; 'I' for Inactive)
REMARK    1  A    between atoms: C_1  and  C_2
REMARK    2  A    between atoms: C_2  and  C_3
REMARK    3  A    between atoms: C_3  and  C_4
REMARK    4  A    between atoms: C_4  and  C_5
REMARK    5  A    between atoms: C_5  and  N_6
REMARK    6  A    between atoms: N_9  and  C_10
REMARK    7  A    between atoms: C_16  and  O_17
REMARK    8  A    between atoms: O_17  and  C_18
REMARK    9  A    between atoms: C_18  and  C_19
REMARK   10  A    between atoms: C_19  and  C_20
REMARK   11  A    between atoms: C_20  and  N_21
REMARK   12  A    between atoms: C_24  and  C_25
REMARK   13  A    between atoms: C_31  and  C_32
REMARK                            x       y       z     vdW  Elec       q    Type
REMARK                         _______ _______ _______ _____ _____    ______ ____
ROOT
ATOM      1  C   UNL     1       5.814   5.180  16.872  0.00  0.00    +0.000 A 
ATOM      2  C   UNL     1       7.003   5.903  17.067  0.00  0.00    +0.000 A 
ATOM      3  F   UNL     1       7.637   6.430  16.003  0.00  0.00    +0.000 F 
ATOM      4  C   UNL     1       7.532   6.130  18.330  0.00  0.00    +0.000 A 
ATOM      5  C   UNL     1       6.886   5.604  19.438  0.00  0.00    +0.000 A 
ATOM      6  C   UNL     1       5.717   4.860  19.265  0.00  0.00    +0.000 A 
ATOM      7  C   UNL     1       5.157   4.635  17.991  0.00  0.00    +0.000 A 
ENDROOT
BRANCH   1  11
ATOM      8  N   UNL     1       5.346   4.146  13.436  0.00  0.00    +0.000 N 
ATOM      9  C   UNL     1       6.065   4.268  14.615  0.00  0.00    +0.000 C 
ATOM     10  O   UNL     1       7.119   3.675  14.824  0.00  0.00    +0.000 OA
ATOM     11  N   UNL     1       5.381   5.051  15.522  0.00  0.00    +0.000 N 
ATOM     12  H   UNL     1       4.695   4.885  13.227  0.00  0.00    +0.000 HD
ATOM     13  H   UNL     1       4.380   4.914  15.434  0.00  0.00    +0.000 HD
BRANCH   8  14
ATOM     14  C   UNL     1       5.839   3.335  12.337  0.00  0.00    +0.000 C 
BRANCH  14  15
ATOM     15  C   UNL     1       4.704   2.801  11.459  0.00  0.00    +0.000 C 
BRANCH  15  16
ATOM     16  C   UNL     1       3.751   3.932  11.058  0.00  0.00    +0.000 C 
BRANCH  16  18
ATOM     17  C   UNL     1       2.472   4.802   9.069  0.00  0.00    +0.000 C 
ATOM     18  C   UNL     1       2.892   3.563   9.847  0.00  0.00    +0.000 C 
ENDBRANCH  16  18
ENDBRANCH  15  16
ENDBRANCH  14  15
ENDBRANCH   8  14
ENDBRANCH   1  11
BRANCH   7  19
ATOM     19  O   UNL     1       4.040   3.847  17.798  0.00  0.00    +0.000 OA
BRANCH  19  20
ATOM     20  C   UNL     1       2.878   4.258  18.523  0.00  0.00    +0.000 C 
BRANCH  20  21
ATOM     21  C   UNL     1       2.419   5.653  18.125  0.00  0.00    +0.000 C 
BRANCH  21  22
ATOM     22  C   UNL     1       2.616   6.604  19.307  0.00  0.00    +0.000 C 
BRANCH  22  23
ATOM     23  N   UNL     1       2.013   7.902  19.084  0.00  0.00    +0.000 N 
ATOM     24  C   UNL     1       2.067   8.584  17.901  0.00  0.00    +0.000 A 
ATOM     25  N   UNL     1       1.448   9.739  17.991  0.00  0.00    +0.000 NA
ATOM     26  C   UNL     1       0.981   9.812  19.287  0.00  0.00    +0.000 A 
ATOM     27  C   UNL     1       1.273   8.645  19.978  0.00  0.00    +0.000 A 
ATOM     28  C   UNL     1       0.937   8.167  21.346  0.00  0.00    +0.000 C 
BRANCH  26  29
ATOM     29  C   UNL     1       0.238  10.956  19.790  0.00  0.00    +0.000 A 
ATOM     30  C   UNL     1       0.868  11.889  20.626  0.00  0.00    +0.000 A 
ATOM     31  C   UNL     1       0.183  13.028  21.062  0.00  0.00    +0.000 A 
ATOM     32  C   UNL     1      -1.134  13.249  20.661  0.00  0.00    +0.000 A 
ATOM     33  C   UNL     1      -1.781  12.310  19.862  0.00  0.00    +0.000 A 
ATOM     34  C   UNL     1      -1.108  11.157  19.461  0.00  0.00    +0.000 A 
ENDBRANCH  26  29
ENDBRANCH  22  23
ENDBRANCH  21  22
ENDBRANCH  20  21
ENDBRANCH  19  20
ENDBRANCH   7  19
TORSDOF 11
ENDMDL
MODEL 9
REMARK VINA RESULT:      -7.9      1.882      4.652
REMARK  Name = 
REMARK  13 active torsions:
REMARK  status: ('A' for Active; 'I' for Inactive)
REMARK    1  A    between atoms: C_1  and  C_2
REMARK    2  A    between atoms: C_2  and  C_3
REMARK    3  A    between atoms: C_3  and  C_4
REMARK    4  A    between atoms: C_4  and  C_5
REMARK    5  A    between atoms: C_5  and  N_6
REMARK    6  A    between atoms: N_9  and  C_10
REMARK    7  A    between atoms: C_16  and  O_17
REMARK    8  A    between atoms: O_17  and  C_18
REMARK    9  A    between atoms: C_18  and  C_19
REMARK   10  A    between atoms: C_19  and  C_20
REMARK   11  A    between atoms: C_20  and  N_21
REMARK   12  A    between atoms: C_24  and  C_25
REMARK   13  A    between atoms: C_31  and  C_32
REMARK                            x       y       z     vdW  Elec       q    Type
REMARK                         _______ _______ _______ _____ _____    ______ ____
ROOT
ATOM      1  C   UNL     1       4.943   4.912  16.891  0.00  0.00    +0.000 A 
ATOM      2  C   UNL     1       6.055   4.466  16.158  0.00  0.00    +0.000 A 
ATOM      3  F   UNL     1       5.992   3.286  15.515  0.00  0.00    +0.000 F 
ATOM      4  C   UNL     1       7.213   5.223  16.038  0.00  0.00    +0.000 A 
ATOM      5  C   UNL     1       7.291   6.446  16.684  0.00  0.00    +0.000 A 
ATOM      6  C   UNL     1       6.207   6.897  17.439  0.00  0.00    +0.000 A 
ATOM      7  C   UNL     1       5.017   6.149  17.557  0.00  0.00    +0.000 A 
ENDROOT
BRANCH   1  11
ATOM      8  N   UNL     1       2.279   2.658  17.846  0.00  0.00    +0.000 N 
ATOM      9  C   UNL     1       3.517   3.263  18.002  0.00  0.00    +0.000 C 
ATOM     10  O   UNL     1       4.185   3.174  19.027  0.00  0.00    +0.000 OA
ATOM     11  N   UNL     1       3.818   4.040  16.902  0.00  0.00    +0.000 N 
ATOM     12  H   UNL     1       1.962   2.516  16.902  0.00  0.00    +0.000 HD
ATOM     13  H   UNL     1       2.979   4.463  16.519  0.00  0.00    +0.000 HD
BRANCH   8  14
ATOM     14  C   UNL     1       1.719   1.818  18.890  0.00  0.00    +0.000 C 
BRANCH  14  15
ATOM     15  C   UNL     1       0.845   2.613  19.864  0.00  0.00    +0.000 C 
BRANCH  15  16
ATOM     16  C   UNL     1       1.489   2.663  21.253  0.00  0.00    +0.000 C 
BRANCH  16  18
ATOM     17  C   UNL     1       1.637   5.090  20.592  0.00  0.00    +0.000 C 
ATOM     18  C   UNL     1       2.151   4.013  21.537  0.00  0.00    +0.000 C 
ENDBRANCH  16  18
ENDBRANCH  15  16
ENDBRANCH  14  15
ENDBRANCH   8  14
ENDBRANCH   1  11
BRANCH   7  19
ATOM     19  O   UNL     1       3.963   6.550  18.353  0.00  0.00    +0.000 OA
BRANCH  19  20
ATOM     20  C   UNL     1       2.861   7.129  17.649  0.00  0.00    +0.000 C 
BRANCH  20  21
ATOM     21  C   UNL     1       2.745   8.626  17.898  0.00  0.00    +0.000 C 
BRANCH  21  22
ATOM     22  C   UNL     1       1.268   9.000  18.036  0.00  0.00    +0.000 C 
BRANCH  22  23
ATOM     23  N   UNL     1       0.943   9.505  19.354  0.00  0.00    +0.000 N 
ATOM     24  C   UNL     1       1.285   8.885  20.523  0.00  0.00    +0.000 A 
ATOM     25  N   UNL     1       0.848   9.558  21.563  0.00  0.00    +0.000 NA
ATOM     26  C   UNL     1       0.189  10.655  21.046  0.00  0.00    +0.000 A 
ATOM     27  C   UNL     1       0.284  10.675  19.662  0.00  0.00    +0.000 A 
ATOM     28  C   UNL     1      -0.162  11.650  18.630  0.00  0.00    +0.000 C 
BRANCH  26  29
ATOM     29  C   UNL     1      -0.450  11.655  21.887  0.00  0.00    +0.000 A 
ATOM     30  C   UNL     1      -0.004  12.983  21.860  0.00  0.00    +0.000 A 
ATOM     31  C   UNL     1      -0.654  13.967  22.613  0.00  0.00    +0.000 A 
ATOM     32  C   UNL     1      -1.760  13.633  23.394  0.00  0.00    +0.000 A 
ATOM     33  C   UNL     1      -2.187  12.309  23.458  0.00  0.00    +0.000 A 
ATOM     34  C   UNL     1      -1.514  11.326  22.736  0.00  0.00    +0.000 A 
ENDBRANCH  26  29
ENDBRANCH  22  23
ENDBRANCH  21  22
ENDBRANCH  20  21
ENDBRANCH  19  20
ENDBRANCH   7  19
TORSDOF 11
ENDMDL
