MODEL 1
REMARK VINA RESULT:      -7.7      0.000      0.000
REMARK  Name = 
REMARK  4 active torsions:
REMARK  status: ('A' for Active; 'I' for Inactive)
REMARK    1  A    between atoms: N_8  and  C_9
REMARK    2  A    between atoms: C_11  and  C_12
REMARK    3  A    between atoms: C_12  and  O_13
REMARK    4  A    between atoms: C_14  and  O_15
REMARK                            x       y       z     vdW  Elec       q    Type
REMARK                         _______ _______ _______ _____ _____    ______ ____
ROOT
ATOM      1  N   UNL     1       8.524   5.318  20.173  0.00  0.00    +0.000 N 
ATOM      2  C   UNL     1       7.503   5.727  19.337  0.00  0.00    +0.000 A 
ATOM      3  N   UNL     1       7.873   6.501  18.299  0.00  0.00    +0.000 NA
ATOM      4  C   UNL     1       6.919   6.941  17.440  0.00  0.00    +0.000 A 
ATOM      5  C   UNL     1       5.597   6.580  17.652  0.00  0.00    +0.000 A 
ATOM      6  N   UNL     1       4.433   6.862  16.983  0.00  0.00    +0.000 NA
ATOM      7  C   UNL     1       3.500   6.201  17.637  0.00  0.00    +0.000 A 
ATOM      8  N   UNL     1       4.008   5.522  18.715  0.00  0.00    +0.000 N 
ATOM      9  C   UNL     1       5.357   5.758  18.739  0.00  0.00    +0.000 A 
ATOM     10  N   UNL     1       6.261   5.289  19.617  0.00  0.00    +0.000 NA
ATOM     11  H   UNL     1       9.404   5.374  19.677  0.00  0.00    +0.000 HD
ATOM     12  H   UNL     1       8.295   4.442  20.615  0.00  0.00    +0.000 HD
ENDROOT
BRANCH   8  13
ATOM     13  C   UNL     1       3.297   4.616  19.596  0.00  0.00    +0.000 C 
ATOM     14  O   UNL     1       3.912   3.306  19.513  0.00  0.00    +0.000 OA
ATOM     15  C   UNL     1       2.908   2.356  19.104  0.00  0.00    +0.000 C 
ATOM     16  C   UNL     1       1.802   3.169  18.446  0.00  0.00    +0.000 C 
ATOM     17  C   UNL     1       1.819   4.434  19.274  0.00  0.00    +0.000 C 
ATOM     18  F   UNL     1       1.148   4.165  20.440  0.00  0.00    +0.000 F 
BRANCH  16  19
ATOM     19  O   UNL     1       0.549   2.499  18.476  0.00  0.00    +0.000 OA
ATOM     20  H   UNL     1       0.690   1.598  18.123  0.00  0.00    +0.000 HD
ENDBRANCH  16  19
BRANCH  15  21
ATOM     21  C   UNL     1       3.496   1.309  18.154  0.00  0.00    +0.000 C 
BRANCH  21  22
ATOM     22  O   UNL     1       4.510   0.534  18.787  0.00  0.00    +0.000 OA
ATOM     23  H   UNL     1       5.124   0.216  18.104  0.00  0.00    +0.000 HD
ENDBRANCH  21  22
ENDBRANCH  15  21
ENDBRANCH   8  13
TORSDOF 4
ENDMDL
MODEL 2
REMARK VINA RESULT:      -7.6      2.180      3.138
REMARK  Name = 
REMARK  4 active torsions:
REMARK  status: ('A' for Active; 'I' for Inactive)
REMARK    1  A    between atoms: N_8  and  C_9
REMARK    2  A    between atoms: C_11  and  C_12
REMARK    3  A    between atoms: C_12  and  O_13
REMARK    4  A    between atoms: C_14  and  O_15
REMARK                            x       y       z     vdW  Elec       q    Type
REMARK                         _______ _______ _______ _____ _____    ______ ____
ROOT
ATOM      1  N   UNL     1       5.746   4.317  14.051  0.00  0.00    +0.000 N 
ATOM      2  C   UNL     1       5.946   4.442  15.412  0.00  0.00    +0.000 A 
ATOM      3  N   UNL     1       7.230   4.536  15.807  0.00  0.00    +0.000 NA
ATOM      4  C   UNL     1       7.499   4.657  17.132  0.00  0.00    +0.000 A 
ATOM      5  C   UNL     1       6.449   4.684  18.037  0.00  0.00    +0.000 A 
ATOM      6  N   UNL     1       6.397   4.788  19.404  0.00  0.00    +0.000 NA
ATOM      7  C   UNL     1       5.112   4.800  19.692  0.00  0.00    +0.000 A 
ATOM      8  N   UNL     1       4.331   4.685  18.571  0.00  0.00    +0.000 N 
ATOM      9  C   UNL     1       5.177   4.607  17.497  0.00  0.00    +0.000 A 
ATOM     10  N   UNL     1       4.853   4.491  16.197  0.00  0.00    +0.000 NA
ATOM     11  H   UNL     1       6.559   4.665  13.561  0.00  0.00    +0.000 HD
ATOM     12  H   UNL     1       4.848   4.691  13.787  0.00  0.00    +0.000 HD
ENDROOT
BRANCH   8  13
ATOM     13  C   UNL     1       2.884   4.761  18.497  0.00  0.00    +0.000 C 
ATOM     14  O   UNL     1       2.353   4.849  19.843  0.00  0.00    +0.000 OA
ATOM     15  C   UNL     1       1.444   3.748  20.046  0.00  0.00    +0.000 C 
ATOM     16  C   UNL     1       1.809   2.702  19.002  0.00  0.00    +0.000 C 
ATOM     17  C   UNL     1       2.210   3.569  17.829  0.00  0.00    +0.000 C 
ATOM     18  F   UNL     1       1.055   4.000  17.228  0.00  0.00    +0.000 F 
BRANCH  16  19
ATOM     19  O   UNL     1       0.724   1.834  18.708  0.00  0.00    +0.000 OA
ATOM     20  H   UNL     1      -0.052   2.393  18.502  0.00  0.00    +0.000 HD
ENDBRANCH  16  19
BRANCH  15  21
ATOM     21  C   UNL     1       1.556   3.201  21.472  0.00  0.00    +0.000 C 
BRANCH  21  22
ATOM     22  O   UNL     1       2.851   2.663  21.730  0.00  0.00    +0.000 OA
ATOM     23  H   UNL     1       3.217   3.110  22.512  0.00  0.00    +0.000 HD
ENDBRANCH  21  22
ENDBRANCH  15  21
ENDBRANCH   8  13
TORSDOF 4
ENDMDL
MODEL 3
REMARK VINA RESULT:      -7.5      1.749      2.424
REMARK  Name = 
REMARK  4 active torsions:
REMARK  status: ('A' for Active; 'I' for Inactive)
REMARK    1  A    between atoms: N_8  and  C_9
REMARK    2  A    between atoms: C_11  and  C_12
REMARK    3  A    between atoms: C_12  and  O_13
REMARK    4  A    between atoms: C_14  and  O_15
REMARK                            x       y       z     vdW  Elec       q    Type
REMARK                         _______ _______ _______ _____ _____    ______ ____
ROOT
ATOM      1  N   UNL     1       8.636   5.484  20.054  0.00  0.00    +0.000 N 
ATOM      2  C   UNL     1       7.599   5.602  19.151  0.00  0.00    +0.000 A 
ATOM      3  N   UNL     1       7.664   6.661  18.322  0.00  0.00    +0.000 NA
ATOM      4  C   UNL     1       6.674   6.840  17.410  0.00  0.00    +0.000 A 
ATOM      5  C   UNL     1       5.630   5.929  17.356  0.00  0.00    +0.000 A 
ATOM      6  N   UNL     1       4.508   5.840  16.572  0.00  0.00    +0.000 NA
ATOM      7  C   UNL     1       3.914   4.730  16.959  0.00  0.00    +0.000 A 
ATOM      8  N   UNL     1       4.593   4.109  17.976  0.00  0.00    +0.000 N 
ATOM      9  C   UNL     1       5.699   4.870  18.245  0.00  0.00    +0.000 A 
ATOM     10  N   UNL     1       6.655   4.642  19.162  0.00  0.00    +0.000 NA
ATOM     11  H   UNL     1       9.436   6.003  19.715  0.00  0.00    +0.000 HD
ATOM     12  H   UNL     1       8.782   4.520  20.307  0.00  0.00    +0.000 HD
ENDROOT
BRANCH   8  13
ATOM     13  C   UNL     1       4.289   2.826  18.578  0.00  0.00    +0.000 C 
ATOM     14  O   UNL     1       2.921   2.471  18.256  0.00  0.00    +0.000 OA
ATOM     15  C   UNL     1       2.199   2.273  19.487  0.00  0.00    +0.000 C 
ATOM     16  C   UNL     1       2.992   3.003  20.563  0.00  0.00    +0.000 C 
ATOM     17  C   UNL     1       4.414   2.781  20.096  0.00  0.00    +0.000 C 
ATOM     18  F   UNL     1       4.770   1.510  20.468  0.00  0.00    +0.000 F 
BRANCH  16  19
ATOM     19  O   UNL     1       2.744   2.483  21.861  0.00  0.00    +0.000 OA
ATOM     20  H   UNL     1       2.651   3.243  22.469  0.00  0.00    +0.000 HD
ENDBRANCH  16  19
BRANCH  15  21
ATOM     21  C   UNL     1       0.765   2.800  19.375  0.00  0.00    +0.000 C 
BRANCH  21  22
ATOM     22  O   UNL     1       0.436   3.668  20.456  0.00  0.00    +0.000 OA
ATOM     23  H   UNL     1      -0.387   4.135  20.234  0.00  0.00    +0.000 HD
ENDBRANCH  21  22
ENDBRANCH  15  21
ENDBRANCH   8  13
TORSDOF 4
ENDMDL
MODEL 4
REMARK VINA RESULT:      -7.5      3.212      5.234
REMARK  Name = 
REMARK  4 active torsions:
REMARK  status: ('A' for Active; 'I' for Inactive)
REMARK    1  A    between atoms: N_8  and  C_9
REMARK    2  A    between atoms: C_11  and  C_12
REMARK    3  A    between atoms: C_12  and  O_13
REMARK    4  A    between atoms: C_14  and  O_15
REMARK                            x       y       z     vdW  Elec       q    Type
REMARK                         _______ _______ _______ _____ _____    ______ ____
ROOT
ATOM      1  N   UNL     1       2.475   2.206  21.941  0.00  0.00    +0.000 N 
ATOM      2  C   UNL     1       2.425   3.279  21.073  0.00  0.00    +0.000 A 
ATOM      3  N   UNL     1       1.478   4.199  21.335  0.00  0.00    +0.000 NA
ATOM      4  C   UNL     1       1.372   5.279  20.519  0.00  0.00    +0.000 A 
ATOM      5  C   UNL     1       2.240   5.404  19.445  0.00  0.00    +0.000 A 
ATOM      6  N   UNL     1       2.378   6.350  18.462  0.00  0.00    +0.000 NA
ATOM      7  C   UNL     1       3.407   5.946  17.747  0.00  0.00    +0.000 A 
ATOM      8  N   UNL     1       3.927   4.766  18.213  0.00  0.00    +0.000 N 
ATOM      9  C   UNL     1       3.185   4.402  19.305  0.00  0.00    +0.000 A 
ATOM     10  N   UNL     1       3.338   3.317  20.084  0.00  0.00    +0.000 NA
ATOM     11  H   UNL     1       2.034   2.462  22.815  0.00  0.00    +0.000 HD
ATOM     12  H   UNL     1       3.406   1.825  21.985  0.00  0.00    +0.000 HD
ENDROOT
BRANCH   8  13
ATOM     13  C   UNL     1       5.114   4.082  17.739  0.00  0.00    +0.000 C 
ATOM     14  O   UNL     1       6.187   4.293  18.692  0.00  0.00    +0.000 OA
ATOM     15  C   UNL     1       7.292   4.913  18.004  0.00  0.00    +0.000 C 
ATOM     16  C   UNL     1       6.706   5.543  16.748  0.00  0.00    +0.000 C 
ATOM     17  C   UNL     1       5.627   4.548  16.382  0.00  0.00    +0.000 C 
ATOM     18  F   UNL     1       6.242   3.492  15.760  0.00  0.00    +0.000 F 
BRANCH  16  19
ATOM     19  O   UNL     1       7.679   5.711  15.726  0.00  0.00    +0.000 OA
ATOM     20  H   UNL     1       7.855   6.669  15.643  0.00  0.00    +0.000 HD
ENDBRANCH  16  19
BRANCH  15  21
ATOM     21  C   UNL     1       7.984   5.946  18.897  0.00  0.00    +0.000 C 
BRANCH  21  22
ATOM     22  O   UNL     1       8.050   5.512  20.253  0.00  0.00    +0.000 OA
ATOM     23  H   UNL     1       8.427   6.231  20.787  0.00  0.00    +0.000 HD
ENDBRANCH  21  22
ENDBRANCH  15  21
ENDBRANCH   8  13
TORSDOF 4
ENDMDL
MODEL 5
REMARK VINA RESULT:      -7.4      2.200      3.160
REMARK  Name = 
REMARK  4 active torsions:
REMARK  status: ('A' for Active; 'I' for Inactive)
REMARK    1  A    between atoms: N_8  and  C_9
REMARK    2  A    between atoms: C_11  and  C_12
REMARK    3  A    between atoms: C_12  and  O_13
REMARK    4  A    between atoms: C_14  and  O_15
REMARK                            x       y       z     vdW  Elec       q    Type
REMARK                         _______ _______ _______ _____ _____    ______ ____
ROOT
ATOM      1  N   UNL     1       6.940   5.103  14.028  0.00  0.00    +0.000 N 
ATOM      2  C   UNL     1       6.676   5.284  15.371  0.00  0.00    +0.000 A 
ATOM      3  N   UNL     1       7.581   6.013  16.052  0.00  0.00    +0.000 NA
ATOM      4  C   UNL     1       7.385   6.227  17.378  0.00  0.00    +0.000 A 
ATOM      5  C   UNL     1       6.261   5.695  17.991  0.00  0.00    +0.000 A 
ATOM      6  N   UNL     1       5.797   5.730  19.281  0.00  0.00    +0.000 NA
ATOM      7  C   UNL     1       4.653   5.078  19.245  0.00  0.00    +0.000 A 
ATOM      8  N   UNL     1       4.369   4.604  17.990  0.00  0.00    +0.000 N 
ATOM      9  C   UNL     1       5.396   4.991  17.171  0.00  0.00    +0.000 A 
ATOM     10  N   UNL     1       5.537   4.753  15.856  0.00  0.00    +0.000 NA
ATOM     11  H   UNL     1       7.571   5.827  13.711  0.00  0.00    +0.000 HD
ATOM     12  H   UNL     1       6.086   4.972  13.511  0.00  0.00    +0.000 HD
ENDROOT
BRANCH   8  13
ATOM     13  C   UNL     1       3.157   3.933  17.559  0.00  0.00    +0.000 C 
ATOM     14  O   UNL     1       2.030   4.504  18.269  0.00  0.00    +0.000 OA
ATOM     15  C   UNL     1       1.358   3.447  18.983  0.00  0.00    +0.000 C 
ATOM     16  C   UNL     1       2.372   2.320  19.119  0.00  0.00    +0.000 C 
ATOM     17  C   UNL     1       3.128   2.431  17.814  0.00  0.00    +0.000 C 
ATOM     18  F   UNL     1       2.358   1.838  16.846  0.00  0.00    +0.000 F 
BRANCH  16  19
ATOM     19  O   UNL     1       1.751   1.055  19.298  0.00  0.00    +0.000 OA
ATOM     20  H   UNL     1       2.263   0.569  19.974  0.00  0.00    +0.000 HD
ENDBRANCH  16  19
BRANCH  15  21
ATOM     21  C   UNL     1       0.857   3.937  20.345  0.00  0.00    +0.000 C 
BRANCH  21  22
ATOM     22  O   UNL     1       0.823   2.882  21.304  0.00  0.00    +0.000 OA
ATOM     23  H   UNL     1       1.681   2.427  21.288  0.00  0.00    +0.000 HD
ENDBRANCH  21  22
ENDBRANCH  15  21
ENDBRANCH   8  13
TORSDOF 4
ENDMDL
MODEL 6
REMARK VINA RESULT:      -7.4      3.361      5.498
REMARK  Name = 
REMARK  4 active torsions:
REMARK  status: ('A' for Active; 'I' for Inactive)
REMARK    1  A    between atoms: N_8  and  C_9
REMARK    2  A    between atoms: C_11  and  C_12
REMARK    3  A    between atoms: C_12  and  O_13
REMARK    4  A    between atoms: C_14  and  O_15
REMARK                            x       y       z     vdW  Elec       q    Type
REMARK                         _______ _______ _______ _____ _____    ______ ____
ROOT
ATOM      1  N   UNL     1       2.131   3.221  22.356  0.00  0.00    +0.000 N 
ATOM      2  C   UNL     1       2.068   3.179  20.977  0.00  0.00    +0.000 A 
ATOM      3  N   UNL     1       1.021   2.507  20.461  0.00  0.00    +0.000 NA
ATOM      4  C   UNL     1       0.899   2.424  19.111  0.00  0.00    +0.000 A 
ATOM      5  C   UNL     1       1.850   3.033  18.306  0.00  0.00    +0.000 A 
ATOM      6  N   UNL     1       2.004   3.120  16.946  0.00  0.00    +0.000 NA
ATOM      7  C   UNL     1       3.076   3.865  16.776  0.00  0.00    +0.000 A 
ATOM      8  N   UNL     1       3.636   4.244  17.969  0.00  0.00    +0.000 N 
ATOM      9  C   UNL     1       2.859   3.715  18.964  0.00  0.00    +0.000 A 
ATOM     10  N   UNL     1       3.025   3.833  20.293  0.00  0.00    +0.000 NA
ATOM     11  H   UNL     1       1.211   3.046  22.738  0.00  0.00    +0.000 HD
ATOM     12  H   UNL     1       2.614   4.048  22.666  0.00  0.00    +0.000 HD
ENDROOT
BRANCH   8  13
ATOM     13  C   UNL     1       4.757   5.142  18.166  0.00  0.00    +0.000 C 
ATOM     14  O   UNL     1       4.997   5.867  16.933  0.00  0.00    +0.000 OA
ATOM     15  C   UNL     1       6.353   5.618  16.514  0.00  0.00    +0.000 C 
ATOM     16  C   UNL     1       6.782   4.337  17.216  0.00  0.00    +0.000 C 
ATOM     17  C   UNL     1       6.068   4.462  18.543  0.00  0.00    +0.000 C 
ATOM     18  F   UNL     1       6.800   5.324  19.319  0.00  0.00    +0.000 F 
BRANCH  16  19
ATOM     19  O   UNL     1       8.194   4.243  17.349  0.00  0.00    +0.000 OA
ATOM     20  H   UNL     1       8.521   5.121  17.630  0.00  0.00    +0.000 HD
ENDBRANCH  16  19
BRANCH  15  21
ATOM     21  C   UNL     1       6.443   5.497  14.990  0.00  0.00    +0.000 C 
BRANCH  21  22
ATOM     22  O   UNL     1       7.788   5.307  14.556  0.00  0.00    +0.000 OA
ATOM     23  H   UNL     1       8.334   6.017  14.933  0.00  0.00    +0.000 HD
ENDBRANCH  21  22
ENDBRANCH  15  21
ENDBRANCH   8  13
TORSDOF 4
ENDMDL
MODEL 7
REMARK VINA RESULT:      -7.4      2.509      3.421
REMARK  Name = 
REMARK  4 active torsions:
REMARK  status: ('A' for Active; 'I' for Inactive)
REMARK    1  A    between atoms: N_8  and  C_9
REMARK    2  A    between atoms: C_11  and  C_12
REMARK    3  A    between atoms: C_12  and  O_13
REMARK    4  A    between atoms: C_14  and  O_15
REMARK                            x       y       z     vdW  Elec       q    Type
REMARK                         _______ _______ _______ _____ _____    ______ ____
ROOT
ATOM      1  N   UNL     1       6.463   3.640  13.967  0.00  0.00    +0.000 N 
ATOM      2  C   UNL     1       5.888   4.409  14.960  0.00  0.00    +0.000 A 
ATOM      3  N   UNL     1       5.795   5.727  14.699  0.00  0.00    +0.000 NA
ATOM      4  C   UNL     1       5.243   6.542  15.633  0.00  0.00    +0.000 A 
ATOM      5  C   UNL     1       4.789   5.996  16.825  0.00  0.00    +0.000 A 
ATOM      6  N   UNL     1       4.204   6.542  17.939  0.00  0.00    +0.000 NA
ATOM      7  C   UNL     1       3.957   5.516  18.726  0.00  0.00    +0.000 A 
ATOM      8  N   UNL     1       4.378   4.331  18.179  0.00  0.00    +0.000 N 
ATOM      9  C   UNL     1       4.918   4.624  16.954  0.00  0.00    +0.000 A 
ATOM     10  N   UNL     1       5.450   3.771  16.062  0.00  0.00    +0.000 NA
ATOM     11  H   UNL     1       6.397   4.131  13.085  0.00  0.00    +0.000 HD
ATOM     12  H   UNL     1       6.115   2.696  14.001  0.00  0.00    +0.000 HD
ENDROOT
BRANCH   8  13
ATOM     13  C   UNL     1       4.182   2.998  18.714  0.00  0.00    +0.000 C 
ATOM     14  O   UNL     1       2.839   2.558  18.390  0.00  0.00    +0.000 OA
ATOM     15  C   UNL     1       2.154   2.241  19.617  0.00  0.00    +0.000 C 
ATOM     16  C   UNL     1       2.908   2.971  20.721  0.00  0.00    +0.000 C 
ATOM     17  C   UNL     1       4.334   2.883  20.226  0.00  0.00    +0.000 C 
ATOM     18  F   UNL     1       4.792   1.624  20.524  0.00  0.00    +0.000 F 
BRANCH  16  19
ATOM     19  O   UNL     1       2.721   2.365  21.992  0.00  0.00    +0.000 OA
ATOM     20  H   UNL     1       1.854   1.912  21.977  0.00  0.00    +0.000 HD
ENDBRANCH  16  19
BRANCH  15  21
ATOM     21  C   UNL     1       0.683   2.661  19.551  0.00  0.00    +0.000 C 
BRANCH  21  22
ATOM     22  O   UNL     1       0.417   3.782  20.391  0.00  0.00    +0.000 OA
ATOM     23  H   UNL     1      -0.544   3.918  20.423  0.00  0.00    +0.000 HD
ENDBRANCH  21  22
ENDBRANCH  15  21
ENDBRANCH   8  13
TORSDOF 4
ENDMDL
MODEL 8
REMARK VINA RESULT:      -7.3      1.999      3.045
REMARK  Name = 
REMARK  4 active torsions:
REMARK  status: ('A' for Active; 'I' for Inactive)
REMARK    1  A    between atoms: N_8  and  C_9
REMARK    2  A    between atoms: C_11  and  C_12
REMARK    3  A    between atoms: C_12  and  O_13
REMARK    4  A    between atoms: C_14  and  O_15
REMARK                            x       y       z     vdW  Elec       q    Type
REMARK                         _______ _______ _______ _____ _____    ______ ____
ROOT
ATOM      1  N   UNL     1       5.223   6.924  14.711  0.00  0.00    +0.000 N 
ATOM      2  C   UNL     1       5.479   6.240  15.883  0.00  0.00    +0.000 A 
ATOM      3  N   UNL     1       6.779   6.082  16.196  0.00  0.00    +0.000 NA
ATOM      4  C   UNL     1       7.102   5.415  17.333  0.00  0.00    +0.000 A 
ATOM      5  C   UNL     1       6.088   4.921  18.140  0.00  0.00    +0.000 A 
ATOM      6  N   UNL     1       6.091   4.218  19.317  0.00  0.00    +0.000 NA
ATOM      7  C   UNL     1       4.819   4.068  19.624  0.00  0.00    +0.000 A 
ATOM      8  N   UNL     1       3.993   4.625  18.682  0.00  0.00    +0.000 N 
ATOM      9  C   UNL     1       4.795   5.176  17.718  0.00  0.00    +0.000 A 
ATOM     10  N   UNL     1       4.418   5.833  16.607  0.00  0.00    +0.000 NA
ATOM     11  H   UNL     1       6.028   7.487  14.471  0.00  0.00    +0.000 HD
ATOM     12  H   UNL     1       4.329   7.386  14.756  0.00  0.00    +0.000 HD
ENDROOT
BRANCH   8  13
ATOM     13  C   UNL     1       2.548   4.738  18.738  0.00  0.00    +0.000 C 
ATOM     14  O   UNL     1       2.118   4.540  20.108  0.00  0.00    +0.000 OA
ATOM     15  C   UNL     1       1.192   3.435  20.140  0.00  0.00    +0.000 C 
ATOM     16  C   UNL     1       1.448   2.635  18.870  0.00  0.00    +0.000 C 
ATOM     17  C   UNL     1       1.790   3.729  17.884  0.00  0.00    +0.000 C 
ATOM     18  F   UNL     1       0.609   4.297  17.480  0.00  0.00    +0.000 F 
BRANCH  16  19
ATOM     19  O   UNL     1       0.317   1.867  18.481  0.00  0.00    +0.000 OA
ATOM     20  H   UNL     1       0.648   1.075  18.012  0.00  0.00    +0.000 HD
ENDBRANCH  16  19
BRANCH  15  21
ATOM     21  C   UNL     1       1.389   2.590  21.402  0.00  0.00    +0.000 C 
BRANCH  21  22
ATOM     22  O   UNL     1       2.361   3.162  22.273  0.00  0.00    +0.000 OA
ATOM     23  H   UNL     1       2.036   3.087  23.186  0.00  0.00    +0.000 HD
ENDBRANCH  21  22
ENDBRANCH  15  21
ENDBRANCH   8  13
TORSDOF 4
ENDMDL
MODEL 9
REMARK VINA RESULT:      -7.3      1.176      1.187
REMARK  Name = 
REMARK  4 active torsions:
REMARK  status: ('A' for Active; 'I' for Inactive)
REMARK    1  A    between atoms: N_8  and  C_9
REMARK    2  A    between atoms: C_11  and  C_12
REMARK    3  A    between atoms: C_12  and  O_13
REMARK    4  A    between atoms: C_14  and  O_15
REMARK                            x       y       z     vdW  Elec       q    Type
REMARK                         _______ _______ _______ _____ _____    ______ ____
ROOT
ATOM      1  N   UNL     1       7.745   4.251  18.166  0.00  0.00    +0.000 N 
ATOM      2  C   UNL     1       6.655   5.081  17.996  0.00  0.00    +0.000 A 
ATOM      3  N   UNL     1       6.809   6.071  17.096  0.00  0.00    +0.000 NA
ATOM      4  C   UNL     1       5.777   6.927  16.882  0.00  0.00    +0.000 A 
ATOM      5  C   UNL     1       4.597   6.756  17.590  0.00  0.00    +0.000 A 
ATOM      6  N   UNL     1       3.408   7.439  17.602  0.00  0.00    +0.000 NA
ATOM      7  C   UNL     1       2.648   6.778  18.451  0.00  0.00    +0.000 A 
ATOM      8  N   UNL     1       3.303   5.709  19.005  0.00  0.00    +0.000 N 
ATOM      9  C   UNL     1       4.560   5.682  18.463  0.00  0.00    +0.000 A 
ATOM     10  N   UNL     1       5.547   4.803  18.710  0.00  0.00    +0.000 NA
ATOM     11  H   UNL     1       8.339   4.308  17.349  0.00  0.00    +0.000 HD
ATOM     12  H   UNL     1       7.453   3.335  18.465  0.00  0.00    +0.000 HD
ENDROOT
BRANCH   8  13
ATOM     13  C   UNL     1       2.751   4.708  19.897  0.00  0.00    +0.000 C 
ATOM     14  O   UNL     1       3.569   3.513  19.822  0.00  0.00    +0.000 OA
ATOM     15  C   UNL     1       2.731   2.410  19.426  0.00  0.00    +0.000 C 
ATOM     16  C   UNL     1       1.506   3.028  18.766  0.00  0.00    +0.000 C 
ATOM     17  C   UNL     1       1.320   4.286  19.584  0.00  0.00    +0.000 C 
ATOM     18  F   UNL     1       0.705   3.923  20.755  0.00  0.00    +0.000 F 
BRANCH  16  19
ATOM     19  O   UNL     1       0.378   2.164  18.808  0.00  0.00    +0.000 OA
ATOM     20  H   UNL     1       0.664   1.293  18.468  0.00  0.00    +0.000 HD
ENDBRANCH  16  19
BRANCH  15  21
ATOM     21  C   UNL     1       3.477   1.464  18.481  0.00  0.00    +0.000 C 
BRANCH  21  22
ATOM     22  O   UNL     1       4.337   2.176  17.595  0.00  0.00    +0.000 OA
ATOM     23  H   UNL     1       5.257   1.942  17.807  0.00  0.00    +0.000 HD
ENDBRANCH  21  22
ENDBRANCH  15  21
ENDBRANCH   8  13
TORSDOF 4
ENDMDL
