MODEL 1
REMARK VINA RESULT:      -7.2      0.000      0.000
REMARK  Name = 
REMARK  6 active torsions:
REMARK  status: ('A' for Active; 'I' for Inactive)
REMARK    1  A    between atoms: C_3  and  C_4
REMARK    2  A    between atoms: C_4  and  S_5
REMARK    3  A    between atoms: S_5  and  C_6
REMARK    4  A    between atoms: C_6  and  N_8
REMARK    5  A    between atoms: N_11  and  C_12
REMARK    6  A    between atoms: C_12  and  C_13
REMARK                            x       y       z     vdW  Elec       q    Type
REMARK                         _______ _______ _______ _____ _____    ______ ____
ROOT
ATOM      1  C   UNL     1       1.750   3.906  19.837  0.00  0.00    +0.000 C 
ATOM      2  S   UNL     1       1.840   3.214  21.374  0.00  0.00    +0.000 S 
ENDROOT
BRANCH   1   3
ATOM      3  N   UNL     1       1.894   5.291  19.589  0.00  0.00    +0.000 N 
ATOM      4  C   UNL     1       1.360   6.300  20.534  0.00  0.00    +0.000 C 
ATOM      5  C   UNL     1       2.086   7.666  20.466  0.00  0.00    +0.000 C 
ATOM      6  N   UNL     1       2.249   8.224  19.107  0.00  0.00    +0.000 NA
ATOM      7  C   UNL     1       2.900   7.190  18.278  0.00  0.00    +0.000 C 
ATOM      8  C   UNL     1       2.169   5.836  18.241  0.00  0.00    +0.000 C 
BRANCH   6   9
ATOM      9  C   UNL     1       0.952   8.678  18.575  0.00  0.00    +0.000 C 
BRANCH   9  10
ATOM     10  C   UNL     1       0.540  10.075  18.991  0.00  0.00    +0.000 A 
ATOM     11  C   UNL     1       1.335  11.177  18.639  0.00  0.00    +0.000 A 
ATOM     12  C   UNL     1       0.937  12.474  18.964  0.00  0.00    +0.000 A 
ATOM     13  C   UNL     1      -0.260  12.684  19.645  0.00  0.00    +0.000 A 
ATOM     14  C   UNL     1      -1.053  11.598  20.011  0.00  0.00    +0.000 A 
ATOM     15  C   UNL     1      -0.654  10.299  19.688  0.00  0.00    +0.000 A 
ENDBRANCH   9  10
ENDBRANCH   6   9
ENDBRANCH   1   3
BRANCH   1  16
ATOM     16  S   UNL     1       1.621   2.888  18.385  0.00  0.00    +0.000 S 
BRANCH  16  17
ATOM     17  C   UNL     1       3.284   2.182  18.199  0.00  0.00    +0.000 C 
BRANCH  17  20
ATOM     18  O   UNL     1       5.278   3.329  19.924  0.00  0.00    +0.000 OA
ATOM     19  C   UNL     1       5.217   3.774  18.786  0.00  0.00    +0.000 A 
ATOM     20  C   UNL     1       4.258   3.246  17.785  0.00  0.00    +0.000 A 
ATOM     21  C   UNL     1       4.258   3.822  16.572  0.00  0.00    +0.000 A 
ATOM     22  O   UNL     1       5.078   4.834  16.140  0.00  0.00    +0.000 OA
ATOM     23  C   UNL     1       5.969   5.360  17.041  0.00  0.00    +0.000 A 
ATOM     24  C   UNL     1       6.770   6.415  16.602  0.00  0.00    +0.000 A 
ATOM     25  C   UNL     1       7.689   7.002  17.474  0.00  0.00    +0.000 A 
ATOM     26  C   UNL     1       7.806   6.532  18.783  0.00  0.00    +0.000 A 
ATOM     27  C   UNL     1       7.004   5.474  19.223  0.00  0.00    +0.000 A 
ATOM     28  C   UNL     1       6.085   4.887  18.347  0.00  0.00    +0.000 A 
ENDBRANCH  17  20
ENDBRANCH  16  17
ENDBRANCH   1  16
TORSDOF 6
ENDMDL
MODEL 2
REMARK VINA RESULT:      -7.0      3.677      8.868
REMARK  Name = 
REMARK  6 active torsions:
REMARK  status: ('A' for Active; 'I' for Inactive)
REMARK    1  A    between atoms: C_3  and  C_4
REMARK    2  A    between atoms: C_4  and  S_5
REMARK    3  A    between atoms: S_5  and  C_6
REMARK    4  A    between atoms: C_6  and  N_8
REMARK    5  A    between atoms: N_11  and  C_12
REMARK    6  A    between atoms: C_12  and  C_13
REMARK                            x       y       z     vdW  Elec       q    Type
REMARK                         _______ _______ _______ _____ _____    ______ ____
ROOT
ATOM      1  C   UNL     1       2.667   6.110  19.572  0.00  0.00    +0.000 C 
ATOM      2  S   UNL     1       1.972   5.110  20.742  0.00  0.00    +0.000 S 
ENDROOT
BRANCH   1   3
ATOM      3  N   UNL     1       3.608   5.665  18.615  0.00  0.00    +0.000 N 
ATOM      4  C   UNL     1       4.703   6.548  18.147  0.00  0.00    +0.000 C 
ATOM      5  C   UNL     1       5.940   5.782  17.617  0.00  0.00    +0.000 C 
ATOM      6  N   UNL     1       5.646   4.713  16.639  0.00  0.00    +0.000 NA
ATOM      7  C   UNL     1       4.640   3.820  17.249  0.00  0.00    +0.000 C 
ATOM      8  C   UNL     1       3.351   4.520  17.714  0.00  0.00    +0.000 C 
BRANCH   6   9
ATOM      9  C   UNL     1       5.221   5.291  15.352  0.00  0.00    +0.000 C 
BRANCH   9  10
ATOM     10  C   UNL     1       5.889   4.698  14.129  0.00  0.00    +0.000 A 
ATOM     11  C   UNL     1       5.226   3.723  13.369  0.00  0.00    +0.000 A 
ATOM     12  C   UNL     1       5.804   3.212  12.207  0.00  0.00    +0.000 A 
ATOM     13  C   UNL     1       7.054   3.669  11.792  0.00  0.00    +0.000 A 
ATOM     14  C   UNL     1       7.728   4.629  12.545  0.00  0.00    +0.000 A 
ATOM     15  C   UNL     1       7.151   5.139  13.710  0.00  0.00    +0.000 A 
ENDBRANCH   9  10
ENDBRANCH   6   9
ENDBRANCH   1   3
BRANCH   1  16
ATOM     16  S   UNL     1       2.123   7.792  19.371  0.00  0.00    +0.000 S 
BRANCH  16  17
ATOM     17  C   UNL     1       1.411   8.215  20.988  0.00  0.00    +0.000 C 
BRANCH  17  20
ATOM     18  O   UNL     1       0.466   9.755  23.225  0.00  0.00    +0.000 OA
ATOM     19  C   UNL     1       0.115  10.131  22.114  0.00  0.00    +0.000 A 
ATOM     20  C   UNL     1       0.560   9.446  20.875  0.00  0.00    +0.000 A 
ATOM     21  C   UNL     1       0.096   9.924  19.710  0.00  0.00    +0.000 A 
ATOM     22  O   UNL     1      -0.728  11.008  19.533  0.00  0.00    +0.000 OA
ATOM     23  C   UNL     1      -1.174  11.659  20.656  0.00  0.00    +0.000 A 
ATOM     24  C   UNL     1      -2.042  12.735  20.465  0.00  0.00    +0.000 A 
ATOM     25  C   UNL     1      -2.540  13.431  21.567  0.00  0.00    +0.000 A 
ATOM     26  C   UNL     1      -2.170  13.052  22.858  0.00  0.00    +0.000 A 
ATOM     27  C   UNL     1      -1.299  11.975  23.050  0.00  0.00    +0.000 A 
ATOM     28  C   UNL     1      -0.800  11.279  21.943  0.00  0.00    +0.000 A 
ENDBRANCH  17  20
ENDBRANCH  16  17
ENDBRANCH   1  16
TORSDOF 6
ENDMDL
MODEL 3
REMARK VINA RESULT:      -7.0      3.317      8.567
REMARK  Name = 
REMARK  6 active torsions:
REMARK  status: ('A' for Active; 'I' for Inactive)
REMARK    1  A    between atoms: C_3  and  C_4
REMARK    2  A    between atoms: C_4  and  S_5
REMARK    3  A    between atoms: S_5  and  C_6
REMARK    4  A    between atoms: C_6  and  N_8
REMARK    5  A    between atoms: N_11  and  C_12
REMARK    6  A    between atoms: C_12  and  C_13
REMARK                            x       y       z     vdW  Elec       q    Type
REMARK                         _______ _______ _______ _____ _____    ______ ____
ROOT
ATOM      1  C   UNL     1       2.823   5.350  18.731  0.00  0.00    +0.000 C 
ATOM      2  S   UNL     1       1.607   4.375  18.082  0.00  0.00    +0.000 S 
ENDROOT
BRANCH   1   3
ATOM      3  N   UNL     1       4.102   5.507  18.147  0.00  0.00    +0.000 N 
ATOM      4  C   UNL     1       4.258   5.725  16.689  0.00  0.00    +0.000 C 
ATOM      5  C   UNL     1       5.565   6.458  16.304  0.00  0.00    +0.000 C 
ATOM      6  N   UNL     1       6.797   5.907  16.908  0.00  0.00    +0.000 NA
ATOM      7  C   UNL     1       6.586   5.848  18.369  0.00  0.00    +0.000 C 
ATOM      8  C   UNL     1       5.344   5.053  18.810  0.00  0.00    +0.000 C 
BRANCH   6   9
ATOM      9  C   UNL     1       7.132   4.605  16.306  0.00  0.00    +0.000 C 
BRANCH   9  10
ATOM     10  C   UNL     1       7.025   4.548  14.796  0.00  0.00    +0.000 A 
ATOM     11  C   UNL     1       7.859   5.349  14.001  0.00  0.00    +0.000 A 
ATOM     12  C   UNL     1       7.812   5.264  12.609  0.00  0.00    +0.000 A 
ATOM     13  C   UNL     1       6.929   4.376  11.997  0.00  0.00    +0.000 A 
ATOM     14  C   UNL     1       6.086   3.584  12.774  0.00  0.00    +0.000 A 
ATOM     15  C   UNL     1       6.131   3.671  14.168  0.00  0.00    +0.000 A 
ENDBRANCH   9  10
ENDBRANCH   6   9
ENDBRANCH   1   3
BRANCH   1  16
ATOM     16  S   UNL     1       2.504   6.385  20.142  0.00  0.00    +0.000 S 
BRANCH  16  17
ATOM     17  C   UNL     1       2.049   7.985  19.413  0.00  0.00    +0.000 C 
BRANCH  17  20
ATOM     18  O   UNL     1       0.276  10.103  18.610  0.00  0.00    +0.000 OA
ATOM     19  C   UNL     1       0.308   9.839  19.805  0.00  0.00    +0.000 A 
ATOM     20  C   UNL     1       1.152   8.746  20.347  0.00  0.00    +0.000 A 
ATOM     21  C   UNL     1       1.132   8.557  21.676  0.00  0.00    +0.000 A 
ATOM     22  O   UNL     1       0.382   9.247  22.595  0.00  0.00    +0.000 OA
ATOM     23  C   UNL     1      -0.400  10.276  22.135  0.00  0.00    +0.000 A 
ATOM     24  C   UNL     1      -1.127  10.997  23.084  0.00  0.00    +0.000 A 
ATOM     25  C   UNL     1      -1.934  12.062  22.682  0.00  0.00    +0.000 A 
ATOM     26  C   UNL     1      -2.014  12.405  21.331  0.00  0.00    +0.000 A 
ATOM     27  C   UNL     1      -1.287  11.683  20.380  0.00  0.00    +0.000 A 
ATOM     28  C   UNL     1      -0.480  10.615  20.786  0.00  0.00    +0.000 A 
ENDBRANCH  17  20
ENDBRANCH  16  17
ENDBRANCH   1  16
TORSDOF 6
ENDMDL
MODEL 4
REMARK VINA RESULT:      -7.0      2.938      7.884
REMARK  Name = 
REMARK  6 active torsions:
REMARK  status: ('A' for Active; 'I' for Inactive)
REMARK    1  A    between atoms: C_3  and  C_4
REMARK    2  A    between atoms: C_4  and  S_5
REMARK    3  A    between atoms: S_5  and  C_6
REMARK    4  A    between atoms: C_6  and  N_8
REMARK    5  A    between atoms: N_11  and  C_12
REMARK    6  A    between atoms: C_12  and  C_13
REMARK                            x       y       z     vdW  Elec       q    Type
REMARK                         _______ _______ _______ _____ _____    ______ ____
ROOT
ATOM      1  C   UNL     1       2.862   4.256  19.936  0.00  0.00    +0.000 C 
ATOM      2  S   UNL     1       2.657   2.747  20.665  0.00  0.00    +0.000 S 
ENDROOT
BRANCH   1   3
ATOM      3  N   UNL     1       3.848   4.532  18.961  0.00  0.00    +0.000 N 
ATOM      4  C   UNL     1       3.476   4.857  17.563  0.00  0.00    +0.000 C 
ATOM      5  C   UNL     1       4.539   5.694  16.812  0.00  0.00    +0.000 C 
ATOM      6  N   UNL     1       5.923   5.181  16.903  0.00  0.00    +0.000 NA
ATOM      7  C   UNL     1       6.239   5.010  18.335  0.00  0.00    +0.000 C 
ATOM      8  C   UNL     1       5.259   4.112  19.111  0.00  0.00    +0.000 C 
BRANCH   6   9
ATOM      9  C   UNL     1       6.070   3.946  16.113  0.00  0.00    +0.000 C 
BRANCH   9  10
ATOM     10  C   UNL     1       6.428   4.152  14.656  0.00  0.00    +0.000 A 
ATOM     11  C   UNL     1       7.442   5.055  14.302  0.00  0.00    +0.000 A 
ATOM     12  C   UNL     1       7.822   5.211  12.969  0.00  0.00    +0.000 A 
ATOM     13  C   UNL     1       7.191   4.466  11.974  0.00  0.00    +0.000 A 
ATOM     14  C   UNL     1       6.174   3.575  12.311  0.00  0.00    +0.000 A 
ATOM     15  C   UNL     1       5.791   3.420  13.645  0.00  0.00    +0.000 A 
ENDBRANCH   9  10
ENDBRANCH   6   9
ENDBRANCH   1   3
BRANCH   1  16
ATOM     16  S   UNL     1       1.717   5.581  20.248  0.00  0.00    +0.000 S 
BRANCH  16  17
ATOM     17  C   UNL     1       2.693   7.082  19.938  0.00  0.00    +0.000 C 
BRANCH  17  20
ATOM     18  O   UNL     1       1.326   8.762  21.829  0.00  0.00    +0.000 OA
ATOM     19  C   UNL     1       1.121   8.992  20.644  0.00  0.00    +0.000 A 
ATOM     20  C   UNL     1       1.790   8.222  19.567  0.00  0.00    +0.000 A 
ATOM     21  C   UNL     1       1.476   8.539  18.300  0.00  0.00    +0.000 A 
ATOM     22  O   UNL     1       0.620   9.529  17.887  0.00  0.00    +0.000 OA
ATOM     23  C   UNL     1      -0.031  10.253  18.853  0.00  0.00    +0.000 A 
ATOM     24  C   UNL     1      -0.929  11.230  18.420  0.00  0.00    +0.000 A 
ATOM     25  C   UNL     1      -1.631  11.994  19.354  0.00  0.00    +0.000 A 
ATOM     26  C   UNL     1      -1.434  11.780  20.720  0.00  0.00    +0.000 A 
ATOM     27  C   UNL     1      -0.533  10.802  21.154  0.00  0.00    +0.000 A 
ATOM     28  C   UNL     1       0.170  10.039  20.215  0.00  0.00    +0.000 A 
ENDBRANCH  17  20
ENDBRANCH  16  17
ENDBRANCH   1  16
TORSDOF 6
ENDMDL
MODEL 5
REMARK VINA RESULT:      -6.9      2.934      7.439
REMARK  Name = 
REMARK  6 active torsions:
REMARK  status: ('A' for Active; 'I' for Inactive)
REMARK    1  A    between atoms: C_3  and  C_4
REMARK    2  A    between atoms: C_4  and  S_5
REMARK    3  A    between atoms: S_5  and  C_6
REMARK    4  A    between atoms: C_6  and  N_8
REMARK    5  A    between atoms: N_11  and  C_12
REMARK    6  A    between atoms: C_12  and  C_13
REMARK                            x       y       z     vdW  Elec       q    Type
REMARK                         _______ _______ _______ _____ _____    ______ ____
ROOT
ATOM      1  C   UNL     1       3.708   3.944  19.264  0.00  0.00    +0.000 C 
ATOM      2  S   UNL     1       4.112   2.607  20.212  0.00  0.00    +0.000 S 
ENDROOT
BRANCH   1   3
ATOM      3  N   UNL     1       4.614   4.593  18.392  0.00  0.00    +0.000 N 
ATOM      4  C   UNL     1       4.384   4.619  16.928  0.00  0.00    +0.000 C 
ATOM      5  C   UNL     1       5.061   5.812  16.211  0.00  0.00    +0.000 C 
ATOM      6  N   UNL     1       6.487   6.020  16.544  0.00  0.00    +0.000 NA
ATOM      7  C   UNL     1       6.591   6.105  18.014  0.00  0.00    +0.000 C 
ATOM      8  C   UNL     1       6.010   4.898  18.774  0.00  0.00    +0.000 C 
BRANCH   6   9
ATOM      9  C   UNL     1       7.316   4.954  15.953  0.00  0.00    +0.000 C 
BRANCH   9  10
ATOM     10  C   UNL     1       7.126   4.742  14.465  0.00  0.00    +0.000 A 
ATOM     11  C   UNL     1       7.853   5.514  13.546  0.00  0.00    +0.000 A 
ATOM     12  C   UNL     1       7.732   5.288  12.175  0.00  0.00    +0.000 A 
ATOM     13  C   UNL     1       6.882   4.288  11.707  0.00  0.00    +0.000 A 
ATOM     14  C   UNL     1       6.145   3.523  12.609  0.00  0.00    +0.000 A 
ATOM     15  C   UNL     1       6.264   3.749  13.982  0.00  0.00    +0.000 A 
ENDBRANCH   9  10
ENDBRANCH   6   9
ENDBRANCH   1   3
BRANCH   1  16
ATOM     16  S   UNL     1       2.032   4.534  19.187  0.00  0.00    +0.000 S 
BRANCH  16  17
ATOM     17  C   UNL     1       1.950   5.784  20.502  0.00  0.00    +0.000 C 
BRANCH  17  20
ATOM     18  O   UNL     1       0.880   8.114  21.804  0.00  0.00    +0.000 OA
ATOM     19  C   UNL     1       1.331   8.275  20.678  0.00  0.00    +0.000 A 
ATOM     20  C   UNL     1       1.944   7.163  19.910  0.00  0.00    +0.000 A 
ATOM     21  C   UNL     1       2.385   7.442  18.673  0.00  0.00    +0.000 A 
ATOM     22  O   UNL     1       2.362   8.663  18.045  0.00  0.00    +0.000 OA
ATOM     23  C   UNL     1       1.789   9.713  18.717  0.00  0.00    +0.000 A 
ATOM     24  C   UNL     1       1.736  10.940  18.053  0.00  0.00    +0.000 A 
ATOM     25  C   UNL     1       1.156  12.045  18.677  0.00  0.00    +0.000 A 
ATOM     26  C   UNL     1       0.630  11.923  19.965  0.00  0.00    +0.000 A 
ATOM     27  C   UNL     1       0.684  10.695  20.631  0.00  0.00    +0.000 A 
ATOM     28  C   UNL     1       1.268   9.588  20.003  0.00  0.00    +0.000 A 
ENDBRANCH  17  20
ENDBRANCH  16  17
ENDBRANCH   1  16
TORSDOF 6
ENDMDL
MODEL 6
REMARK VINA RESULT:      -6.9      2.979      8.108
REMARK  Name = 
REMARK  6 active torsions:
REMARK  status: ('A' for Active; 'I' for Inactive)
REMARK    1  A    between atoms: C_3  and  C_4
REMARK    2  A    between atoms: C_4  and  S_5
REMARK    3  A    between atoms: S_5  and  C_6
REMARK    4  A    between atoms: C_6  and  N_8
REMARK    5  A    between atoms: N_11  and  C_12
REMARK    6  A    between atoms: C_12  and  C_13
REMARK                            x       y       z     vdW  Elec       q    Type
REMARK                         _______ _______ _______ _____ _____    ______ ____
ROOT
ATOM      1  C   UNL     1       2.623   4.345  20.159  0.00  0.00    +0.000 C 
ATOM      2  S   UNL     1       2.618   2.940  21.096  0.00  0.00    +0.000 S 
ENDROOT
BRANCH   1   3
ATOM      3  N   UNL     1       3.516   4.571  19.085  0.00  0.00    +0.000 N 
ATOM      4  C   UNL     1       3.083   5.300  17.869  0.00  0.00    +0.000 C 
ATOM      5  C   UNL     1       4.243   5.980  17.103  0.00  0.00    +0.000 C 
ATOM      6  N   UNL     1       5.412   5.114  16.834  0.00  0.00    +0.000 NA
ATOM      7  C   UNL     1       5.841   4.536  18.123  0.00  0.00    +0.000 C 
ATOM      8  C   UNL     1       4.744   3.771  18.886  0.00  0.00    +0.000 C 
BRANCH   6   9
ATOM      9  C   UNL     1       5.083   4.104  15.813  0.00  0.00    +0.000 C 
BRANCH   9  10
ATOM     10  C   UNL     1       5.899   4.187  14.540  0.00  0.00    +0.000 A 
ATOM     11  C   UNL     1       5.548   3.407  13.427  0.00  0.00    +0.000 A 
ATOM     12  C   UNL     1       6.255   3.517  12.229  0.00  0.00    +0.000 A 
ATOM     13  C   UNL     1       7.322   4.407  12.131  0.00  0.00    +0.000 A 
ATOM     14  C   UNL     1       7.689   5.178  13.232  0.00  0.00    +0.000 A 
ATOM     15  C   UNL     1       6.983   5.067  14.433  0.00  0.00    +0.000 A 
ENDBRANCH   9  10
ENDBRANCH   6   9
ENDBRANCH   1   3
BRANCH   1  16
ATOM     16  S   UNL     1       1.371   5.589  20.376  0.00  0.00    +0.000 S 
BRANCH  16  17
ATOM     17  C   UNL     1       2.292   7.152  20.293  0.00  0.00    +0.000 C 
BRANCH  17  20
ATOM     18  O   UNL     1       1.456   9.073  18.323  0.00  0.00    +0.000 OA
ATOM     19  C   UNL     1       1.049   9.247  19.464  0.00  0.00    +0.000 A 
ATOM     20  C   UNL     1       1.377   8.311  20.567  0.00  0.00    +0.000 A 
ATOM     21  C   UNL     1       0.901   8.608  21.787  0.00  0.00    +0.000 A 
ATOM     22  O   UNL     1       0.107   9.676  22.123  0.00  0.00    +0.000 OA
ATOM     23  C   UNL     1      -0.206  10.574  21.134  0.00  0.00    +0.000 A 
ATOM     24  C   UNL     1      -0.980  11.677  21.497  0.00  0.00    +0.000 A 
ATOM     25  C   UNL     1      -1.324  12.632  20.539  0.00  0.00    +0.000 A 
ATOM     26  C   UNL     1      -0.893  12.484  19.220  0.00  0.00    +0.000 A 
ATOM     27  C   UNL     1      -0.118  11.378  18.855  0.00  0.00    +0.000 A 
ATOM     28  C   UNL     1       0.224  10.421  19.817  0.00  0.00    +0.000 A 
ENDBRANCH  17  20
ENDBRANCH  16  17
ENDBRANCH   1  16
TORSDOF 6
ENDMDL
MODEL 7
REMARK VINA RESULT:      -6.8      3.942      9.168
REMARK  Name = 
REMARK  6 active torsions:
REMARK  status: ('A' for Active; 'I' for Inactive)
REMARK    1  A    between atoms: C_3  and  C_4
REMARK    2  A    between atoms: C_4  and  S_5
REMARK    3  A    between atoms: S_5  and  C_6
REMARK    4  A    between atoms: C_6  and  N_8
REMARK    5  A    between atoms: N_11  and  C_12
REMARK    6  A    between atoms: C_12  and  C_13
REMARK                            x       y       z     vdW  Elec       q    Type
REMARK                         _______ _______ _______ _____ _____    ______ ____
ROOT
ATOM      1  C   UNL     1       1.298   8.810  20.332  0.00  0.00    +0.000 C 
ATOM      2  S   UNL     1       0.609   8.972  21.865  0.00  0.00    +0.000 S 
ENDROOT
BRANCH   1   3
ATOM      3  N   UNL     1       1.784   7.588  19.812  0.00  0.00    +0.000 N 
ATOM      4  C   UNL     1       1.977   6.406  20.685  0.00  0.00    +0.000 C 
ATOM      5  C   UNL     1       1.915   5.055  19.931  0.00  0.00    +0.000 C 
ATOM      6  N   UNL     1       2.749   4.976  18.713  0.00  0.00    +0.000 NA
ATOM      7  C   UNL     1       2.392   6.125  17.856  0.00  0.00    +0.000 C 
ATOM      8  C   UNL     1       2.522   7.501  18.533  0.00  0.00    +0.000 C 
BRANCH   6   9
ATOM      9  C   UNL     1       4.178   4.924  19.067  0.00  0.00    +0.000 C 
BRANCH   9  10
ATOM     10  C   UNL     1       5.131   4.869  17.891  0.00  0.00    +0.000 A 
ATOM     11  C   UNL     1       6.252   5.711  17.854  0.00  0.00    +0.000 A 
ATOM     12  C   UNL     1       7.170   5.630  16.806  0.00  0.00    +0.000 A 
ATOM     13  C   UNL     1       6.975   4.705  15.782  0.00  0.00    +0.000 A 
ATOM     14  C   UNL     1       5.859   3.871  15.800  0.00  0.00    +0.000 A 
ATOM     15  C   UNL     1       4.938   3.954  16.848  0.00  0.00    +0.000 A 
ENDBRANCH   9  10
ENDBRANCH   6   9
ENDBRANCH   1   3
BRANCH   1  16
ATOM     16  S   UNL     1       1.311  10.175  19.191  0.00  0.00    +0.000 S 
BRANCH  16  17
ATOM     17  C   UNL     1      -0.027   9.781  18.027  0.00  0.00    +0.000 C 
BRANCH  17  20
ATOM     18  O   UNL     1      -2.475   9.728  16.518  0.00  0.00    +0.000 OA
ATOM     19  C   UNL     1      -2.475  10.406  17.538  0.00  0.00    +0.000 A 
ATOM     20  C   UNL     1      -1.289  10.491  18.425  0.00  0.00    +0.000 A 
ATOM     21  C   UNL     1      -1.386  11.282  19.505  0.00  0.00    +0.000 A 
ATOM     22  O   UNL     1      -2.485  12.003  19.902  0.00  0.00    +0.000 OA
ATOM     23  C   UNL     1      -3.597  11.963  19.099  0.00  0.00    +0.000 A 
ATOM     24  C   UNL     1      -4.694  12.731  19.492  0.00  0.00    +0.000 A 
ATOM     25  C   UNL     1      -5.852  12.742  18.713  0.00  0.00    +0.000 A 
ATOM     26  C   UNL     1      -5.912  11.984  17.542  0.00  0.00    +0.000 A 
ATOM     27  C   UNL     1      -4.814  11.213  17.149  0.00  0.00    +0.000 A 
ATOM     28  C   UNL     1      -3.655  11.203  17.932  0.00  0.00    +0.000 A 
ENDBRANCH  17  20
ENDBRANCH  16  17
ENDBRANCH   1  16
TORSDOF 6
ENDMDL
MODEL 8
REMARK VINA RESULT:      -6.8      3.897      9.101
REMARK  Name = 
REMARK  6 active torsions:
REMARK  status: ('A' for Active; 'I' for Inactive)
REMARK    1  A    between atoms: C_3  and  C_4
REMARK    2  A    between atoms: C_4  and  S_5
REMARK    3  A    between atoms: S_5  and  C_6
REMARK    4  A    between atoms: C_6  and  N_8
REMARK    5  A    between atoms: N_11  and  C_12
REMARK    6  A    between atoms: C_12  and  C_13
REMARK                            x       y       z     vdW  Elec       q    Type
REMARK                         _______ _______ _______ _____ _____    ______ ____
ROOT
ATOM      1  C   UNL     1       1.526   8.391  20.134  0.00  0.00    +0.000 C 
ATOM      2  S   UNL     1       1.098   8.753  21.726  0.00  0.00    +0.000 S 
ENDROOT
BRANCH   1   3
ATOM      3  N   UNL     1       1.966   7.116  19.707  0.00  0.00    +0.000 N 
ATOM      4  C   UNL     1       2.199   6.020  20.678  0.00  0.00    +0.000 C 
ATOM      5  C   UNL     1       2.075   4.605  20.064  0.00  0.00    +0.000 C 
ATOM      6  N   UNL     1       2.832   4.394  18.811  0.00  0.00    +0.000 NA
ATOM      7  C   UNL     1       2.437   5.461  17.870  0.00  0.00    +0.000 C 
ATOM      8  C   UNL     1       2.624   6.894  18.401  0.00  0.00    +0.000 C 
BRANCH   6   9
ATOM      9  C   UNL     1       4.280   4.352  19.083  0.00  0.00    +0.000 C 
BRANCH   9  10
ATOM     10  C   UNL     1       5.168   4.560  17.873  0.00  0.00    +0.000 A 
ATOM     11  C   UNL     1       6.196   5.513  17.912  0.00  0.00    +0.000 A 
ATOM     12  C   UNL     1       7.059   5.674  16.827  0.00  0.00    +0.000 A 
ATOM     13  C   UNL     1       6.901   4.883  15.690  0.00  0.00    +0.000 A 
ATOM     14  C   UNL     1       5.875   3.941  15.634  0.00  0.00    +0.000 A 
ATOM     15  C   UNL     1       5.010   3.781  16.719  0.00  0.00    +0.000 A 
ENDBRANCH   9  10
ENDBRANCH   6   9
ENDBRANCH   1   3
BRANCH   1  16
ATOM     16  S   UNL     1       1.295   9.584  18.835  0.00  0.00    +0.000 S 
BRANCH  16  17
ATOM     17  C   UNL     1       0.338  10.909  19.626  0.00  0.00    +0.000 C 
BRANCH  17  20
ATOM     18  O   UNL     1      -1.898  12.349  20.718  0.00  0.00    +0.000 OA
ATOM     19  C   UNL     1      -2.067  11.822  19.626  0.00  0.00    +0.000 A 
ATOM     20  C   UNL     1      -0.984  11.080  18.936  0.00  0.00    +0.000 A 
ATOM     21  C   UNL     1      -1.282  10.519  17.753  0.00  0.00    +0.000 A 
ATOM     22  O   UNL     1      -2.481  10.585  17.089  0.00  0.00    +0.000 OA
ATOM     23  C   UNL     1      -3.513  11.250  17.702  0.00  0.00    +0.000 A 
ATOM     24  C   UNL     1      -4.739  11.276  17.035  0.00  0.00    +0.000 A 
ATOM     25  C   UNL     1      -5.831  11.927  17.610  0.00  0.00    +0.000 A 
ATOM     26  C   UNL     1      -5.697  12.551  18.852  0.00  0.00    +0.000 A 
ATOM     27  C   UNL     1      -4.469  12.526  19.520  0.00  0.00    +0.000 A 
ATOM     28  C   UNL     1      -3.375  11.874  18.940  0.00  0.00    +0.000 A 
ENDBRANCH  17  20
ENDBRANCH  16  17
ENDBRANCH   1  16
TORSDOF 6
ENDMDL
MODEL 9
REMARK VINA RESULT:      -6.7      2.472      4.248
REMARK  Name = 
REMARK  6 active torsions:
REMARK  status: ('A' for Active; 'I' for Inactive)
REMARK    1  A    between atoms: C_3  and  C_4
REMARK    2  A    between atoms: C_4  and  S_5
REMARK    3  A    between atoms: S_5  and  C_6
REMARK    4  A    between atoms: C_6  and  N_8
REMARK    5  A    between atoms: N_11  and  C_12
REMARK    6  A    between atoms: C_12  and  C_13
REMARK                            x       y       z     vdW  Elec       q    Type
REMARK                         _______ _______ _______ _____ _____    ______ ____
ROOT
ATOM      1  C   UNL     1       5.489   6.436  17.332  0.00  0.00    +0.000 C 
ATOM      2  S   UNL     1       7.021   6.782  17.951  0.00  0.00    +0.000 S 
ENDROOT
BRANCH   1   3
ATOM      3  N   UNL     1       4.284   6.897  17.911  0.00  0.00    +0.000 N 
ATOM      4  C   UNL     1       3.498   7.985  17.282  0.00  0.00    +0.000 C 
ATOM      5  C   UNL     1       1.993   7.960  17.647  0.00  0.00    +0.000 C 
ATOM      6  N   UNL     1       1.698   7.838  19.090  0.00  0.00    +0.000 NA
ATOM      7  C   UNL     1       2.427   6.656  19.593  0.00  0.00    +0.000 C 
ATOM      8  C   UNL     1       3.944   6.673  19.333  0.00  0.00    +0.000 C 
BRANCH   6   9
ATOM      9  C   UNL     1       2.038   9.086  19.795  0.00  0.00    +0.000 C 
BRANCH   9  10
ATOM     10  C   UNL     1       1.045   9.518  20.854  0.00  0.00    +0.000 A 
ATOM     11  C   UNL     1       1.094   8.951  22.137  0.00  0.00    +0.000 A 
ATOM     12  C   UNL     1       0.224   9.382  23.139  0.00  0.00    +0.000 A 
ATOM     13  C   UNL     1      -0.706  10.385  22.869  0.00  0.00    +0.000 A 
ATOM     14  C   UNL     1      -0.773  10.947  21.596  0.00  0.00    +0.000 A 
ATOM     15  C   UNL     1       0.096  10.515  20.591  0.00  0.00    +0.000 A 
ENDBRANCH   9  10
ENDBRANCH   6   9
ENDBRANCH   1   3
BRANCH   1  16
ATOM     16  S   UNL     1       5.304   5.578  15.785  0.00  0.00    +0.000 S 
BRANCH  16  17
ATOM     17  C   UNL     1       5.155   3.834  16.269  0.00  0.00    +0.000 C 
BRANCH  17  20
ATOM     18  O   UNL     1       5.486   3.396  19.092  0.00  0.00    +0.000 OA
ATOM     19  C   UNL     1       4.336   3.408  18.671  0.00  0.00    +0.000 A 
ATOM     20  C   UNL     1       4.025   3.658  17.242  0.00  0.00    +0.000 A 
ATOM     21  C   UNL     1       2.733   3.625  16.880  0.00  0.00    +0.000 A 
ATOM     22  O   UNL     1       1.653   3.415  17.701  0.00  0.00    +0.000 OA
ATOM     23  C   UNL     1       1.900   3.164  19.027  0.00  0.00    +0.000 A 
ATOM     24  C   UNL     1       0.796   2.913  19.844  0.00  0.00    +0.000 A 
ATOM     25  C   UNL     1       0.981   2.640  21.200  0.00  0.00    +0.000 A 
ATOM     26  C   UNL     1       2.269   2.619  21.738  0.00  0.00    +0.000 A 
ATOM     27  C   UNL     1       3.375   2.871  20.921  0.00  0.00    +0.000 A 
ATOM     28  C   UNL     1       3.187   3.146  19.562  0.00  0.00    +0.000 A 
ENDBRANCH  17  20
ENDBRANCH  16  17
ENDBRANCH   1  16
TORSDOF 6
ENDMDL
