MODEL 1
REMARK VINA RESULT:      -8.6      0.000      0.000
REMARK  Name = 
REMARK  7 active torsions:
REMARK  status: ('A' for Active; 'I' for Inactive)
REMARK    1  A    between atoms: C_1  and  C_2
REMARK    2  A    between atoms: C_2  and  N_3
REMARK    3  A    between atoms: C_8  and  C_9
REMARK    4  A    between atoms: C_10  and  C_11
REMARK    5  A    between atoms: C_14  and  O_15
REMARK    6  A    between atoms: O_15  and  C_16
REMARK    7  A    between atoms: C_16  and  C_17
REMARK                            x       y       z     vdW  Elec       q    Type
REMARK                         _______ _______ _______ _____ _____    ______ ____
ROOT
ATOM      1  C   UNL     1       3.391   5.798  17.986  0.00  0.00    +0.000 A 
ATOM      2  C   UNL     1       3.040   4.552  17.468  0.00  0.00    +0.000 A 
ATOM      3  C   UNL     1       1.774   3.779  17.546  0.00  0.00    +0.000 C 
ATOM      4  N   UNL     1       4.061   4.012  16.740  0.00  0.00    +0.000 NA
ATOM      5  C   UNL     1       5.025   4.906  16.738  0.00  0.00    +0.000 A 
ATOM      6  C   UNL     1       6.290   4.933  16.061  0.00  0.00    +0.000 A 
ATOM      7  C   UNL     1       7.130   5.967  16.261  0.00  0.00    +0.000 A 
ATOM      8  C   UNL     1       6.786   7.066  17.143  0.00  0.00    +0.000 A 
ATOM      9  C   UNL     1       5.594   7.057  17.759  0.00  0.00    +0.000 A 
ATOM     10  N   UNL     1       4.698   6.003  17.536  0.00  0.00    +0.000 N 
ENDROOT
BRANCH   1  16
ATOM     11  N   UNL     1       0.257  10.863  20.607  0.00  0.00    +0.000 N 
ATOM     12  C   UNL     1       1.089  11.300  19.494  0.00  0.00    +0.000 C 
ATOM     13  C   UNL     1       1.149  10.242  18.398  0.00  0.00    +0.000 C 
ATOM     14  C   UNL     1       1.521   8.914  18.998  0.00  0.00    +0.000 A 
ATOM     15  C   UNL     1       2.172   7.945  18.229  0.00  0.00    +0.000 A 
ATOM     16  C   UNL     1       2.595   6.731  18.792  0.00  0.00    +0.000 A 
ATOM     17  C   UNL     1       2.295   6.481  20.138  0.00  0.00    +0.000 A 
ATOM     18  C   UNL     1       1.553   7.397  20.889  0.00  0.00    +0.000 A 
ATOM     19  C   UNL     1       1.184   8.619  20.325  0.00  0.00    +0.000 A 
ATOM     20  C   UNL     1       0.367   9.574  21.120  0.00  0.00    +0.000 C 
ATOM     21  O   UNL     1      -0.214   9.186  22.127  0.00  0.00    +0.000 OA
BRANCH  11  23
ATOM     22  C   UNL     1      -1.399  12.526  19.940  0.00  0.00    +0.000 C 
ATOM     23  C   UNL     1      -0.803  11.731  21.092  0.00  0.00    +0.000 C 
ENDBRANCH  11  23
ENDBRANCH   1  16
BRANCH   6  24
ATOM     24  O   UNL     1       6.653   3.917  15.192  0.00  0.00    +0.000 OA
BRANCH  24  25
ATOM     25  C   UNL     1       7.084   4.324  13.889  0.00  0.00    +0.000 C 
BRANCH  25  26
ATOM     26  C   UNL     1       6.253   3.609  12.853  0.00  0.00    +0.000 A 
ATOM     27  C   UNL     1       4.922   3.982  12.622  0.00  0.00    +0.000 A 
ATOM     28  C   UNL     1       4.158   3.303  11.674  0.00  0.00    +0.000 A 
ATOM     29  C   UNL     1       4.715   2.254  10.945  0.00  0.00    +0.000 A 
ATOM     30  C   UNL     1       6.047   1.888  11.155  0.00  0.00    +0.000 A 
ATOM     31  C   UNL     1       6.810   2.564  12.103  0.00  0.00    +0.000 A 
ENDBRANCH  25  26
ENDBRANCH  24  25
ENDBRANCH   6  24
TORSDOF 5
ENDMDL
MODEL 2
REMARK VINA RESULT:      -8.0      2.172      3.847
REMARK  Name = 
REMARK  7 active torsions:
REMARK  status: ('A' for Active; 'I' for Inactive)
REMARK    1  A    between atoms: C_1  and  C_2
REMARK    2  A    between atoms: C_2  and  N_3
REMARK    3  A    between atoms: C_8  and  C_9
REMARK    4  A    between atoms: C_10  and  C_11
REMARK    5  A    between atoms: C_14  and  O_15
REMARK    6  A    between atoms: O_15  and  C_16
REMARK    7  A    between atoms: C_16  and  C_17
REMARK                            x       y       z     vdW  Elec       q    Type
REMARK                         _______ _______ _______ _____ _____    ______ ____
ROOT
ATOM      1  C   UNL     1       1.960   7.401  19.586  0.00  0.00    +0.000 A 
ATOM      2  C   UNL     1       2.694   7.516  18.406  0.00  0.00    +0.000 A 
ATOM      3  C   UNL     1       2.958   8.683  17.526  0.00  0.00    +0.000 C 
ATOM      4  N   UNL     1       3.280   6.330  18.069  0.00  0.00    +0.000 NA
ATOM      5  C   UNL     1       2.983   5.485  19.031  0.00  0.00    +0.000 A 
ATOM      6  C   UNL     1       3.400   4.132  19.266  0.00  0.00    +0.000 A 
ATOM      7  C   UNL     1       2.911   3.459  20.326  0.00  0.00    +0.000 A 
ATOM      8  C   UNL     1       1.973   4.072  21.248  0.00  0.00    +0.000 A 
ATOM      9  C   UNL     1       1.600   5.345  21.047  0.00  0.00    +0.000 A 
ATOM     10  N   UNL     1       2.124   6.066  19.966  0.00  0.00    +0.000 N 
ENDROOT
BRANCH   1  16
ATOM     11  N   UNL     1      -1.487  12.545  21.585  0.00  0.00    +0.000 N 
ATOM     12  C   UNL     1      -1.097  12.705  20.190  0.00  0.00    +0.000 C 
ATOM     13  C   UNL     1      -1.076  11.365  19.465  0.00  0.00    +0.000 C 
ATOM     14  C   UNL     1      -0.261  10.376  20.252  0.00  0.00    +0.000 A 
ATOM     15  C   UNL     1       0.377   9.311  19.611  0.00  0.00    +0.000 A 
ATOM     16  C   UNL     1       1.204   8.424  20.318  0.00  0.00    +0.000 A 
ATOM     17  C   UNL     1       1.328   8.591  21.704  0.00  0.00    +0.000 A 
ATOM     18  C   UNL     1       0.613   9.588  22.372  0.00  0.00    +0.000 A 
ATOM     19  C   UNL     1      -0.166  10.491  21.645  0.00  0.00    +0.000 A 
ATOM     20  C   UNL     1      -0.950  11.527  22.367  0.00  0.00    +0.000 C 
ATOM     21  O   UNL     1      -1.144  11.415  23.572  0.00  0.00    +0.000 OA
BRANCH  11  23
ATOM     22  C   UNL     1      -3.910  12.782  21.743  0.00  0.00    +0.000 C 
ATOM     23  C   UNL     1      -2.559  13.365  22.126  0.00  0.00    +0.000 C 
ENDBRANCH  11  23
ENDBRANCH   1  16
BRANCH   6  24
ATOM     24  O   UNL     1       4.310   3.514  18.425  0.00  0.00    +0.000 OA
BRANCH  24  25
ATOM     25  C   UNL     1       5.610   4.110  18.353  0.00  0.00    +0.000 C 
BRANCH  25  26
ATOM     26  C   UNL     1       5.970   4.324  16.905  0.00  0.00    +0.000 A 
ATOM     27  C   UNL     1       5.058   4.015  15.887  0.00  0.00    +0.000 A 
ATOM     28  C   UNL     1       5.408   4.201  14.551  0.00  0.00    +0.000 A 
ATOM     29  C   UNL     1       6.665   4.704  14.218  0.00  0.00    +0.000 A 
ATOM     30  C   UNL     1       7.573   5.032  15.227  0.00  0.00    +0.000 A 
ATOM     31  C   UNL     1       7.226   4.844  16.562  0.00  0.00    +0.000 A 
ENDBRANCH  25  26
ENDBRANCH  24  25
ENDBRANCH   6  24
TORSDOF 5
ENDMDL
MODEL 3
REMARK VINA RESULT:      -8.0      1.086      1.740
REMARK  Name = 
REMARK  7 active torsions:
REMARK  status: ('A' for Active; 'I' for Inactive)
REMARK    1  A    between atoms: C_1  and  C_2
REMARK    2  A    between atoms: C_2  and  N_3
REMARK    3  A    between atoms: C_8  and  C_9
REMARK    4  A    between atoms: C_10  and  C_11
REMARK    5  A    between atoms: C_14  and  O_15
REMARK    6  A    between atoms: O_15  and  C_16
REMARK    7  A    between atoms: C_16  and  C_17
REMARK                            x       y       z     vdW  Elec       q    Type
REMARK                         _______ _______ _______ _____ _____    ______ ____
ROOT
ATOM      1  C   UNL     1       3.132   6.454  17.934  0.00  0.00    +0.000 A 
ATOM      2  C   UNL     1       2.675   5.181  17.595  0.00  0.00    +0.000 A 
ATOM      3  C   UNL     1       1.339   4.548  17.735  0.00  0.00    +0.000 C 
ATOM      4  N   UNL     1       3.659   4.444  16.999  0.00  0.00    +0.000 NA
ATOM      5  C   UNL     1       4.704   5.235  16.902  0.00  0.00    +0.000 A 
ATOM      6  C   UNL     1       5.984   5.042  16.282  0.00  0.00    +0.000 A 
ATOM      7  C   UNL     1       6.914   6.013  16.359  0.00  0.00    +0.000 A 
ATOM      8  C   UNL     1       6.655   7.261  17.052  0.00  0.00    +0.000 A 
ATOM      9  C   UNL     1       5.451   7.457  17.612  0.00  0.00    +0.000 A 
ATOM     10  N   UNL     1       4.464   6.467  17.513  0.00  0.00    +0.000 N 
ENDROOT
BRANCH   1  16
ATOM     11  N   UNL     1      -0.282  10.487  21.732  0.00  0.00    +0.000 N 
ATOM     12  C   UNL     1      -0.275   9.143  22.294  0.00  0.00    +0.000 C 
ATOM     13  C   UNL     1       1.045   8.434  22.018  0.00  0.00    +0.000 C 
ATOM     14  C   UNL     1       1.368   8.520  20.551  0.00  0.00    +0.000 A 
ATOM     15  C   UNL     1       2.160   7.545  19.939  0.00  0.00    +0.000 A 
ATOM     16  C   UNL     1       2.408   7.568  18.558  0.00  0.00    +0.000 A 
ATOM     17  C   UNL     1       1.893   8.633  17.807  0.00  0.00    +0.000 A 
ATOM     18  C   UNL     1       1.188   9.670  18.424  0.00  0.00    +0.000 A 
ATOM     19  C   UNL     1       0.911   9.604  19.791  0.00  0.00    +0.000 A 
ATOM     20  C   UNL     1       0.190  10.727  20.446  0.00  0.00    +0.000 C 
ATOM     21  O   UNL     1       0.099  11.808  19.874  0.00  0.00    +0.000 OA
BRANCH  11  23
ATOM     22  C   UNL     1      -2.084  11.466  23.054  0.00  0.00    +0.000 C 
ATOM     23  C   UNL     1      -0.647  11.612  22.576  0.00  0.00    +0.000 C 
ENDBRANCH  11  23
ENDBRANCH   1  16
BRANCH   6  24
ATOM     24  O   UNL     1       6.270   3.876  15.591  0.00  0.00    +0.000 OA
BRANCH  24  25
ATOM     25  C   UNL     1       7.026   4.026  14.384  0.00  0.00    +0.000 C 
BRANCH  25  26
ATOM     26  C   UNL     1       6.196   3.539  13.223  0.00  0.00    +0.000 A 
ATOM     27  C   UNL     1       4.883   3.995  13.041  0.00  0.00    +0.000 A 
ATOM     28  C   UNL     1       4.119   3.524  11.974  0.00  0.00    +0.000 A 
ATOM     29  C   UNL     1       4.659   2.604  11.077  0.00  0.00    +0.000 A 
ATOM     30  C   UNL     1       5.972   2.159  11.240  0.00  0.00    +0.000 A 
ATOM     31  C   UNL     1       6.736   2.626  12.307  0.00  0.00    +0.000 A 
ENDBRANCH  25  26
ENDBRANCH  24  25
ENDBRANCH   6  24
TORSDOF 5
ENDMDL
MODEL 4
REMARK VINA RESULT:      -7.9      1.330      2.187
REMARK  Name = 
REMARK  7 active torsions:
REMARK  status: ('A' for Active; 'I' for Inactive)
REMARK    1  A    between atoms: C_1  and  C_2
REMARK    2  A    between atoms: C_2  and  N_3
REMARK    3  A    between atoms: C_8  and  C_9
REMARK    4  A    between atoms: C_10  and  C_11
REMARK    5  A    between atoms: C_14  and  O_15
REMARK    6  A    between atoms: O_15  and  C_16
REMARK    7  A    between atoms: C_16  and  C_17
REMARK                            x       y       z     vdW  Elec       q    Type
REMARK                         _______ _______ _______ _____ _____    ______ ____
ROOT
ATOM      1  C   UNL     1       3.204   6.496  18.149  0.00  0.00    +0.000 A 
ATOM      2  C   UNL     1       2.807   5.188  17.877  0.00  0.00    +0.000 A 
ATOM      3  C   UNL     1       1.480   4.528  17.967  0.00  0.00    +0.000 C 
ATOM      4  N   UNL     1       3.851   4.438  17.415  0.00  0.00    +0.000 NA
ATOM      5  C   UNL     1       4.881   5.251  17.335  0.00  0.00    +0.000 A 
ATOM      6  C   UNL     1       6.208   5.050  16.829  0.00  0.00    +0.000 A 
ATOM      7  C   UNL     1       7.106   6.052  16.899  0.00  0.00    +0.000 A 
ATOM      8  C   UNL     1       6.764   7.341  17.470  0.00  0.00    +0.000 A 
ATOM      9  C   UNL     1       5.516   7.542  17.923  0.00  0.00    +0.000 A 
ATOM     10  N   UNL     1       4.564   6.518  17.828  0.00  0.00    +0.000 N 
ENDROOT
BRANCH   1  16
ATOM     11  N   UNL     1      -0.511  10.739  21.397  0.00  0.00    +0.000 N 
ATOM     12  C   UNL     1      -0.448   9.468  22.108  0.00  0.00    +0.000 C 
ATOM     13  C   UNL     1       0.914   8.806  21.939  0.00  0.00    +0.000 C 
ATOM     14  C   UNL     1       1.269   8.745  20.479  0.00  0.00    +0.000 A 
ATOM     15  C   UNL     1       2.126   7.751  19.998  0.00  0.00    +0.000 A 
ATOM     16  C   UNL     1       2.408   7.633  18.628  0.00  0.00    +0.000 A 
ATOM     17  C   UNL     1       1.858   8.577  17.751  0.00  0.00    +0.000 A 
ATOM     18  C   UNL     1       1.085   9.637  18.233  0.00  0.00    +0.000 A 
ATOM     19  C   UNL     1       0.776   9.710  19.592  0.00  0.00    +0.000 A 
ATOM     20  C   UNL     1      -0.019  10.858  20.101  0.00  0.00    +0.000 C 
ATOM     21  O   UNL     1      -0.151  11.861  19.409  0.00  0.00    +0.000 OA
BRANCH  11  23
ATOM     22  C   UNL     1      -1.956  11.558  23.183  0.00  0.00    +0.000 C 
ATOM     23  C   UNL     1      -0.955  11.930  22.100  0.00  0.00    +0.000 C 
ENDBRANCH  11  23
ENDBRANCH   1  16
BRANCH   6  24
ATOM     24  O   UNL     1       6.574   3.844  16.254  0.00  0.00    +0.000 OA
BRANCH  24  25
ATOM     25  C   UNL     1       5.775   3.401  15.152  0.00  0.00    +0.000 C 
BRANCH  25  26
ATOM     26  C   UNL     1       6.401   3.883  13.868  0.00  0.00    +0.000 A 
ATOM     27  C   UNL     1       7.334   4.929  13.876  0.00  0.00    +0.000 A 
ATOM     28  C   UNL     1       7.894   5.379  12.681  0.00  0.00    +0.000 A 
ATOM     29  C   UNL     1       7.536   4.785  11.472  0.00  0.00    +0.000 A 
ATOM     30  C   UNL     1       6.621   3.730  11.457  0.00  0.00    +0.000 A 
ATOM     31  C   UNL     1       6.059   3.281  12.649  0.00  0.00    +0.000 A 
ENDBRANCH  25  26
ENDBRANCH  24  25
ENDBRANCH   6  24
TORSDOF 5
ENDMDL
MODEL 5
REMARK VINA RESULT:      -7.8      4.719      7.416
REMARK  Name = 
REMARK  7 active torsions:
REMARK  status: ('A' for Active; 'I' for Inactive)
REMARK    1  A    between atoms: C_1  and  C_2
REMARK    2  A    between atoms: C_2  and  N_3
REMARK    3  A    between atoms: C_8  and  C_9
REMARK    4  A    between atoms: C_10  and  C_11
REMARK    5  A    between atoms: C_14  and  O_15
REMARK    6  A    between atoms: O_15  and  C_16
REMARK    7  A    between atoms: C_16  and  C_17
REMARK                            x       y       z     vdW  Elec       q    Type
REMARK                         _______ _______ _______ _____ _____    ______ ____
ROOT
ATOM      1  C   UNL     1      -0.088  10.442  21.213  0.00  0.00    +0.000 A 
ATOM      2  C   UNL     1       0.418   9.552  22.159  0.00  0.00    +0.000 A 
ATOM      3  C   UNL     1       0.141   9.399  23.610  0.00  0.00    +0.000 C 
ATOM      4  N   UNL     1       1.285   8.664  21.589  0.00  0.00    +0.000 NA
ATOM      5  C   UNL     1       1.297   8.935  20.303  0.00  0.00    +0.000 A 
ATOM      6  C   UNL     1       1.941   8.276  19.202  0.00  0.00    +0.000 A 
ATOM      7  C   UNL     1       1.825   8.786  17.961  0.00  0.00    +0.000 A 
ATOM      8  C   UNL     1       1.055   9.989  17.702  0.00  0.00    +0.000 A 
ATOM      9  C   UNL     1       0.430  10.594  18.724  0.00  0.00    +0.000 A 
ATOM     10  N   UNL     1       0.518  10.056  20.015  0.00  0.00    +0.000 N 
ENDROOT
BRANCH   1  16
ATOM     11  N   UNL     1      -4.913  14.443  22.967  0.00  0.00    +0.000 N 
ATOM     12  C   UNL     1      -5.024  13.171  23.670  0.00  0.00    +0.000 C 
ATOM     13  C   UNL     1      -3.652  12.587  23.980  0.00  0.00    +0.000 C 
ATOM     14  C   UNL     1      -2.820  12.559  22.728  0.00  0.00    +0.000 A 
ATOM     15  C   UNL     1      -1.797  11.619  22.575  0.00  0.00    +0.000 A 
ATOM     16  C   UNL     1      -1.061  11.528  21.383  0.00  0.00    +0.000 A 
ATOM     17  C   UNL     1      -1.333  12.449  20.362  0.00  0.00    +0.000 A 
ATOM     18  C   UNL     1      -2.281  13.460  20.542  0.00  0.00    +0.000 A 
ATOM     19  C   UNL     1      -3.036  13.503  21.715  0.00  0.00    +0.000 A 
ATOM     20  C   UNL     1      -4.018  14.601  21.913  0.00  0.00    +0.000 C 
ATOM     21  O   UNL     1      -3.963  15.601  21.207  0.00  0.00    +0.000 OA
BRANCH  11  23
ATOM     22  C   UNL     1      -4.834  16.286  24.563  0.00  0.00    +0.000 C 
ATOM     23  C   UNL     1      -5.634  15.601  23.466  0.00  0.00    +0.000 C 
ENDBRANCH  11  23
ENDBRANCH   1  16
BRANCH   6  24
ATOM     24  O   UNL     1       2.668   7.114  19.397  0.00  0.00    +0.000 OA
BRANCH  24  25
ATOM     25  C   UNL     1       2.394   6.038  18.493  0.00  0.00    +0.000 C 
BRANCH  25  26
ATOM     26  C   UNL     1       2.022   4.813  19.289  0.00  0.00    +0.000 A 
ATOM     27  C   UNL     1       1.473   3.689  18.658  0.00  0.00    +0.000 A 
ATOM     28  C   UNL     1       1.117   2.568  19.407  0.00  0.00    +0.000 A 
ATOM     29  C   UNL     1       1.312   2.555  20.787  0.00  0.00    +0.000 A 
ATOM     30  C   UNL     1       1.877   3.664  21.421  0.00  0.00    +0.000 A 
ATOM     31  C   UNL     1       2.231   4.785  20.675  0.00  0.00    +0.000 A 
ENDBRANCH  25  26
ENDBRANCH  24  25
ENDBRANCH   6  24
TORSDOF 5
ENDMDL
MODEL 6
REMARK VINA RESULT:      -7.8      3.351      4.908
REMARK  Name = 
REMARK  7 active torsions:
REMARK  status: ('A' for Active; 'I' for Inactive)
REMARK    1  A    between atoms: C_1  and  C_2
REMARK    2  A    between atoms: C_2  and  N_3
REMARK    3  A    between atoms: C_8  and  C_9
REMARK    4  A    between atoms: C_10  and  C_11
REMARK    5  A    between atoms: C_14  and  O_15
REMARK    6  A    between atoms: O_15  and  C_16
REMARK    7  A    between atoms: C_16  and  C_17
REMARK                            x       y       z     vdW  Elec       q    Type
REMARK                         _______ _______ _______ _____ _____    ______ ____
ROOT
ATOM      1  C   UNL     1       1.703   7.990  19.528  0.00  0.00    +0.000 A 
ATOM      2  C   UNL     1       2.380   8.200  18.327  0.00  0.00    +0.000 A 
ATOM      3  C   UNL     1       2.527   9.413  17.483  0.00  0.00    +0.000 C 
ATOM      4  N   UNL     1       3.037   7.072  17.925  0.00  0.00    +0.000 NA
ATOM      5  C   UNL     1       2.838   6.175  18.865  0.00  0.00    +0.000 A 
ATOM      6  C   UNL     1       3.359   4.848  19.033  0.00  0.00    +0.000 A 
ATOM      7  C   UNL     1       2.961   4.105  20.083  0.00  0.00    +0.000 A 
ATOM      8  C   UNL     1       2.017   4.614  21.061  0.00  0.00    +0.000 A 
ATOM      9  C   UNL     1       1.547   5.864  20.922  0.00  0.00    +0.000 A 
ATOM     10  N   UNL     1       1.976   6.658  19.850  0.00  0.00    +0.000 N 
ENDROOT
BRANCH   1  16
ATOM     11  N   UNL     1      -2.025  12.796  21.841  0.00  0.00    +0.000 N 
ATOM     12  C   UNL     1      -1.701  13.032  20.440  0.00  0.00    +0.000 C 
ATOM     13  C   UNL     1      -1.612  11.724  19.664  0.00  0.00    +0.000 C 
ATOM     14  C   UNL     1      -0.698  10.770  20.384  0.00  0.00    +0.000 A 
ATOM     15  C   UNL     1      -0.011   9.777  19.681  0.00  0.00    +0.000 A 
ATOM     16  C   UNL     1       0.904   8.929  20.324  0.00  0.00    +0.000 A 
ATOM     17  C   UNL     1       1.069   9.056  21.710  0.00  0.00    +0.000 A 
ATOM     18  C   UNL     1       0.310   9.975  22.440  0.00  0.00    +0.000 A 
ATOM     19  C   UNL     1      -0.558  10.843  21.776  0.00  0.00    +0.000 A 
ATOM     20  C   UNL     1      -1.386  11.793  22.564  0.00  0.00    +0.000 C 
ATOM     21  O   UNL     1      -1.525  11.625  23.770  0.00  0.00    +0.000 OA
BRANCH  11  23
ATOM     22  C   UNL     1      -4.451  12.852  22.091  0.00  0.00    +0.000 C 
ATOM     23  C   UNL     1      -3.130  13.516  22.450  0.00  0.00    +0.000 C 
ENDBRANCH  11  23
ENDBRANCH   1  16
BRANCH   6  24
ATOM     24  O   UNL     1       4.278   4.327  18.137  0.00  0.00    +0.000 OA
BRANCH  24  25
ATOM     25  C   UNL     1       5.608   4.138  18.635  0.00  0.00    +0.000 C 
BRANCH  25  26
ATOM     26  C   UNL     1       6.420   5.374  18.342  0.00  0.00    +0.000 A 
ATOM     27  C   UNL     1       6.142   6.163  17.217  0.00  0.00    +0.000 A 
ATOM     28  C   UNL     1       6.910   7.294  16.947  0.00  0.00    +0.000 A 
ATOM     29  C   UNL     1       7.955   7.652  17.798  0.00  0.00    +0.000 A 
ATOM     30  C   UNL     1       8.227   6.882  18.930  0.00  0.00    +0.000 A 
ATOM     31  C   UNL     1       7.462   5.751  19.201  0.00  0.00    +0.000 A 
ENDBRANCH  25  26
ENDBRANCH  24  25
ENDBRANCH   6  24
TORSDOF 5
ENDMDL
MODEL 7
REMARK VINA RESULT:      -7.8      4.337      7.141
REMARK  Name = 
REMARK  7 active torsions:
REMARK  status: ('A' for Active; 'I' for Inactive)
REMARK    1  A    between atoms: C_1  and  C_2
REMARK    2  A    between atoms: C_2  and  N_3
REMARK    3  A    between atoms: C_8  and  C_9
REMARK    4  A    between atoms: C_10  and  C_11
REMARK    5  A    between atoms: C_14  and  O_15
REMARK    6  A    between atoms: O_15  and  C_16
REMARK    7  A    between atoms: C_16  and  C_17
REMARK                            x       y       z     vdW  Elec       q    Type
REMARK                         _______ _______ _______ _____ _____    ______ ____
ROOT
ATOM      1  C   UNL     1       0.024  10.492  21.151  0.00  0.00    +0.000 A 
ATOM      2  C   UNL     1       0.327   9.514  22.097  0.00  0.00    +0.000 A 
ATOM      3  C   UNL     1      -0.119   9.336  23.502  0.00  0.00    +0.000 C 
ATOM      4  N   UNL     1       1.152   8.559  21.574  0.00  0.00    +0.000 NA
ATOM      5  C   UNL     1       1.331   8.877  20.312  0.00  0.00    +0.000 A 
ATOM      6  C   UNL     1       2.017   8.195  19.251  0.00  0.00    +0.000 A 
ATOM      7  C   UNL     1       2.090   8.764  18.032  0.00  0.00    +0.000 A 
ATOM      8  C   UNL     1       1.485  10.054  17.758  0.00  0.00    +0.000 A 
ATOM      9  C   UNL     1       0.821  10.684  18.740  0.00  0.00    +0.000 A 
ATOM     10  N   UNL     1       0.712  10.089  20.004  0.00  0.00    +0.000 N 
ENDROOT
BRANCH   1  16
ATOM     11  N   UNL     1      -3.425  15.680  23.033  0.00  0.00    +0.000 N 
ATOM     12  C   UNL     1      -2.825  15.022  24.186  0.00  0.00    +0.000 C 
ATOM     13  C   UNL     1      -1.464  14.430  23.840  0.00  0.00    +0.000 C 
ATOM     14  C   UNL     1      -1.582  13.582  22.604  0.00  0.00    +0.000 A 
ATOM     15  C   UNL     1      -0.698  12.521  22.383  0.00  0.00    +0.000 A 
ATOM     16  C   UNL     1      -0.841  11.672  21.275  0.00  0.00    +0.000 A 
ATOM     17  C   UNL     1      -1.857  11.949  20.351  0.00  0.00    +0.000 A 
ATOM     18  C   UNL     1      -2.681  13.068  20.505  0.00  0.00    +0.000 A 
ATOM     19  C   UNL     1      -2.555  13.871  21.639  0.00  0.00    +0.000 A 
ATOM     20  C   UNL     1      -3.412  15.078  21.779  0.00  0.00    +0.000 C 
ATOM     21  O   UNL     1      -4.002  15.522  20.801  0.00  0.00    +0.000 OA
BRANCH  11  23
ATOM     22  C   UNL     1      -5.328  17.047  23.715  0.00  0.00    +0.000 C 
ATOM     23  C   UNL     1      -3.911  17.044  23.161  0.00  0.00    +0.000 C 
ENDBRANCH  11  23
ENDBRANCH   1  16
BRANCH   6  24
ATOM     24  O   UNL     1       2.591   6.952  19.460  0.00  0.00    +0.000 OA
BRANCH  24  25
ATOM     25  C   UNL     1       2.639   6.080  18.326  0.00  0.00    +0.000 C 
BRANCH  25  26
ATOM     26  C   UNL     1       2.117   4.724  18.729  0.00  0.00    +0.000 A 
ATOM     27  C   UNL     1       2.204   3.634  17.852  0.00  0.00    +0.000 A 
ATOM     28  C   UNL     1       1.702   2.389  18.229  0.00  0.00    +0.000 A 
ATOM     29  C   UNL     1       1.117   2.219  19.483  0.00  0.00    +0.000 A 
ATOM     30  C   UNL     1       1.043   3.296  20.370  0.00  0.00    +0.000 A 
ATOM     31  C   UNL     1       1.542   4.540  19.994  0.00  0.00    +0.000 A 
ENDBRANCH  25  26
ENDBRANCH  24  25
ENDBRANCH   6  24
TORSDOF 5
ENDMDL
MODEL 8
REMARK VINA RESULT:      -7.7      2.981     11.215
REMARK  Name = 
REMARK  7 active torsions:
REMARK  status: ('A' for Active; 'I' for Inactive)
REMARK    1  A    between atoms: C_1  and  C_2
REMARK    2  A    between atoms: C_2  and  N_3
REMARK    3  A    between atoms: C_8  and  C_9
REMARK    4  A    between atoms: C_10  and  C_11
REMARK    5  A    between atoms: C_14  and  O_15
REMARK    6  A    between atoms: O_15  and  C_16
REMARK    7  A    between atoms: C_16  and  C_17
REMARK                            x       y       z     vdW  Elec       q    Type
REMARK                         _______ _______ _______ _____ _____    ______ ____
ROOT
ATOM      1  C   UNL     1       0.619   9.490  19.998  0.00  0.00    +0.000 A 
ATOM      2  C   UNL     1       0.539   9.718  21.372  0.00  0.00    +0.000 A 
ATOM      3  C   UNL     1       1.401   9.264  22.493  0.00  0.00    +0.000 C 
ATOM      4  N   UNL     1      -0.510  10.537  21.678  0.00  0.00    +0.000 NA
ATOM      5  C   UNL     1      -1.059  10.877  20.533  0.00  0.00    +0.000 A 
ATOM      6  C   UNL     1      -2.125  11.788  20.227  0.00  0.00    +0.000 A 
ATOM      7  C   UNL     1      -2.533  11.930  18.951  0.00  0.00    +0.000 A 
ATOM      8  C   UNL     1      -1.916  11.188  17.868  0.00  0.00    +0.000 A 
ATOM      9  C   UNL     1      -0.902  10.354  18.146  0.00  0.00    +0.000 A 
ATOM     10  N   UNL     1      -0.448  10.219  19.465  0.00  0.00    +0.000 N 
ENDROOT
BRANCH   1  16
ATOM     11  N   UNL     1       5.123   5.323  17.831  0.00  0.00    +0.000 N 
ATOM     12  C   UNL     1       4.942   5.175  19.269  0.00  0.00    +0.000 C 
ATOM     13  C   UNL     1       3.493   5.418  19.674  0.00  0.00    +0.000 C 
ATOM     14  C   UNL     1       3.020   6.724  19.096  0.00  0.00    +0.000 A 
ATOM     15  C   UNL     1       2.000   7.448  19.720  0.00  0.00    +0.000 A 
ATOM     16  C   UNL     1       1.598   8.704  19.239  0.00  0.00    +0.000 A 
ATOM     17  C   UNL     1       2.203   9.195  18.074  0.00  0.00    +0.000 A 
ATOM     18  C   UNL     1       3.150   8.434  17.383  0.00  0.00    +0.000 A 
ATOM     19  C   UNL     1       3.571   7.209  17.903  0.00  0.00    +0.000 A 
ATOM     20  C   UNL     1       4.553   6.391  17.145  0.00  0.00    +0.000 C 
ATOM     21  O   UNL     1       4.767   6.638  15.964  0.00  0.00    +0.000 OA
BRANCH  11  23
ATOM     22  C   UNL     1       7.279   4.520  17.020  0.00  0.00    +0.000 C 
ATOM     23  C   UNL     1       5.781   4.267  17.081  0.00  0.00    +0.000 C 
ENDBRANCH  11  23
ENDBRANCH   1  16
BRANCH   6  24
ATOM     24  O   UNL     1      -2.730  12.534  21.225  0.00  0.00    +0.000 OA
BRANCH  24  25
ATOM     25  C   UNL     1      -3.943  13.204  20.865  0.00  0.00    +0.000 C 
BRANCH  25  26
ATOM     26  C   UNL     1      -4.981  12.940  21.927  0.00  0.00    +0.000 A 
ATOM     27  C   UNL     1      -6.306  12.651  21.577  0.00  0.00    +0.000 A 
ATOM     28  C   UNL     1      -7.261  12.425  22.568  0.00  0.00    +0.000 A 
ATOM     29  C   UNL     1      -6.900  12.478  23.914  0.00  0.00    +0.000 A 
ATOM     30  C   UNL     1      -5.577  12.746  24.271  0.00  0.00    +0.000 A 
ATOM     31  C   UNL     1      -4.623  12.974  23.283  0.00  0.00    +0.000 A 
ENDBRANCH  25  26
ENDBRANCH  24  25
ENDBRANCH   6  24
TORSDOF 5
ENDMDL
MODEL 9
REMARK VINA RESULT:      -7.7      3.000     11.045
REMARK  Name = 
REMARK  7 active torsions:
REMARK  status: ('A' for Active; 'I' for Inactive)
REMARK    1  A    between atoms: C_1  and  C_2
REMARK    2  A    between atoms: C_2  and  N_3
REMARK    3  A    between atoms: C_8  and  C_9
REMARK    4  A    between atoms: C_10  and  C_11
REMARK    5  A    between atoms: C_14  and  O_15
REMARK    6  A    between atoms: O_15  and  C_16
REMARK    7  A    between atoms: C_16  and  C_17
REMARK                            x       y       z     vdW  Elec       q    Type
REMARK                         _______ _______ _______ _____ _____    ______ ____
ROOT
ATOM      1  C   UNL     1       0.581   9.540  19.917  0.00  0.00    +0.000 A 
ATOM      2  C   UNL     1       0.485   9.782  21.286  0.00  0.00    +0.000 A 
ATOM      3  C   UNL     1       1.334   9.341  22.422  0.00  0.00    +0.000 C 
ATOM      4  N   UNL     1      -0.569  10.604  21.572  0.00  0.00    +0.000 NA
ATOM      5  C   UNL     1      -1.104  10.931  20.417  0.00  0.00    +0.000 A 
ATOM      6  C   UNL     1      -2.168  11.837  20.088  0.00  0.00    +0.000 A 
ATOM      7  C   UNL     1      -2.561  11.965  18.807  0.00  0.00    +0.000 A 
ATOM      8  C   UNL     1      -1.930  11.212  17.739  0.00  0.00    +0.000 A 
ATOM      9  C   UNL     1      -0.919  10.382  18.038  0.00  0.00    +0.000 A 
ATOM     10  N   UNL     1      -0.480  10.262  19.363  0.00  0.00    +0.000 N 
ENDROOT
BRANCH   1  16
ATOM     11  N   UNL     1       5.103   5.346  17.843  0.00  0.00    +0.000 N 
ATOM     12  C   UNL     1       4.896   5.202  19.278  0.00  0.00    +0.000 C 
ATOM     13  C   UNL     1       3.442   5.454  19.656  0.00  0.00    +0.000 C 
ATOM     14  C   UNL     1       2.985   6.760  19.066  0.00  0.00    +0.000 A 
ATOM     15  C   UNL     1       1.957   7.491  19.669  0.00  0.00    +0.000 A 
ATOM     16  C   UNL     1       1.570   8.747  19.177  0.00  0.00    +0.000 A 
ATOM     17  C   UNL     1       2.198   9.232  18.022  0.00  0.00    +0.000 A 
ATOM     18  C   UNL     1       3.153   8.464  17.350  0.00  0.00    +0.000 A 
ATOM     19  C   UNL     1       3.559   7.239  17.882  0.00  0.00    +0.000 A 
ATOM     20  C   UNL     1       4.551   6.414  17.143  0.00  0.00    +0.000 C 
ATOM     21  O   UNL     1       4.787   6.656  15.965  0.00  0.00    +0.000 OA
BRANCH  11  23
ATOM     22  C   UNL     1       7.270   4.527  17.078  0.00  0.00    +0.000 C 
ATOM     23  C   UNL     1       5.769   4.284  17.107  0.00  0.00    +0.000 C 
ENDBRANCH  11  23
ENDBRANCH   1  16
BRANCH   6  24
ATOM     24  O   UNL     1      -2.785  12.593  21.071  0.00  0.00    +0.000 OA
BRANCH  24  25
ATOM     25  C   UNL     1      -3.846  13.450  20.635  0.00  0.00    +0.000 C 
BRANCH  25  26
ATOM     26  C   UNL     1      -5.145  12.958  21.222  0.00  0.00    +0.000 A 
ATOM     27  C   UNL     1      -5.489  13.255  22.548  0.00  0.00    +0.000 A 
ATOM     28  C   UNL     1      -6.684  12.780  23.085  0.00  0.00    +0.000 A 
ATOM     29  C   UNL     1      -7.549  12.013  22.305  0.00  0.00    +0.000 A 
ATOM     30  C   UNL     1      -7.222  11.728  20.977  0.00  0.00    +0.000 A 
ATOM     31  C   UNL     1      -6.027  12.200  20.440  0.00  0.00    +0.000 A 
ENDBRANCH  25  26
ENDBRANCH  24  25
ENDBRANCH   6  24
TORSDOF 5
ENDMDL
