MODEL 1
REMARK VINA RESULT:      -5.7      0.000      0.000
REMARK  Name = 
REMARK  1 active torsions:
REMARK  status: ('A' for Active; 'I' for Inactive)
REMARK    1  A    between atoms: C_4  and  C_5
REMARK                            x       y       z     vdW  Elec       q    Type
REMARK                         _______ _______ _______ _____ _____    ______ ____
ROOT
ATOM      1  C   UNL     1       6.619   4.109  15.559  0.00  0.00    +0.000 C 
ATOM      2  O   UNL     1       7.816   4.702  16.107  0.00  0.00    +0.000 OA
ATOM      3  O   UNL     1       7.497   6.098  16.430  0.00  0.00    +0.000 OA
ATOM      4  C   UNL     1       6.865   6.079  17.718  0.00  0.00    +0.000 C 
ATOM      5  C   UNL     1       5.647   5.218  17.682  0.00  0.00    +0.000 C 
ATOM      6  O   UNL     1       4.762   5.446  16.579  0.00  0.00    +0.000 OA
ATOM      7  C   UNL     1       5.508   4.216  16.571  0.00  0.00    +0.000 C 
ENDROOT
BRANCH   1  11
ATOM      8  C   UNL     1       7.150   4.341  11.926  0.00  0.00    +0.000 C 
ATOM      9  C   UNL     1       6.171   3.227  12.240  0.00  0.00    +0.000 C 
ATOM     10  C   UNL     1       5.324   3.816  13.356  0.00  0.00    +0.000 C 
ATOM     11  C   UNL     1       6.281   4.697  14.178  0.00  0.00    +0.000 C 
ATOM     12  C   UNL     1       7.539   4.866  13.302  0.00  0.00    +0.000 C 
ENDBRANCH   1  11
TORSDOF 1
ENDMDL
MODEL 2
REMARK VINA RESULT:      -5.6      2.689      4.873
REMARK  Name = 
REMARK  1 active torsions:
REMARK  status: ('A' for Active; 'I' for Inactive)
REMARK    1  A    between atoms: C_4  and  C_5
REMARK                            x       y       z     vdW  Elec       q    Type
REMARK                         _______ _______ _______ _____ _____    ______ ____
ROOT
ATOM      1  C   UNL     1       4.681   5.087  17.665  0.00  0.00    +0.000 C 
ATOM      2  O   UNL     1       5.673   5.447  18.650  0.00  0.00    +0.000 OA
ATOM      3  O   UNL     1       6.670   4.370  18.673  0.00  0.00    +0.000 OA
ATOM      4  C   UNL     1       7.578   4.640  17.595  0.00  0.00    +0.000 C 
ATOM      5  C   UNL     1       6.840   4.694  16.300  0.00  0.00    +0.000 C 
ATOM      6  O   UNL     1       5.926   3.617  16.063  0.00  0.00    +0.000 OA
ATOM      7  C   UNL     1       5.353   4.910  16.328  0.00  0.00    +0.000 C 
ENDROOT
BRANCH   1  11
ATOM      8  C   UNL     1       1.798   3.626  19.425  0.00  0.00    +0.000 C 
ATOM      9  C   UNL     1       1.417   3.975  17.999  0.00  0.00    +0.000 C 
ATOM     10  C   UNL     1       2.650   3.576  17.205  0.00  0.00    +0.000 C 
ATOM     11  C   UNL     1       3.847   3.877  18.124  0.00  0.00    +0.000 C 
ATOM     12  C   UNL     1       3.245   4.092  19.527  0.00  0.00    +0.000 C 
ENDBRANCH   1  11
TORSDOF 1
ENDMDL
MODEL 3
REMARK VINA RESULT:      -5.5      3.603      4.762
REMARK  Name = 
REMARK  1 active torsions:
REMARK  status: ('A' for Active; 'I' for Inactive)
REMARK    1  A    between atoms: C_4  and  C_5
REMARK                            x       y       z     vdW  Elec       q    Type
REMARK                         _______ _______ _______ _____ _____    ______ ____
ROOT
ATOM      1  C   UNL     1       4.669   4.951  18.722  0.00  0.00    +0.000 C 
ATOM      2  O   UNL     1       5.912   4.648  19.391  0.00  0.00    +0.000 OA
ATOM      3  O   UNL     1       6.903   4.354  18.348  0.00  0.00    +0.000 OA
ATOM      4  C   UNL     1       7.403   5.621  17.898  0.00  0.00    +0.000 C 
ATOM      5  C   UNL     1       6.284   6.465  17.387  0.00  0.00    +0.000 C 
ATOM      6  O   UNL     1       5.383   5.815  16.481  0.00  0.00    +0.000 OA
ATOM      7  C   UNL     1       4.879   6.119  17.794  0.00  0.00    +0.000 C 
ENDROOT
BRANCH   1  11
ATOM      8  C   UNL     1       2.531   1.956  18.774  0.00  0.00    +0.000 C 
ATOM      9  C   UNL     1       1.719   3.171  18.365  0.00  0.00    +0.000 C 
ATOM     10  C   UNL     1       2.672   3.933  17.459  0.00  0.00    +0.000 C 
ATOM     11  C   UNL     1       4.075   3.701  18.048  0.00  0.00    +0.000 C 
ATOM     12  C   UNL     1       3.916   2.532  19.042  0.00  0.00    +0.000 C 
ENDBRANCH   1  11
TORSDOF 1
ENDMDL
MODEL 4
REMARK VINA RESULT:      -5.5      3.562      6.025
REMARK  Name = 
REMARK  1 active torsions:
REMARK  status: ('A' for Active; 'I' for Inactive)
REMARK    1  A    between atoms: C_4  and  C_5
REMARK                            x       y       z     vdW  Elec       q    Type
REMARK                         _______ _______ _______ _____ _____    ______ ____
ROOT
ATOM      1  C   UNL     1       3.640   4.924  18.892  0.00  0.00    +0.000 C 
ATOM      2  O   UNL     1       4.905   5.053  19.576  0.00  0.00    +0.000 OA
ATOM      3  O   UNL     1       5.816   4.063  18.987  0.00  0.00    +0.000 OA
ATOM      4  C   UNL     1       6.348   4.663  17.798  0.00  0.00    +0.000 C 
ATOM      5  C   UNL     1       5.243   5.032  16.867  0.00  0.00    +0.000 C 
ATOM      6  O   UNL     1       4.260   4.014  16.641  0.00  0.00    +0.000 OA
ATOM      7  C   UNL     1       3.850   5.154  17.417  0.00  0.00    +0.000 C 
ENDROOT
BRANCH   1  11
ATOM      8  C   UNL     1       1.519   2.852  21.071  0.00  0.00    +0.000 C 
ATOM      9  C   UNL     1       0.661   3.612  20.076  0.00  0.00    +0.000 C 
ATOM     10  C   UNL     1       1.474   3.539  18.794  0.00  0.00    +0.000 C 
ATOM     11  C   UNL     1       2.947   3.594  19.236  0.00  0.00    +0.000 C 
ATOM     12  C   UNL     1       2.930   3.330  20.756  0.00  0.00    +0.000 C 
ENDBRANCH   1  11
TORSDOF 1
ENDMDL
MODEL 5
REMARK VINA RESULT:      -5.4      3.578      5.089
REMARK  Name = 
REMARK  1 active torsions:
REMARK  status: ('A' for Active; 'I' for Inactive)
REMARK    1  A    between atoms: C_4  and  C_5
REMARK                            x       y       z     vdW  Elec       q    Type
REMARK                         _______ _______ _______ _____ _____    ______ ____
ROOT
ATOM      1  C   UNL     1       2.555   4.390  17.585  0.00  0.00    +0.000 C 
ATOM      2  O   UNL     1       2.211   3.078  17.089  0.00  0.00    +0.000 OA
ATOM      3  O   UNL     1       2.696   2.103  18.075  0.00  0.00    +0.000 OA
ATOM      4  C   UNL     1       1.691   2.029  19.095  0.00  0.00    +0.000 C 
ATOM      5  C   UNL     1       1.468   3.375  19.700  0.00  0.00    +0.000 C 
ATOM      6  O   UNL     1       2.653   4.089  20.071  0.00  0.00    +0.000 OA
ATOM      7  C   UNL     1       1.921   4.588  18.938  0.00  0.00    +0.000 C 
ENDROOT
BRANCH   1  11
ATOM      8  C   UNL     1       5.653   5.305  15.823  0.00  0.00    +0.000 C 
ATOM      9  C   UNL     1       4.976   6.548  16.369  0.00  0.00    +0.000 C 
ATOM     10  C   UNL     1       4.474   6.098  17.731  0.00  0.00    +0.000 C 
ATOM     11  C   UNL     1       4.076   4.621  17.556  0.00  0.00    +0.000 C 
ATOM     12  C   UNL     1       4.699   4.184  16.214  0.00  0.00    +0.000 C 
ENDBRANCH   1  11
TORSDOF 1
ENDMDL
MODEL 6
REMARK VINA RESULT:      -5.4      3.761      5.292
REMARK  Name = 
REMARK  1 active torsions:
REMARK  status: ('A' for Active; 'I' for Inactive)
REMARK    1  A    between atoms: C_4  and  C_5
REMARK                            x       y       z     vdW  Elec       q    Type
REMARK                         _______ _______ _______ _____ _____    ______ ____
ROOT
ATOM      1  C   UNL     1       3.583   2.755  18.514  0.00  0.00    +0.000 C 
ATOM      2  O   UNL     1       3.461   2.696  19.952  0.00  0.00    +0.000 OA
ATOM      3  O   UNL     1       2.391   3.627  20.333  0.00  0.00    +0.000 OA
ATOM      4  C   UNL     1       1.158   2.916  20.155  0.00  0.00    +0.000 C 
ATOM      5  C   UNL     1       1.025   2.457  18.741  0.00  0.00    +0.000 C 
ATOM      6  O   UNL     1       1.302   3.446  17.742  0.00  0.00    +0.000 OA
ATOM      7  C   UNL     1       2.262   2.385  17.890  0.00  0.00    +0.000 C 
ENDROOT
BRANCH   1  11
ATOM      8  C   UNL     1       6.402   4.986  17.729  0.00  0.00    +0.000 C 
ATOM      9  C   UNL     1       6.029   4.167  16.508  0.00  0.00    +0.000 C 
ATOM     10  C   UNL     1       4.510   4.146  16.558  0.00  0.00    +0.000 C 
ATOM     11  C   UNL     1       4.147   4.111  18.053  0.00  0.00    +0.000 C 
ATOM     12  C   UNL     1       5.446   4.477  18.800  0.00  0.00    +0.000 C 
ENDBRANCH   1  11
TORSDOF 1
ENDMDL
MODEL 7
REMARK VINA RESULT:      -5.4      2.938      4.525
REMARK  Name = 
REMARK  1 active torsions:
REMARK  status: ('A' for Active; 'I' for Inactive)
REMARK    1  A    between atoms: C_4  and  C_5
REMARK                            x       y       z     vdW  Elec       q    Type
REMARK                         _______ _______ _______ _____ _____    ______ ____
ROOT
ATOM      1  C   UNL     1       4.781   4.630  16.781  0.00  0.00    +0.000 C 
ATOM      2  O   UNL     1       4.684   6.036  16.468  0.00  0.00    +0.000 OA
ATOM      3  O   UNL     1       5.304   6.770  17.579  0.00  0.00    +0.000 OA
ATOM      4  C   UNL     1       6.716   6.766  17.325  0.00  0.00    +0.000 C 
ATOM      5  C   UNL     1       7.219   5.365  17.228  0.00  0.00    +0.000 C 
ATOM      6  O   UNL     1       6.791   4.481  18.270  0.00  0.00    +0.000 OA
ATOM      7  C   UNL     1       6.232   4.263  16.963  0.00  0.00    +0.000 C 
ENDROOT
BRANCH   1  11
ATOM      8  C   UNL     1       1.537   3.592  18.172  0.00  0.00    +0.000 C 
ATOM      9  C   UNL     1       2.343   2.374  17.762  0.00  0.00    +0.000 C 
ATOM     10  C   UNL     1       3.756   2.736  18.189  0.00  0.00    +0.000 C 
ATOM     11  C   UNL     1       3.877   4.254  17.968  0.00  0.00    +0.000 C 
ATOM     12  C   UNL     1       2.432   4.757  17.771  0.00  0.00    +0.000 C 
ENDBRANCH   1  11
TORSDOF 1
ENDMDL
MODEL 8
REMARK VINA RESULT:      -5.4      3.492      4.909
REMARK  Name = 
REMARK  1 active torsions:
REMARK  status: ('A' for Active; 'I' for Inactive)
REMARK    1  A    between atoms: C_4  and  C_5
REMARK                            x       y       z     vdW  Elec       q    Type
REMARK                         _______ _______ _______ _____ _____    ______ ____
ROOT
ATOM      1  C   UNL     1       3.854   3.853  18.453  0.00  0.00    +0.000 C 
ATOM      2  O   UNL     1       3.109   4.516  19.497  0.00  0.00    +0.000 OA
ATOM      3  O   UNL     1       1.696   4.499  19.096  0.00  0.00    +0.000 OA
ATOM      4  C   UNL     1       1.183   3.217  19.484  0.00  0.00    +0.000 C 
ATOM      5  C   UNL     1       1.965   2.128  18.829  0.00  0.00    +0.000 C 
ATOM      6  O   UNL     1       2.190   2.289  17.423  0.00  0.00    +0.000 OA
ATOM      7  C   UNL     1       3.329   2.450  18.286  0.00  0.00    +0.000 C 
ENDROOT
BRANCH   1  11
ATOM      8  C   UNL     1       5.228   6.549  16.358  0.00  0.00    +0.000 C 
ATOM      9  C   UNL     1       6.000   5.263  16.128  0.00  0.00    +0.000 C 
ATOM     10  C   UNL     1       4.912   4.202  16.134  0.00  0.00    +0.000 C 
ATOM     11  C   UNL     1       3.871   4.685  17.159  0.00  0.00    +0.000 C 
ATOM     12  C   UNL     1       4.215   6.164  17.430  0.00  0.00    +0.000 C 
ENDBRANCH   1  11
TORSDOF 1
ENDMDL
MODEL 9
REMARK VINA RESULT:      -5.4      3.467      6.089
REMARK  Name = 
REMARK  1 active torsions:
REMARK  status: ('A' for Active; 'I' for Inactive)
REMARK    1  A    between atoms: C_4  and  C_5
REMARK                            x       y       z     vdW  Elec       q    Type
REMARK                         _______ _______ _______ _____ _____    ______ ____
ROOT
ATOM      1  C   UNL     1       4.120   3.407  18.850  0.00  0.00    +0.000 C 
ATOM      2  O   UNL     1       4.176   2.843  17.522  0.00  0.00    +0.000 OA
ATOM      3  O   UNL     1       4.140   3.964  16.574  0.00  0.00    +0.000 OA
ATOM      4  C   UNL     1       5.487   4.448  16.473  0.00  0.00    +0.000 C 
ATOM      5  C   UNL     1       5.989   4.863  17.815  0.00  0.00    +0.000 C 
ATOM      6  O   UNL     1       5.104   5.695  18.575  0.00  0.00    +0.000 OA
ATOM      7  C   UNL     1       5.285   4.345  19.037  0.00  0.00    +0.000 C 
ENDROOT
BRANCH   1  11
ATOM      8  C   UNL     1       0.615   3.158  19.942  0.00  0.00    +0.000 C 
ATOM      9  C   UNL     1       1.520   3.385  21.138  0.00  0.00    +0.000 C 
ATOM     10  C   UNL     1       2.532   4.393  20.618  0.00  0.00    +0.000 C 
ATOM     11  C   UNL     1       2.745   4.035  19.136  0.00  0.00    +0.000 C 
ATOM     12  C   UNL     1       1.589   3.080  18.773  0.00  0.00    +0.000 C 
ENDBRANCH   1  11
TORSDOF 1
ENDMDL
