MODEL 1
REMARK VINA RESULT:      -7.4      0.000      0.000
REMARK  Name = 
REMARK  16 active torsions:
REMARK  status: ('A' for Active; 'I' for Inactive)
REMARK    1  A    between atoms: C_1  and  C_2
REMARK    2  A    between atoms: C_2  and  C_3
REMARK    3  A    between atoms: C_4  and  C_5
REMARK    4  A    between atoms: C_8  and  O_9
REMARK    5  A    between atoms: C_10  and  C_11
REMARK    6  A    between atoms: C_11  and  C_12
REMARK    7  A    between atoms: C_13  and  C_14
REMARK    8  A    between atoms: C_13  and  C_15
REMARK    9  A    between atoms: C_15  and  N_16
REMARK   10  A    between atoms: N_16  and  C_17
REMARK   11  A    between atoms: N_16  and  S_23
REMARK   12  A    between atoms: C_17  and  C_18
REMARK   13  A    between atoms: C_18  and  P_19
REMARK   14  A    between atoms: P_19  and  O_21
REMARK   15  A    between atoms: P_19  and  O_22
REMARK   16  A    between atoms: S_23  and  N_24
REMARK                            x       y       z     vdW  Elec       q    Type
REMARK                         _______ _______ _______ _____ _____    ______ ____
ROOT
ATOM      1  C   UNL     1       1.852   8.208  18.870  0.00  0.00    +0.000 C 
ATOM      2  C   UNL     1       2.813   7.336  18.497  0.00  0.00    +0.000 C 
ATOM      3  C   UNL     1       3.504   7.420  17.167  0.00  0.00    +0.000 C 
ENDROOT
BRANCH   1   4
ATOM      4  C   UNL     1       1.318   9.411  18.130  0.00  0.00    +0.000 C 
BRANCH   4  11
ATOM      5  C   UNL     1       0.346  10.786  20.145  0.00  0.00    +0.000 A 
ATOM      6  C   UNL     1       0.286  12.005  20.893  0.00  0.00    +0.000 A 
ATOM      7  C   UNL     1      -0.524  12.208  22.148  0.00  0.00    +0.000 C 
ATOM      8  C   UNL     1       1.064  13.077  20.463  0.00  0.00    +0.000 A 
ATOM      9  C   UNL     1       1.844  12.973  19.337  0.00  0.00    +0.000 A 
ATOM     10  C   UNL     1       1.913  11.825  18.570  0.00  0.00    +0.000 A 
ATOM     11  C   UNL     1       1.157  10.697  18.951  0.00  0.00    +0.000 A 
ATOM     12  C   UNL     1       2.563  14.220  19.159  0.00  0.00    +0.000 C 
ATOM     13  O   UNL     1       3.350  14.445  18.265  0.00  0.00    +0.000 OA
ATOM     14  O   UNL     1       2.204  15.054  20.180  0.00  0.00    +0.000 OA
ATOM     15  C   UNL     1       1.257  14.422  21.055  0.00  0.00    +0.000 C 
BRANCH   5  17
ATOM     16  C   UNL     1       0.361   8.942  21.862  0.00  0.00    +0.000 C 
ATOM     17  C   UNL     1      -0.375   9.562  20.685  0.00  0.00    +0.000 C 
ENDBRANCH   5  17
BRANCH  10  18
ATOM     18  O   UNL     1       2.735  11.773  17.478  0.00  0.00    +0.000 OA
ATOM     19  H   UNL     1       3.241  10.931  17.494  0.00  0.00    +0.000 HD
ENDBRANCH  10  18
ENDBRANCH   4  11
ENDBRANCH   1   4
BRANCH   2  20
ATOM     20  C   UNL     1       3.092   6.118  19.355  0.00  0.00    +0.000 C 
BRANCH  20  21
ATOM     21  N   UNL     1       3.988   5.107  18.722  0.00  0.00    +0.000 NA
BRANCH  21  22
ATOM     22  S   UNL     1       3.209   3.600  18.503  0.00  0.00    +0.000 S 
ATOM     23  O   UNL     1       2.155   3.480  19.479  0.00  0.00    +0.000 OA
ATOM     24  O   UNL     1       2.984   3.409  17.092  0.00  0.00    +0.000 OA
BRANCH  22  25
ATOM     25  N   UNL     1       4.415   2.568  18.949  0.00  0.00    +0.000 NA
ATOM     26  H   UNL     1       4.208   1.589  18.791  0.00  0.00    +0.000 HD
ATOM     27  H   UNL     1       4.945   2.837  19.770  0.00  0.00    +0.000 HD
ENDBRANCH  22  25
ENDBRANCH  21  22
BRANCH  21  28
ATOM     28  C   UNL     1       5.348   4.964  19.396  0.00  0.00    +0.000 C 
BRANCH  28  29
ATOM     29  C   UNL     1       6.452   5.657  18.616  0.00  0.00    +0.000 C 
BRANCH  29  30
ATOM     30  P   UNL     1       7.101   4.903  17.157  0.00  0.00    +0.000 P 
ATOM     31  O   UNL     1       7.467   5.849  16.062  0.00  0.00    +0.000 OA
BRANCH  30  32
ATOM     32  O   UNL     1       8.332   3.994  17.622  0.00  0.00    +0.000 OA
ATOM     33  H   UNL     1       8.240   3.052  17.379  0.00  0.00    +0.000 HD
ENDBRANCH  30  32
BRANCH  30  34
ATOM     34  O   UNL     1       6.048   3.803  16.668  0.00  0.00    +0.000 OA
ATOM     35  H   UNL     1       5.647   3.357  17.440  0.00  0.00    +0.000 HD
ENDBRANCH  30  34
ENDBRANCH  29  30
ENDBRANCH  28  29
ENDBRANCH  21  28
ENDBRANCH  20  21
ENDBRANCH   2  20
TORSDOF 13
ENDMDL
MODEL 2
REMARK VINA RESULT:      -7.4      1.923      2.485
REMARK  Name = 
REMARK  16 active torsions:
REMARK  status: ('A' for Active; 'I' for Inactive)
REMARK    1  A    between atoms: C_1  and  C_2
REMARK    2  A    between atoms: C_2  and  C_3
REMARK    3  A    between atoms: C_4  and  C_5
REMARK    4  A    between atoms: C_8  and  O_9
REMARK    5  A    between atoms: C_10  and  C_11
REMARK    6  A    between atoms: C_11  and  C_12
REMARK    7  A    between atoms: C_13  and  C_14
REMARK    8  A    between atoms: C_13  and  C_15
REMARK    9  A    between atoms: C_15  and  N_16
REMARK   10  A    between atoms: N_16  and  C_17
REMARK   11  A    between atoms: N_16  and  S_23
REMARK   12  A    between atoms: C_17  and  C_18
REMARK   13  A    between atoms: C_18  and  P_19
REMARK   14  A    between atoms: P_19  and  O_21
REMARK   15  A    between atoms: P_19  and  O_22
REMARK   16  A    between atoms: S_23  and  N_24
REMARK                            x       y       z     vdW  Elec       q    Type
REMARK                         _______ _______ _______ _____ _____    ______ ____
ROOT
ATOM      1  C   UNL     1       2.960   7.860  18.400  0.00  0.00    +0.000 C 
ATOM      2  C   UNL     1       3.208   6.533  18.395  0.00  0.00    +0.000 C 
ATOM      3  C   UNL     1       2.176   5.522  17.987  0.00  0.00    +0.000 C 
ENDROOT
BRANCH   1   4
ATOM      4  C   UNL     1       1.710   8.597  17.981  0.00  0.00    +0.000 C 
BRANCH   4  11
ATOM      5  C   UNL     1       0.624   9.798  20.047  0.00  0.00    +0.000 A 
ATOM      6  C   UNL     1       0.372  10.999  20.786  0.00  0.00    +0.000 A 
ATOM      7  C   UNL     1      -0.374  11.066  22.094  0.00  0.00    +0.000 C 
ATOM      8  C   UNL     1       0.887  12.194  20.290  0.00  0.00    +0.000 A 
ATOM      9  C   UNL     1       1.592  12.221  19.112  0.00  0.00    +0.000 A 
ATOM     10  C   UNL     1       1.837  11.091  18.353  0.00  0.00    +0.000 A 
ATOM     11  C   UNL     1       1.351   9.844  18.799  0.00  0.00    +0.000 A 
ATOM     12  C   UNL     1       2.032  13.581  18.869  0.00  0.00    +0.000 C 
ATOM     13  O   UNL     1       2.693  13.937  17.918  0.00  0.00    +0.000 OA
ATOM     14  O   UNL     1       1.584  14.351  19.905  0.00  0.00    +0.000 OA
ATOM     15  C   UNL     1       0.846  13.565  20.853  0.00  0.00    +0.000 C 
BRANCH   5  17
ATOM     16  C   UNL     1       1.341   7.801  21.406  0.00  0.00    +0.000 C 
ATOM     17  C   UNL     1       0.203   8.468  20.651  0.00  0.00    +0.000 C 
ENDBRANCH   5  17
BRANCH  10  18
ATOM     18  O   UNL     1       2.575  11.178  17.204  0.00  0.00    +0.000 OA
ATOM     19  H   UNL     1       1.968  11.237  16.433  0.00  0.00    +0.000 HD
ENDBRANCH  10  18
ENDBRANCH   4  11
ENDBRANCH   1   4
BRANCH   2  20
ATOM     20  C   UNL     1       4.502   6.012  18.990  0.00  0.00    +0.000 C 
BRANCH  20  21
ATOM     21  N   UNL     1       5.583   5.760  17.994  0.00  0.00    +0.000 NA
BRANCH  21  22
ATOM     22  S   UNL     1       7.127   5.673  18.725  0.00  0.00    +0.000 S 
ATOM     23  O   UNL     1       7.903   6.810  18.302  0.00  0.00    +0.000 OA
ATOM     24  O   UNL     1       6.949   5.329  20.115  0.00  0.00    +0.000 OA
BRANCH  22  25
ATOM     25  N   UNL     1       7.745   4.344  17.970  0.00  0.00    +0.000 NA
ATOM     26  H   UNL     1       7.396   4.196  17.030  0.00  0.00    +0.000 HD
ATOM     27  H   UNL     1       7.925   3.543  18.564  0.00  0.00    +0.000 HD
ENDBRANCH  22  25
ENDBRANCH  21  22
BRANCH  21  28
ATOM     28  C   UNL     1       5.564   6.700  16.793  0.00  0.00    +0.000 C 
BRANCH  28  29
ATOM     29  C   UNL     1       5.243   5.972  15.499  0.00  0.00    +0.000 C 
BRANCH  29  30
ATOM     30  P   UNL     1       6.213   4.578  15.014  0.00  0.00    +0.000 P 
ATOM     31  O   UNL     1       7.678   4.837  14.888  0.00  0.00    +0.000 OA
BRANCH  30  32
ATOM     32  O   UNL     1       5.881   3.408  16.051  0.00  0.00    +0.000 OA
ATOM     33  H   UNL     1       6.593   3.243  16.701  0.00  0.00    +0.000 HD
ENDBRANCH  30  32
BRANCH  30  34
ATOM     34  O   UNL     1       5.591   4.001  13.658  0.00  0.00    +0.000 OA
ATOM     35  H   UNL     1       4.619   4.097  13.669  0.00  0.00    +0.000 HD
ENDBRANCH  30  34
ENDBRANCH  29  30
ENDBRANCH  28  29
ENDBRANCH  21  28
ENDBRANCH  20  21
ENDBRANCH   2  20
TORSDOF 13
ENDMDL
MODEL 3
REMARK VINA RESULT:      -7.2      1.140      1.462
REMARK  Name = 
REMARK  16 active torsions:
REMARK  status: ('A' for Active; 'I' for Inactive)
REMARK    1  A    between atoms: C_1  and  C_2
REMARK    2  A    between atoms: C_2  and  C_3
REMARK    3  A    between atoms: C_4  and  C_5
REMARK    4  A    between atoms: C_8  and  O_9
REMARK    5  A    between atoms: C_10  and  C_11
REMARK    6  A    between atoms: C_11  and  C_12
REMARK    7  A    between atoms: C_13  and  C_14
REMARK    8  A    between atoms: C_13  and  C_15
REMARK    9  A    between atoms: C_15  and  N_16
REMARK   10  A    between atoms: N_16  and  C_17
REMARK   11  A    between atoms: N_16  and  S_23
REMARK   12  A    between atoms: C_17  and  C_18
REMARK   13  A    between atoms: C_18  and  P_19
REMARK   14  A    between atoms: P_19  and  O_21
REMARK   15  A    between atoms: P_19  and  O_22
REMARK   16  A    between atoms: S_23  and  N_24
REMARK                            x       y       z     vdW  Elec       q    Type
REMARK                         _______ _______ _______ _____ _____    ______ ____
ROOT
ATOM      1  C   UNL     1       2.483   7.814  18.892  0.00  0.00    +0.000 C 
ATOM      2  C   UNL     1       2.633   6.483  18.725  0.00  0.00    +0.000 C 
ATOM      3  C   UNL     1       1.809   5.695  17.749  0.00  0.00    +0.000 C 
ENDROOT
BRANCH   1   4
ATOM      4  C   UNL     1       1.565   8.768  18.164  0.00  0.00    +0.000 C 
BRANCH   4  11
ATOM      5  C   UNL     1       0.472  10.152  20.110  0.00  0.00    +0.000 A 
ATOM      6  C   UNL     1       0.255  11.409  20.759  0.00  0.00    +0.000 A 
ATOM      7  C   UNL     1      -0.528  11.597  22.034  0.00  0.00    +0.000 C 
ATOM      8  C   UNL     1       0.841  12.544  20.204  0.00  0.00    +0.000 A 
ATOM      9  C   UNL     1       1.582  12.461  19.052  0.00  0.00    +0.000 A 
ATOM     10  C   UNL     1       1.798  11.273  18.377  0.00  0.00    +0.000 A 
ATOM     11  C   UNL     1       1.240  10.082  18.886  0.00  0.00    +0.000 A 
ATOM     12  C   UNL     1       2.094  13.780  18.736  0.00  0.00    +0.000 C 
ATOM     13  O   UNL     1       2.801  14.043  17.787  0.00  0.00    +0.000 OA
ATOM     14  O   UNL     1       1.650  14.637  19.704  0.00  0.00    +0.000 OA
ATOM     15  C   UNL     1       0.847  13.950  20.675  0.00  0.00    +0.000 C 
BRANCH   5  17
ATOM     16  C   UNL     1       0.902   8.425  21.894  0.00  0.00    +0.000 C 
ATOM     17  C   UNL     1      -0.029   8.885  20.784  0.00  0.00    +0.000 C 
ENDBRANCH   5  17
BRANCH  10  18
ATOM     18  O   UNL     1       2.575  11.249  17.251  0.00  0.00    +0.000 OA
ATOM     19  H   UNL     1       3.342  10.653  17.399  0.00  0.00    +0.000 HD
ENDBRANCH  10  18
ENDBRANCH   4  11
ENDBRANCH   1   4
BRANCH   2  20
ATOM     20  C   UNL     1       3.529   5.708  19.671  0.00  0.00    +0.000 C 
BRANCH  20  21
ATOM     21  N   UNL     1       4.456   4.750  19.000  0.00  0.00    +0.000 NA
BRANCH  21  22
ATOM     22  S   UNL     1       4.065   3.122  19.349  0.00  0.00    +0.000 S 
ATOM     23  O   UNL     1       5.166   2.526  20.062  0.00  0.00    +0.000 OA
ATOM     24  O   UNL     1       2.709   3.078  19.839  0.00  0.00    +0.000 OA
BRANCH  22  25
ATOM     25  N   UNL     1       4.055   2.481  17.830  0.00  0.00    +0.000 NA
ATOM     26  H   UNL     1       4.914   2.012  17.567  0.00  0.00    +0.000 HD
ATOM     27  H   UNL     1       3.545   3.009  17.131  0.00  0.00    +0.000 HD
ENDBRANCH  22  25
ENDBRANCH  21  22
BRANCH  21  28
ATOM     28  C   UNL     1       5.935   5.050  19.216  0.00  0.00    +0.000 C 
BRANCH  28  29
ATOM     29  C   UNL     1       6.760   4.804  17.964  0.00  0.00    +0.000 C 
BRANCH  29  30
ATOM     30  P   UNL     1       6.234   5.483  16.421  0.00  0.00    +0.000 P 
ATOM     31  O   UNL     1       7.317   5.687  15.415  0.00  0.00    +0.000 OA
BRANCH  30  32
ATOM     32  O   UNL     1       5.062   4.539  15.883  0.00  0.00    +0.000 OA
ATOM     33  H   UNL     1       5.382   3.741  15.417  0.00  0.00    +0.000 HD
ENDBRANCH  30  32
BRANCH  30  34
ATOM     34  O   UNL     1       5.446   6.840  16.731  0.00  0.00    +0.000 OA
ATOM     35  H   UNL     1       5.498   7.441  15.961  0.00  0.00    +0.000 HD
ENDBRANCH  30  34
ENDBRANCH  29  30
ENDBRANCH  28  29
ENDBRANCH  21  28
ENDBRANCH  20  21
ENDBRANCH   2  20
TORSDOF 13
ENDMDL
MODEL 4
REMARK VINA RESULT:      -7.1      2.636      3.363
REMARK  Name = 
REMARK  16 active torsions:
REMARK  status: ('A' for Active; 'I' for Inactive)
REMARK    1  A    between atoms: C_1  and  C_2
REMARK    2  A    between atoms: C_2  and  C_3
REMARK    3  A    between atoms: C_4  and  C_5
REMARK    4  A    between atoms: C_8  and  O_9
REMARK    5  A    between atoms: C_10  and  C_11
REMARK    6  A    between atoms: C_11  and  C_12
REMARK    7  A    between atoms: C_13  and  C_14
REMARK    8  A    between atoms: C_13  and  C_15
REMARK    9  A    between atoms: C_15  and  N_16
REMARK   10  A    between atoms: N_16  and  C_17
REMARK   11  A    between atoms: N_16  and  S_23
REMARK   12  A    between atoms: C_17  and  C_18
REMARK   13  A    between atoms: C_18  and  P_19
REMARK   14  A    between atoms: P_19  and  O_21
REMARK   15  A    between atoms: P_19  and  O_22
REMARK   16  A    between atoms: S_23  and  N_24
REMARK                            x       y       z     vdW  Elec       q    Type
REMARK                         _______ _______ _______ _____ _____    ______ ____
ROOT
ATOM      1  C   UNL     1       1.623   8.636  18.967  0.00  0.00    +0.000 C 
ATOM      2  C   UNL     1       2.521   7.707  18.575  0.00  0.00    +0.000 C 
ATOM      3  C   UNL     1       3.214   7.767  17.245  0.00  0.00    +0.000 C 
ENDROOT
BRANCH   1   4
ATOM      4  C   UNL     1       1.171   9.886  18.250  0.00  0.00    +0.000 C 
BRANCH   4  11
ATOM      5  C   UNL     1      -0.083  11.395  19.995  0.00  0.00    +0.000 A 
ATOM      6  C   UNL     1      -1.281  12.050  20.425  0.00  0.00    +0.000 A 
ATOM      7  C   UNL     1      -1.393  12.929  21.645  0.00  0.00    +0.000 C 
ATOM      8  C   UNL     1      -2.425  11.907  19.643  0.00  0.00    +0.000 A 
ATOM      9  C   UNL     1      -2.407  11.136  18.506  0.00  0.00    +0.000 A 
ATOM     10  C   UNL     1      -1.280  10.465  18.067  0.00  0.00    +0.000 A 
ATOM     11  C   UNL     1      -0.084  10.571  18.807  0.00  0.00    +0.000 A 
ATOM     12  C   UNL     1      -3.714  11.202  17.884  0.00  0.00    +0.000 C 
ATOM     13  O   UNL     1      -4.022  10.645  16.853  0.00  0.00    +0.000 OA
ATOM     14  O   UNL     1      -4.498  12.013  18.656  0.00  0.00    +0.000 OA
ATOM     15  C   UNL     1      -3.773  12.503  19.793  0.00  0.00    +0.000 C 
BRANCH   5  17
ATOM     16  C   UNL     1       1.931  12.893  20.220  0.00  0.00    +0.000 C 
ATOM     17  C   UNL     1       1.208  11.665  20.750  0.00  0.00    +0.000 C 
ENDBRANCH   5  17
BRANCH  10  18
ATOM     18  O   UNL     1      -1.317   9.739  16.908  0.00  0.00    +0.000 OA
ATOM     19  H   UNL     1      -1.672  10.302  16.185  0.00  0.00    +0.000 HD
ENDBRANCH  10  18
ENDBRANCH   4  11
ENDBRANCH   1   4
BRANCH   2  20
ATOM     20  C   UNL     1       2.717   6.457  19.411  0.00  0.00    +0.000 C 
BRANCH  20  21
ATOM     21  N   UNL     1       3.484   5.373  18.731  0.00  0.00    +0.000 NA
BRANCH  21  22
ATOM     22  S   UNL     1       2.630   3.892  18.713  0.00  0.00    +0.000 S 
ATOM     23  O   UNL     1       3.570   2.819  18.513  0.00  0.00    +0.000 OA
ATOM     24  O   UNL     1       1.686   3.901  19.803  0.00  0.00    +0.000 OA
BRANCH  22  25
ATOM     25  N   UNL     1       1.766   4.057  17.319  0.00  0.00    +0.000 NA
ATOM     26  H   UNL     1       1.445   3.183  16.918  0.00  0.00    +0.000 HD
ATOM     27  H   UNL     1       2.060   4.806  16.703  0.00  0.00    +0.000 HD
ENDBRANCH  22  25
ENDBRANCH  21  22
BRANCH  21  28
ATOM     28  C   UNL     1       4.917   5.209  19.228  0.00  0.00    +0.000 C 
BRANCH  28  29
ATOM     29  C   UNL     1       5.926   5.851  18.292  0.00  0.00    +0.000 C 
BRANCH  29  30
ATOM     30  P   UNL     1       6.771   4.857  17.101  0.00  0.00    +0.000 P 
ATOM     31  O   UNL     1       7.288   5.594  15.910  0.00  0.00    +0.000 OA
BRANCH  30  32
ATOM     32  O   UNL     1       7.922   4.078  17.890  0.00  0.00    +0.000 OA
ATOM     33  H   UNL     1       7.644   3.205  18.232  0.00  0.00    +0.000 HD
ENDBRANCH  30  32
BRANCH  30  34
ATOM     34  O   UNL     1       5.793   3.662  16.683  0.00  0.00    +0.000 OA
ATOM     35  H   UNL     1       4.979   3.693  17.223  0.00  0.00    +0.000 HD
ENDBRANCH  30  34
ENDBRANCH  29  30
ENDBRANCH  28  29
ENDBRANCH  21  28
ENDBRANCH  20  21
ENDBRANCH   2  20
TORSDOF 13
ENDMDL
MODEL 5
REMARK VINA RESULT:      -7.1      2.590      3.140
REMARK  Name = 
REMARK  16 active torsions:
REMARK  status: ('A' for Active; 'I' for Inactive)
REMARK    1  A    between atoms: C_1  and  C_2
REMARK    2  A    between atoms: C_2  and  C_3
REMARK    3  A    between atoms: C_4  and  C_5
REMARK    4  A    between atoms: C_8  and  O_9
REMARK    5  A    between atoms: C_10  and  C_11
REMARK    6  A    between atoms: C_11  and  C_12
REMARK    7  A    between atoms: C_13  and  C_14
REMARK    8  A    between atoms: C_13  and  C_15
REMARK    9  A    between atoms: C_15  and  N_16
REMARK   10  A    between atoms: N_16  and  C_17
REMARK   11  A    between atoms: N_16  and  S_23
REMARK   12  A    between atoms: C_17  and  C_18
REMARK   13  A    between atoms: C_18  and  P_19
REMARK   14  A    between atoms: P_19  and  O_21
REMARK   15  A    between atoms: P_19  and  O_22
REMARK   16  A    between atoms: S_23  and  N_24
REMARK                            x       y       z     vdW  Elec       q    Type
REMARK                         _______ _______ _______ _____ _____    ______ ____
ROOT
ATOM      1  C   UNL     1       1.546   8.234  18.891  0.00  0.00    +0.000 C 
ATOM      2  C   UNL     1       2.584   7.418  18.611  0.00  0.00    +0.000 C 
ATOM      3  C   UNL     1       3.492   7.643  17.436  0.00  0.00    +0.000 C 
ENDROOT
BRANCH   1   4
ATOM      4  C   UNL     1       1.110   9.497  18.186  0.00  0.00    +0.000 C 
BRANCH   4  11
ATOM      5  C   UNL     1      -0.097  10.835  20.095  0.00  0.00    +0.000 A 
ATOM      6  C   UNL     1      -1.247  11.548  20.567  0.00  0.00    +0.000 A 
ATOM      7  C   UNL     1      -1.351  12.220  21.912  0.00  0.00    +0.000 C 
ATOM      8  C   UNL     1      -2.339  11.671  19.712  0.00  0.00    +0.000 A 
ATOM      9  C   UNL     1      -2.321  11.102  18.462  0.00  0.00    +0.000 A 
ATOM     10  C   UNL     1      -1.244  10.384  17.975  0.00  0.00    +0.000 A 
ATOM     11  C   UNL     1      -0.100  10.225  18.785  0.00  0.00    +0.000 A 
ATOM     12  C   UNL     1      -3.565  11.425  17.791  0.00  0.00    +0.000 C 
ATOM     13  O   UNL     1      -3.855  11.085  16.665  0.00  0.00    +0.000 OA
ATOM     14  O   UNL     1      -4.312  12.183  18.649  0.00  0.00    +0.000 OA
ATOM     15  C   UNL     1      -3.622  12.390  19.891  0.00  0.00    +0.000 C 
BRANCH   5  17
ATOM     16  C   UNL     1       1.129   9.705  21.984  0.00  0.00    +0.000 C 
ATOM     17  C   UNL     1       1.157  10.823  20.954  0.00  0.00    +0.000 C 
ENDBRANCH   5  17
BRANCH  10  18
ATOM     18  O   UNL     1      -1.274   9.869  16.708  0.00  0.00    +0.000 OA
ATOM     19  H   UNL     1      -1.757  10.490  16.118  0.00  0.00    +0.000 HD
ENDBRANCH  10  18
ENDBRANCH   4  11
ENDBRANCH   1   4
BRANCH   2  20
ATOM     20  C   UNL     1       2.749   6.125  19.385  0.00  0.00    +0.000 C 
BRANCH  20  21
ATOM     21  N   UNL     1       3.537   5.075  18.676  0.00  0.00    +0.000 NA
BRANCH  21  22
ATOM     22  S   UNL     1       2.599   3.688  18.330  0.00  0.00    +0.000 S 
ATOM     23  O   UNL     1       1.804   3.949  17.157  0.00  0.00    +0.000 OA
ATOM     24  O   UNL     1       3.448   2.528  18.448  0.00  0.00    +0.000 OA
BRANCH  22  25
ATOM     25  N   UNL     1       1.581   3.679  19.626  0.00  0.00    +0.000 NA
ATOM     26  H   UNL     1       0.627   3.413  19.408  0.00  0.00    +0.000 HD
ATOM     27  H   UNL     1       1.747   4.395  20.323  0.00  0.00    +0.000 HD
ENDBRANCH  22  25
ENDBRANCH  21  22
BRANCH  21  28
ATOM     28  C   UNL     1       4.863   4.727  19.343  0.00  0.00    +0.000 C 
BRANCH  28  29
ATOM     29  C   UNL     1       6.042   5.408  18.670  0.00  0.00    +0.000 C 
BRANCH  29  30
ATOM     30  P   UNL     1       6.584   4.856  17.082  0.00  0.00    +0.000 P 
ATOM     31  O   UNL     1       6.605   5.902  16.019  0.00  0.00    +0.000 OA
BRANCH  30  32
ATOM     32  O   UNL     1       8.011   4.170  17.301  0.00  0.00    +0.000 OA
ATOM     33  H   UNL     1       8.748   4.808  17.371  0.00  0.00    +0.000 HD
ENDBRANCH  30  32
BRANCH  30  34
ATOM     34  O   UNL     1       5.678   3.604  16.669  0.00  0.00    +0.000 OA
ATOM     35  H   UNL     1       6.214   2.951  16.177  0.00  0.00    +0.000 HD
ENDBRANCH  30  34
ENDBRANCH  29  30
ENDBRANCH  28  29
ENDBRANCH  21  28
ENDBRANCH  20  21
ENDBRANCH   2  20
TORSDOF 13
ENDMDL
MODEL 6
REMARK VINA RESULT:      -7.1      3.996      8.418
REMARK  Name = 
REMARK  16 active torsions:
REMARK  status: ('A' for Active; 'I' for Inactive)
REMARK    1  A    between atoms: C_1  and  C_2
REMARK    2  A    between atoms: C_2  and  C_3
REMARK    3  A    between atoms: C_4  and  C_5
REMARK    4  A    between atoms: C_8  and  O_9
REMARK    5  A    between atoms: C_10  and  C_11
REMARK    6  A    between atoms: C_11  and  C_12
REMARK    7  A    between atoms: C_13  and  C_14
REMARK    8  A    between atoms: C_13  and  C_15
REMARK    9  A    between atoms: C_15  and  N_16
REMARK   10  A    between atoms: N_16  and  C_17
REMARK   11  A    between atoms: N_16  and  S_23
REMARK   12  A    between atoms: C_17  and  C_18
REMARK   13  A    between atoms: C_18  and  P_19
REMARK   14  A    between atoms: P_19  and  O_21
REMARK   15  A    between atoms: P_19  and  O_22
REMARK   16  A    between atoms: S_23  and  N_24
REMARK                            x       y       z     vdW  Elec       q    Type
REMARK                         _______ _______ _______ _____ _____    ______ ____
ROOT
ATOM      1  C   UNL     1       1.519   8.360  20.508  0.00  0.00    +0.000 C 
ATOM      2  C   UNL     1       0.788   9.272  21.184  0.00  0.00    +0.000 C 
ATOM      3  C   UNL     1      -0.434   8.900  21.973  0.00  0.00    +0.000 C 
ENDROOT
BRANCH   1   4
ATOM      4  C   UNL     1       1.336   6.863  20.427  0.00  0.00    +0.000 C 
BRANCH   4  11
ATOM      5  C   UNL     1       2.886   4.758  20.173  0.00  0.00    +0.000 A 
ATOM      6  C   UNL     1       3.912   4.059  19.460  0.00  0.00    +0.000 A 
ATOM      7  C   UNL     1       4.424   2.686  19.812  0.00  0.00    +0.000 C 
ATOM      8  C   UNL     1       4.453   4.665  18.329  0.00  0.00    +0.000 A 
ATOM      9  C   UNL     1       4.033   5.910  17.928  0.00  0.00    +0.000 A 
ATOM     10  C   UNL     1       3.064   6.632  18.601  0.00  0.00    +0.000 A 
ATOM     11  C   UNL     1       2.466   6.076  19.751  0.00  0.00    +0.000 A 
ATOM     12  C   UNL     1       4.738   6.265  16.712  0.00  0.00    +0.000 C 
ATOM     13  O   UNL     1       4.581   7.296  16.094  0.00  0.00    +0.000 OA
ATOM     14  O   UNL     1       5.572   5.228  16.401  0.00  0.00    +0.000 OA
ATOM     15  C   UNL     1       5.466   4.171  17.366  0.00  0.00    +0.000 C 
BRANCH   5  17
ATOM     16  C   UNL     1       1.037   3.174  20.821  0.00  0.00    +0.000 C 
ATOM     17  C   UNL     1       2.178   4.048  21.316  0.00  0.00    +0.000 C 
ENDBRANCH   5  17
BRANCH  10  18
ATOM     18  O   UNL     1       2.664   7.854  18.132  0.00  0.00    +0.000 OA
ATOM     19  H   UNL     1       2.539   8.466  18.891  0.00  0.00    +0.000 HD
ENDBRANCH  10  18
ENDBRANCH   4  11
ENDBRANCH   1   4
BRANCH   2  20
ATOM     20  C   UNL     1       1.086  10.748  21.008  0.00  0.00    +0.000 C 
BRANCH  20  21
ATOM     21  N   UNL     1       0.427  11.374  19.825  0.00  0.00    +0.000 NA
BRANCH  21  22
ATOM     22  S   UNL     1       1.467  12.456  19.004  0.00  0.00    +0.000 S 
ATOM     23  O   UNL     1       0.666  13.370  18.231  0.00  0.00    +0.000 OA
ATOM     24  O   UNL     1       2.476  12.904  19.932  0.00  0.00    +0.000 OA
BRANCH  22  25
ATOM     25  N   UNL     1       2.201  11.426  17.946  0.00  0.00    +0.000 NA
ATOM     26  H   UNL     1       3.186  11.272  18.126  0.00  0.00    +0.000 HD
ATOM     27  H   UNL     1       1.874  11.471  16.988  0.00  0.00    +0.000 HD
ENDBRANCH  22  25
ENDBRANCH  21  22
BRANCH  21  28
ATOM     28  C   UNL     1      -0.936  11.992  20.118  0.00  0.00    +0.000 C 
BRANCH  28  29
ATOM     29  C   UNL     1      -2.069  11.224  19.459  0.00  0.00    +0.000 C 
BRANCH  29  30
ATOM     30  P   UNL     1      -1.959  10.798  17.748  0.00  0.00    +0.000 P 
ATOM     31  O   UNL     1      -3.119  10.028  17.210  0.00  0.00    +0.000 OA
BRANCH  30  32
ATOM     32  O   UNL     1      -1.703  12.162  16.954  0.00  0.00    +0.000 OA
ATOM     33  H   UNL     1      -2.483  12.751  16.922  0.00  0.00    +0.000 HD
ENDBRANCH  30  32
BRANCH  30  34
ATOM     34  O   UNL     1      -0.577  10.025  17.527  0.00  0.00    +0.000 OA
ATOM     35  H   UNL     1      -0.045  10.050  18.347  0.00  0.00    +0.000 HD
ENDBRANCH  30  34
ENDBRANCH  29  30
ENDBRANCH  28  29
ENDBRANCH  21  28
ENDBRANCH  20  21
ENDBRANCH   2  20
TORSDOF 13
ENDMDL
MODEL 7
REMARK VINA RESULT:      -7.0      2.800      3.494
REMARK  Name = 
REMARK  16 active torsions:
REMARK  status: ('A' for Active; 'I' for Inactive)
REMARK    1  A    between atoms: C_1  and  C_2
REMARK    2  A    between atoms: C_2  and  C_3
REMARK    3  A    between atoms: C_4  and  C_5
REMARK    4  A    between atoms: C_8  and  O_9
REMARK    5  A    between atoms: C_10  and  C_11
REMARK    6  A    between atoms: C_11  and  C_12
REMARK    7  A    between atoms: C_13  and  C_14
REMARK    8  A    between atoms: C_13  and  C_15
REMARK    9  A    between atoms: C_15  and  N_16
REMARK   10  A    between atoms: N_16  and  C_17
REMARK   11  A    between atoms: N_16  and  S_23
REMARK   12  A    between atoms: C_17  and  C_18
REMARK   13  A    between atoms: C_18  and  P_19
REMARK   14  A    between atoms: P_19  and  O_21
REMARK   15  A    between atoms: P_19  and  O_22
REMARK   16  A    between atoms: S_23  and  N_24
REMARK                            x       y       z     vdW  Elec       q    Type
REMARK                         _______ _______ _______ _____ _____    ______ ____
ROOT
ATOM      1  C   UNL     1       1.461   8.878  19.415  0.00  0.00    +0.000 C 
ATOM      2  C   UNL     1       2.238   7.880  18.942  0.00  0.00    +0.000 C 
ATOM      3  C   UNL     1       2.901   7.943  17.597  0.00  0.00    +0.000 C 
ENDROOT
BRANCH   1   4
ATOM      4  C   UNL     1       1.138  10.212  18.787  0.00  0.00    +0.000 C 
BRANCH   4  11
ATOM      5  C   UNL     1      -0.493  11.636  20.273  0.00  0.00    +0.000 A 
ATOM      6  C   UNL     1      -1.791  12.200  20.490  0.00  0.00    +0.000 A 
ATOM      7  C   UNL     1      -2.165  13.078  21.656  0.00  0.00    +0.000 C 
ATOM      8  C   UNL     1      -2.778  11.961  19.537  0.00  0.00    +0.000 A 
ATOM      9  C   UNL     1      -2.517  11.183  18.435  0.00  0.00    +0.000 A 
ATOM     10  C   UNL     1      -1.287  10.598  18.198  0.00  0.00    +0.000 A 
ATOM     11  C   UNL     1      -0.238  10.804  19.118  0.00  0.00    +0.000 A 
ATOM     12  C   UNL     1      -3.708  11.143  17.608  0.00  0.00    +0.000 C 
ATOM     13  O   UNL     1      -3.801  10.553  16.553  0.00  0.00    +0.000 OA
ATOM     14  O   UNL     1      -4.665  11.896  18.226  0.00  0.00    +0.000 OA
ATOM     15  C   UNL     1      -4.173  12.452  19.455  0.00  0.00    +0.000 C 
BRANCH   5  17
ATOM     16  C   UNL     1       1.382  13.251  20.752  0.00  0.00    +0.000 C 
ATOM     17  C   UNL     1       0.634  12.012  21.221  0.00  0.00    +0.000 C 
ENDBRANCH   5  17
BRANCH  10  18
ATOM     18  O   UNL     1      -1.080   9.861  17.064  0.00  0.00    +0.000 OA
ATOM     19  H   UNL     1      -1.348   8.930  17.229  0.00  0.00    +0.000 HD
ENDBRANCH  10  18
ENDBRANCH   4  11
ENDBRANCH   1   4
BRANCH   2  20
ATOM     20  C   UNL     1       2.310   6.567  19.698  0.00  0.00    +0.000 C 
BRANCH  20  21
ATOM     21  N   UNL     1       2.893   5.437  18.918  0.00  0.00    +0.000 NA
BRANCH  21  22
ATOM     22  S   UNL     1       1.855   4.078  18.877  0.00  0.00    +0.000 S 
ATOM     23  O   UNL     1       0.939   4.163  19.985  0.00  0.00    +0.000 OA
ATOM     24  O   UNL     1       1.412   3.889  17.517  0.00  0.00    +0.000 OA
BRANCH  22  25
ATOM     25  N   UNL     1       2.925   2.869  19.213  0.00  0.00    +0.000 NA
ATOM     26  H   UNL     1       2.518   2.066  19.678  0.00  0.00    +0.000 HD
ATOM     27  H   UNL     1       3.861   3.165  19.463  0.00  0.00    +0.000 HD
ENDBRANCH  22  25
ENDBRANCH  21  22
BRANCH  21  28
ATOM     28  C   UNL     1       4.317   5.066  19.318  0.00  0.00    +0.000 C 
BRANCH  28  29
ATOM     29  C   UNL     1       5.289   5.180  18.156  0.00  0.00    +0.000 C 
BRANCH  29  30
ATOM     30  P   UNL     1       6.999   5.490  18.472  0.00  0.00    +0.000 P 
ATOM     31  O   UNL     1       7.527   6.768  17.910  0.00  0.00    +0.000 OA
BRANCH  30  32
ATOM     32  O   UNL     1       7.197   5.385  20.054  0.00  0.00    +0.000 OA
ATOM     33  H   UNL     1       8.128   5.268  20.328  0.00  0.00    +0.000 HD
ENDBRANCH  30  32
BRANCH  30  34
ATOM     34  O   UNL     1       7.826   4.224  17.952  0.00  0.00    +0.000 OA
ATOM     35  H   UNL     1       8.324   4.459  17.144  0.00  0.00    +0.000 HD
ENDBRANCH  30  34
ENDBRANCH  29  30
ENDBRANCH  28  29
ENDBRANCH  21  28
ENDBRANCH  20  21
ENDBRANCH   2  20
TORSDOF 13
ENDMDL
MODEL 8
REMARK VINA RESULT:      -7.0      1.900      3.160
REMARK  Name = 
REMARK  16 active torsions:
REMARK  status: ('A' for Active; 'I' for Inactive)
REMARK    1  A    between atoms: C_1  and  C_2
REMARK    2  A    between atoms: C_2  and  C_3
REMARK    3  A    between atoms: C_4  and  C_5
REMARK    4  A    between atoms: C_8  and  O_9
REMARK    5  A    between atoms: C_10  and  C_11
REMARK    6  A    between atoms: C_11  and  C_12
REMARK    7  A    between atoms: C_13  and  C_14
REMARK    8  A    between atoms: C_13  and  C_15
REMARK    9  A    between atoms: C_15  and  N_16
REMARK   10  A    between atoms: N_16  and  C_17
REMARK   11  A    between atoms: N_16  and  S_23
REMARK   12  A    between atoms: C_17  and  C_18
REMARK   13  A    between atoms: C_18  and  P_19
REMARK   14  A    between atoms: P_19  and  O_21
REMARK   15  A    between atoms: P_19  and  O_22
REMARK   16  A    between atoms: S_23  and  N_24
REMARK                            x       y       z     vdW  Elec       q    Type
REMARK                         _______ _______ _______ _____ _____    ______ ____
ROOT
ATOM      1  C   UNL     1       2.240   8.578  17.599  0.00  0.00    +0.000 C 
ATOM      2  C   UNL     1       2.851   7.580  18.273  0.00  0.00    +0.000 C 
ATOM      3  C   UNL     1       2.292   7.005  19.542  0.00  0.00    +0.000 C 
ENDROOT
BRANCH   1   4
ATOM      4  C   UNL     1       0.930   9.266  17.898  0.00  0.00    +0.000 C 
BRANCH   4  11
ATOM      5  C   UNL     1       0.288  10.674  20.019  0.00  0.00    +0.000 A 
ATOM      6  C   UNL     1       0.452  11.854  20.814  0.00  0.00    +0.000 A 
ATOM      7  C   UNL     1      -0.247  12.114  22.124  0.00  0.00    +0.000 C 
ATOM      8  C   UNL     1       1.355  12.819  20.376  0.00  0.00    +0.000 A 
ATOM      9  C   UNL     1       2.046  12.655  19.201  0.00  0.00    +0.000 A 
ATOM     10  C   UNL     1       1.900  11.545  18.389  0.00  0.00    +0.000 A 
ATOM     11  C   UNL     1       1.008  10.523  18.775  0.00  0.00    +0.000 A 
ATOM     12  C   UNL     1       2.930  13.790  19.024  0.00  0.00    +0.000 C 
ATOM     13  O   UNL     1       3.690  13.939  18.091  0.00  0.00    +0.000 OA
ATOM     14  O   UNL     1       2.757  14.619  20.096  0.00  0.00    +0.000 OA
ATOM     15  C   UNL     1       1.778  14.093  21.004  0.00  0.00    +0.000 C 
BRANCH   5  17
ATOM     16  C   UNL     1       0.149   8.735  21.622  0.00  0.00    +0.000 C 
ATOM     17  C   UNL     1      -0.574   9.545  20.558  0.00  0.00    +0.000 C 
ENDBRANCH   5  17
BRANCH  10  18
ATOM     18  O   UNL     1       2.642  11.424  17.246  0.00  0.00    +0.000 OA
ATOM     19  H   UNL     1       2.336  12.087  16.589  0.00  0.00    +0.000 HD
ENDBRANCH  10  18
ENDBRANCH   4  11
ENDBRANCH   1   4
BRANCH   2  20
ATOM     20  C   UNL     1       4.238   7.135  17.854  0.00  0.00    +0.000 C 
BRANCH  20  21
ATOM     21  N   UNL     1       4.664   5.823  18.422  0.00  0.00    +0.000 NA
BRANCH  21  22
ATOM     22  S   UNL     1       6.367   5.659  18.460  0.00  0.00    +0.000 S 
ATOM     23  O   UNL     1       6.952   6.748  17.721  0.00  0.00    +0.000 OA
ATOM     24  O   UNL     1       6.759   5.339  19.811  0.00  0.00    +0.000 OA
BRANCH  22  25
ATOM     25  N   UNL     1       6.559   4.291  17.560  0.00  0.00    +0.000 NA
ATOM     26  H   UNL     1       6.496   3.428  18.089  0.00  0.00    +0.000 HD
ATOM     27  H   UNL     1       7.221   4.355  16.795  0.00  0.00    +0.000 HD
ENDBRANCH  22  25
ENDBRANCH  21  22
BRANCH  21  28
ATOM     28  C   UNL     1       3.980   4.614  17.794  0.00  0.00    +0.000 C 
BRANCH  28  29
ATOM     29  C   UNL     1       3.353   3.703  18.836  0.00  0.00    +0.000 C 
BRANCH  29  30
ATOM     30  P   UNL     1       1.663   3.218  18.673  0.00  0.00    +0.000 P 
ATOM     31  O   UNL     1       0.804   3.498  19.861  0.00  0.00    +0.000 OA
BRANCH  30  32
ATOM     32  O   UNL     1       1.116   3.913  17.341  0.00  0.00    +0.000 OA
ATOM     33  H   UNL     1       0.614   4.736  17.503  0.00  0.00    +0.000 HD
ENDBRANCH  30  32
BRANCH  30  34
ATOM     34  O   UNL     1       1.638   1.671  18.270  0.00  0.00    +0.000 OA
ATOM     35  H   UNL     1       1.209   1.148  18.976  0.00  0.00    +0.000 HD
ENDBRANCH  30  34
ENDBRANCH  29  30
ENDBRANCH  28  29
ENDBRANCH  21  28
ENDBRANCH  20  21
ENDBRANCH   2  20
TORSDOF 13
ENDMDL
MODEL 9
REMARK VINA RESULT:      -7.0      0.922      1.188
REMARK  Name = 
REMARK  16 active torsions:
REMARK  status: ('A' for Active; 'I' for Inactive)
REMARK    1  A    between atoms: C_1  and  C_2
REMARK    2  A    between atoms: C_2  and  C_3
REMARK    3  A    between atoms: C_4  and  C_5
REMARK    4  A    between atoms: C_8  and  O_9
REMARK    5  A    between atoms: C_10  and  C_11
REMARK    6  A    between atoms: C_11  and  C_12
REMARK    7  A    between atoms: C_13  and  C_14
REMARK    8  A    between atoms: C_13  and  C_15
REMARK    9  A    between atoms: C_15  and  N_16
REMARK   10  A    between atoms: N_16  and  C_17
REMARK   11  A    between atoms: N_16  and  S_23
REMARK   12  A    between atoms: C_17  and  C_18
REMARK   13  A    between atoms: C_18  and  P_19
REMARK   14  A    between atoms: P_19  and  O_21
REMARK   15  A    between atoms: P_19  and  O_22
REMARK   16  A    between atoms: S_23  and  N_24
REMARK                            x       y       z     vdW  Elec       q    Type
REMARK                         _______ _______ _______ _____ _____    ______ ____
ROOT
ATOM      1  C   UNL     1       1.888   8.142  18.599  0.00  0.00    +0.000 C 
ATOM      2  C   UNL     1       2.954   7.387  18.258  0.00  0.00    +0.000 C 
ATOM      3  C   UNL     1       3.770   7.654  17.027  0.00  0.00    +0.000 C 
ENDROOT
BRANCH   1   4
ATOM      4  C   UNL     1       1.334   9.370  17.916  0.00  0.00    +0.000 C 
BRANCH   4  11
ATOM      5  C   UNL     1       0.444  10.747  19.967  0.00  0.00    +0.000 A 
ATOM      6  C   UNL     1       0.456  11.948  20.747  0.00  0.00    +0.000 A 
ATOM      7  C   UNL     1      -0.340  12.165  22.008  0.00  0.00    +0.000 C 
ATOM      8  C   UNL     1       1.296  12.984  20.343  0.00  0.00    +0.000 A 
ATOM      9  C   UNL     1       2.067  12.863  19.213  0.00  0.00    +0.000 A 
ATOM     10  C   UNL     1       2.069  11.733  18.416  0.00  0.00    +0.000 A 
ATOM     11  C   UNL     1       1.248  10.642  18.770  0.00  0.00    +0.000 A 
ATOM     12  C   UNL     1       2.858  14.070  19.065  0.00  0.00    +0.000 C 
ATOM     13  O   UNL     1       3.656  14.272  18.176  0.00  0.00    +0.000 OA
ATOM     14  O   UNL     1       2.548  14.897  20.108  0.00  0.00    +0.000 OA
ATOM     15  C   UNL     1       1.567  14.300  20.968  0.00  0.00    +0.000 C 
BRANCH   5  17
ATOM     16  C   UNL     1       0.369   8.842  21.615  0.00  0.00    +0.000 C 
ATOM     17  C   UNL     1      -0.346   9.553  20.478  0.00  0.00    +0.000 C 
ENDBRANCH   5  17
BRANCH  10  18
ATOM     18  O   UNL     1       2.886  11.661  17.322  0.00  0.00    +0.000 OA
ATOM     19  H   UNL     1       2.436  11.146  16.616  0.00  0.00    +0.000 HD
ENDBRANCH  10  18
ENDBRANCH   4  11
ENDBRANCH   1   4
BRANCH   2  20
ATOM     20  C   UNL     1       3.243   6.113  19.028  0.00  0.00    +0.000 C 
BRANCH  20  21
ATOM     21  N   UNL     1       3.342   4.888  18.181  0.00  0.00    +0.000 NA
BRANCH  21  22
ATOM     22  S   UNL     1       2.003   3.846  18.396  0.00  0.00    +0.000 S 
ATOM     23  O   UNL     1       1.611   3.877  19.783  0.00  0.00    +0.000 OA
ATOM     24  O   UNL     1       1.070   4.081  17.322  0.00  0.00    +0.000 OA
BRANCH  22  25
ATOM     25  N   UNL     1       2.709   2.383  18.116  0.00  0.00    +0.000 NA
ATOM     26  H   UNL     1       2.860   2.171  17.136  0.00  0.00    +0.000 HD
ATOM     27  H   UNL     1       2.446   1.637  18.749  0.00  0.00    +0.000 HD
ENDBRANCH  22  25
ENDBRANCH  21  22
BRANCH  21  28
ATOM     28  C   UNL     1       4.672   4.152  18.293  0.00  0.00    +0.000 C 
BRANCH  28  29
ATOM     29  C   UNL     1       5.543   4.348  17.063  0.00  0.00    +0.000 C 
BRANCH  29  30
ATOM     30  P   UNL     1       7.149   5.062  17.233  0.00  0.00    +0.000 P 
ATOM     31  O   UNL     1       8.211   4.129  17.714  0.00  0.00    +0.000 OA
BRANCH  30  32
ATOM     32  O   UNL     1       7.505   5.725  15.822  0.00  0.00    +0.000 OA
ATOM     33  H   UNL     1       7.012   5.341  15.071  0.00  0.00    +0.000 HD
ENDBRANCH  30  32
BRANCH  30  34
ATOM     34  O   UNL     1       7.014   6.347  18.175  0.00  0.00    +0.000 OA
ATOM     35  H   UNL     1       6.149   6.338  18.631  0.00  0.00    +0.000 HD
ENDBRANCH  30  34
ENDBRANCH  29  30
ENDBRANCH  28  29
ENDBRANCH  21  28
ENDBRANCH  20  21
ENDBRANCH   2  20
TORSDOF 13
ENDMDL
