MODEL 1
REMARK VINA RESULT:      -9.4      0.000      0.000
REMARK  Name = 
REMARK  3 active torsions:
REMARK  status: ('A' for Active; 'I' for Inactive)
REMARK    1  A    between atoms: C_5  and  N_6
REMARK    2  A    between atoms: N_6  and  C_7
REMARK    3  A    between atoms: C_9  and  C_10
REMARK                            x       y       z     vdW  Elec       q    Type
REMARK                         _______ _______ _______ _____ _____    ______ ____
ROOT
ATOM      1  C   UNL     1       2.195   6.496  19.818  0.00  0.00    +0.000 A 
ATOM      2  N   UNL     1       2.456   6.729  18.520  0.00  0.00    +0.000 NA
ATOM      3  C   UNL     1       2.683   5.630  17.815  0.00  0.00    +0.000 A 
ATOM      4  N   UNL     1       1.733   4.697  17.907  0.00  0.00    +0.000 NA
ATOM      5  C   UNL     1       1.403   4.406  19.159  0.00  0.00    +0.000 A 
ATOM      6  C   UNL     1       0.807   3.179  19.371  0.00  0.00    +0.000 A 
ATOM      7  C   UNL     1       1.246   2.401  20.424  0.00  0.00    +0.000 A 
ATOM      8  C   UNL     1       2.190   2.940  21.281  0.00  0.00    +0.000 A 
ATOM      9  F   UNL     1       2.924   2.103  22.026  0.00  0.00    +0.000 F 
ATOM     10  C   UNL     1       2.479   4.317  21.271  0.00  0.00    +0.000 A 
ATOM     11  C   UNL     1       1.983   5.131  20.206  0.00  0.00    +0.000 A 
ENDROOT
BRANCH   3  12
ATOM     12  C   UNL     1       4.123   5.188  17.955  0.00  0.00    +0.000 A 
ATOM     13  C   UNL     1       4.971   5.642  18.988  0.00  0.00    +0.000 A 
ATOM     14  C   UNL     1       6.359   5.426  18.951  0.00  0.00    +0.000 A 
ATOM     15  C   UNL     1       6.931   4.739  17.886  0.00  0.00    +0.000 A 
ATOM     16  C   UNL     1       6.117   4.287  16.859  0.00  0.00    +0.000 A 
ATOM     17  F   UNL     1       6.668   3.674  15.802  0.00  0.00    +0.000 F 
ATOM     18  C   UNL     1       4.742   4.503  16.884  0.00  0.00    +0.000 A 
ENDBRANCH   3  12
BRANCH   1  19
ATOM     19  N   UNL     1       2.285   7.615  20.689  0.00  0.00    +0.000 N 
ATOM     20  H   UNL     1       2.409   7.275  21.644  0.00  0.00    +0.000 HD
BRANCH  19  25
ATOM     21  F   UNL     1      -1.581  11.670  20.998  0.00  0.00    +0.000 F 
ATOM     22  C   UNL     1      -0.677  10.686  20.913  0.00  0.00    +0.000 A 
ATOM     23  C   UNL     1      -0.419   9.902  22.035  0.00  0.00    +0.000 A 
ATOM     24  C   UNL     1       0.537   8.874  21.953  0.00  0.00    +0.000 A 
ATOM     25  C   UNL     1       1.225   8.602  20.754  0.00  0.00    +0.000 A 
ATOM     26  C   UNL     1       0.958   9.423  19.646  0.00  0.00    +0.000 A 
ATOM     27  C   UNL     1      -0.005  10.452  19.732  0.00  0.00    +0.000 A 
ENDBRANCH  19  25
ENDBRANCH   1  19
TORSDOF 3
ENDMDL
MODEL 2
REMARK VINA RESULT:      -9.1      1.761      4.346
REMARK  Name = 
REMARK  3 active torsions:
REMARK  status: ('A' for Active; 'I' for Inactive)
REMARK    1  A    between atoms: C_5  and  N_6
REMARK    2  A    between atoms: N_6  and  C_7
REMARK    3  A    between atoms: C_9  and  C_10
REMARK                            x       y       z     vdW  Elec       q    Type
REMARK                         _______ _______ _______ _____ _____    ______ ____
ROOT
ATOM      1  C   UNL     1       3.818   6.871  18.128  0.00  0.00    +0.000 A 
ATOM      2  N   UNL     1       3.492   6.424  19.354  0.00  0.00    +0.000 NA
ATOM      3  C   UNL     1       4.058   5.268  19.669  0.00  0.00    +0.000 A 
ATOM      4  N   UNL     1       5.386   5.236  19.533  0.00  0.00    +0.000 NA
ATOM      5  C   UNL     1       5.802   5.669  18.350  0.00  0.00    +0.000 A 
ATOM      6  C   UNL     1       7.054   5.251  17.946  0.00  0.00    +0.000 A 
ATOM      7  C   UNL     1       7.217   4.794  16.653  0.00  0.00    +0.000 A 
ATOM      8  C   UNL     1       6.136   4.879  15.794  0.00  0.00    +0.000 A 
ATOM      9  F   UNL     1       6.121   4.091  14.710  0.00  0.00    +0.000 F 
ATOM     10  C   UNL     1       5.011   5.664  16.113  0.00  0.00    +0.000 A 
ATOM     11  C   UNL     1       4.869   6.178  17.439  0.00  0.00    +0.000 A 
ENDROOT
BRANCH   3  12
ATOM     12  C   UNL     1       3.263   4.109  19.111  0.00  0.00    +0.000 A 
ATOM     13  C   UNL     1       1.851   4.086  19.080  0.00  0.00    +0.000 A 
ATOM     14  C   UNL     1       1.138   2.909  18.801  0.00  0.00    +0.000 A 
ATOM     15  C   UNL     1       1.820   1.727  18.532  0.00  0.00    +0.000 A 
ATOM     16  C   UNL     1       3.206   1.725  18.560  0.00  0.00    +0.000 A 
ATOM     17  F   UNL     1       3.868   0.577  18.358  0.00  0.00    +0.000 F 
ATOM     18  C   UNL     1       3.920   2.886  18.843  0.00  0.00    +0.000 A 
ENDBRANCH   3  12
BRANCH   1  19
ATOM     19  N   UNL     1       2.997   7.900  17.594  0.00  0.00    +0.000 N 
ATOM     20  H   UNL     1       3.597   8.664  17.280  0.00  0.00    +0.000 HD
BRANCH  19  25
ATOM     21  F   UNL     1      -0.840  10.551  20.715  0.00  0.00    +0.000 F 
ATOM     22  C   UNL     1       0.057   9.901  19.961  0.00  0.00    +0.000 A 
ATOM     23  C   UNL     1       0.893   8.960  20.560  0.00  0.00    +0.000 A 
ATOM     24  C   UNL     1       1.841   8.283  19.774  0.00  0.00    +0.000 A 
ATOM     25  C   UNL     1       1.954   8.516  18.390  0.00  0.00    +0.000 A 
ATOM     26  C   UNL     1       1.112   9.486  17.820  0.00  0.00    +0.000 A 
ATOM     27  C   UNL     1       0.158  10.161  18.611  0.00  0.00    +0.000 A 
ENDBRANCH  19  25
ENDBRANCH   1  19
TORSDOF 3
ENDMDL
MODEL 3
REMARK VINA RESULT:      -9.0      1.857      4.510
REMARK  Name = 
REMARK  3 active torsions:
REMARK  status: ('A' for Active; 'I' for Inactive)
REMARK    1  A    between atoms: C_5  and  N_6
REMARK    2  A    between atoms: N_6  and  C_7
REMARK    3  A    between atoms: C_9  and  C_10
REMARK                            x       y       z     vdW  Elec       q    Type
REMARK                         _______ _______ _______ _____ _____    ______ ____
ROOT
ATOM      1  C   UNL     1       3.824   6.496  18.099  0.00  0.00    +0.000 A 
ATOM      2  N   UNL     1       3.634   6.177  19.391  0.00  0.00    +0.000 NA
ATOM      3  C   UNL     1       4.325   5.118  19.787  0.00  0.00    +0.000 A 
ATOM      4  N   UNL     1       5.636   5.178  19.542  0.00  0.00    +0.000 NA
ATOM      5  C   UNL     1       5.921   5.497  18.286  0.00  0.00    +0.000 A 
ATOM      6  C   UNL     1       7.172   5.136  17.827  0.00  0.00    +0.000 A 
ATOM      7  C   UNL     1       7.277   4.539  16.586  0.00  0.00    +0.000 A 
ATOM      8  C   UNL     1       6.131   4.431  15.818  0.00  0.00    +0.000 A 
ATOM      9  F   UNL     1       6.106   3.518  14.838  0.00  0.00    +0.000 F 
ATOM     10  C   UNL     1       4.967   5.154  16.141  0.00  0.00    +0.000 A 
ATOM     11  C   UNL     1       4.879   5.812  17.406  0.00  0.00    +0.000 A 
ENDROOT
BRANCH   3  12
ATOM     12  C   UNL     1       3.599   3.839  19.435  0.00  0.00    +0.000 A 
ATOM     13  C   UNL     1       4.220   2.756  18.776  0.00  0.00    +0.000 A 
ATOM     14  C   UNL     1       3.475   1.696  18.233  0.00  0.00    +0.000 A 
ATOM     15  C   UNL     1       2.089   1.687  18.349  0.00  0.00    +0.000 A 
ATOM     16  C   UNL     1       1.457   2.741  18.990  0.00  0.00    +0.000 A 
ATOM     17  F   UNL     1       0.119   2.766  19.055  0.00  0.00    +0.000 F 
ATOM     18  C   UNL     1       2.188   3.799  19.524  0.00  0.00    +0.000 A 
ENDBRANCH   3  12
BRANCH   1  19
ATOM     19  N   UNL     1       2.876   7.383  17.522  0.00  0.00    +0.000 N 
ATOM     20  H   UNL     1       3.349   7.955  16.822  0.00  0.00    +0.000 HD
BRANCH  19  25
ATOM     21  F   UNL     1       0.229  11.094  20.795  0.00  0.00    +0.000 F 
ATOM     22  C   UNL     1       0.837  10.202  20.002  0.00  0.00    +0.000 A 
ATOM     23  C   UNL     1       1.088   8.921  20.487  0.00  0.00    +0.000 A 
ATOM     24  C   UNL     1       1.735   7.985  19.660  0.00  0.00    +0.000 A 
ATOM     25  C   UNL     1       2.116   8.306  18.343  0.00  0.00    +0.000 A 
ATOM     26  C   UNL     1       1.868   9.612  17.890  0.00  0.00    +0.000 A 
ATOM     27  C   UNL     1       1.215  10.547  18.721  0.00  0.00    +0.000 A 
ENDBRANCH  19  25
ENDBRANCH   1  19
TORSDOF 3
ENDMDL
MODEL 4
REMARK VINA RESULT:      -9.0      3.590      6.108
REMARK  Name = 
REMARK  3 active torsions:
REMARK  status: ('A' for Active; 'I' for Inactive)
REMARK    1  A    between atoms: C_5  and  N_6
REMARK    2  A    between atoms: N_6  and  C_7
REMARK    3  A    between atoms: C_9  and  C_10
REMARK                            x       y       z     vdW  Elec       q    Type
REMARK                         _______ _______ _______ _____ _____    ______ ____
ROOT
ATOM      1  C   UNL     1       4.627   4.894  17.422  0.00  0.00    +0.000 A 
ATOM      2  N   UNL     1       5.003   3.698  16.935  0.00  0.00    +0.000 NA
ATOM      3  C   UNL     1       6.264   3.660  16.527  0.00  0.00    +0.000 A 
ATOM      4  N   UNL     1       7.160   4.064  17.431  0.00  0.00    +0.000 NA
ATOM      5  C   UNL     1       6.865   5.238  17.974  0.00  0.00    +0.000 A 
ATOM      6  C   UNL     1       7.913   5.937  18.539  0.00  0.00    +0.000 A 
ATOM      7  C   UNL     1       8.035   7.285  18.266  0.00  0.00    +0.000 A 
ATOM      8  C   UNL     1       7.035   7.891  17.526  0.00  0.00    +0.000 A 
ATOM      9  F   UNL     1       7.314   9.044  16.904  0.00  0.00    +0.000 F 
ATOM     10  C   UNL     1       5.801   7.250  17.308  0.00  0.00    +0.000 A 
ATOM     11  C   UNL     1       5.661   5.866  17.636  0.00  0.00    +0.000 A 
ENDROOT
BRANCH   3  12
ATOM     12  C   UNL     1       6.391   4.198  15.119  0.00  0.00    +0.000 A 
ATOM     13  C   UNL     1       5.556   3.784  14.058  0.00  0.00    +0.000 A 
ATOM     14  C   UNL     1       5.853   4.095  12.721  0.00  0.00    +0.000 A 
ATOM     15  C   UNL     1       6.986   4.839  12.413  0.00  0.00    +0.000 A 
ATOM     16  C   UNL     1       7.822   5.254  13.437  0.00  0.00    +0.000 A 
ATOM     17  F   UNL     1       8.945   5.922  13.143  0.00  0.00    +0.000 F 
ATOM     18  C   UNL     1       7.539   4.943  14.765  0.00  0.00    +0.000 A 
ENDBRANCH   3  12
BRANCH   1  19
ATOM     19  N   UNL     1       3.229   5.110  17.551  0.00  0.00    +0.000 N 
ATOM     20  H   UNL     1       3.059   6.115  17.600  0.00  0.00    +0.000 HD
BRANCH  19  25
ATOM     21  F   UNL     1       0.583   2.648  21.844  0.00  0.00    +0.000 F 
ATOM     22  C   UNL     1       1.197   3.256  20.819  0.00  0.00    +0.000 A 
ATOM     23  C   UNL     1       0.939   2.824  19.520  0.00  0.00    +0.000 A 
ATOM     24  C   UNL     1       1.588   3.453  18.444  0.00  0.00    +0.000 A 
ATOM     25  C   UNL     1       2.478   4.526  18.645  0.00  0.00    +0.000 A 
ATOM     26  C   UNL     1       2.733   4.925  19.967  0.00  0.00    +0.000 A 
ATOM     27  C   UNL     1       2.076   4.293  21.045  0.00  0.00    +0.000 A 
ENDBRANCH  19  25
ENDBRANCH   1  19
TORSDOF 3
ENDMDL
MODEL 5
REMARK VINA RESULT:      -8.9      1.806      4.472
REMARK  Name = 
REMARK  3 active torsions:
REMARK  status: ('A' for Active; 'I' for Inactive)
REMARK    1  A    between atoms: C_5  and  N_6
REMARK    2  A    between atoms: N_6  and  C_7
REMARK    3  A    between atoms: C_9  and  C_10
REMARK                            x       y       z     vdW  Elec       q    Type
REMARK                         _______ _______ _______ _____ _____    ______ ____
ROOT
ATOM      1  C   UNL     1       3.729   6.924  17.994  0.00  0.00    +0.000 A 
ATOM      2  N   UNL     1       3.417   6.480  19.224  0.00  0.00    +0.000 NA
ATOM      3  C   UNL     1       4.016   5.343  19.548  0.00  0.00    +0.000 A 
ATOM      4  N   UNL     1       5.344   5.347  19.410  0.00  0.00    +0.000 NA
ATOM      5  C   UNL     1       5.746   5.781  18.223  0.00  0.00    +0.000 A 
ATOM      6  C   UNL     1       7.009   5.395  17.820  0.00  0.00    +0.000 A 
ATOM      7  C   UNL     1       7.183   4.931  16.531  0.00  0.00    +0.000 A 
ATOM      8  C   UNL     1       6.098   4.978  15.673  0.00  0.00    +0.000 A 
ATOM      9  F   UNL     1       6.104   4.180  14.597  0.00  0.00    +0.000 F 
ATOM     10  C   UNL     1       4.953   5.733  15.988  0.00  0.00    +0.000 A 
ATOM     11  C   UNL     1       4.797   6.255  17.309  0.00  0.00    +0.000 A 
ENDROOT
BRANCH   3  12
ATOM     12  C   UNL     1       3.253   4.157  19.002  0.00  0.00    +0.000 A 
ATOM     13  C   UNL     1       1.844   4.121  18.914  0.00  0.00    +0.000 A 
ATOM     14  C   UNL     1       1.152   2.928  18.650  0.00  0.00    +0.000 A 
ATOM     15  C   UNL     1       1.853   1.742  18.454  0.00  0.00    +0.000 A 
ATOM     16  C   UNL     1       3.236   1.753  18.539  0.00  0.00    +0.000 A 
ATOM     17  F   UNL     1       3.914   0.605  18.408  0.00  0.00    +0.000 F 
ATOM     18  C   UNL     1       3.930   2.931  18.807  0.00  0.00    +0.000 A 
ENDBRANCH   3  12
BRANCH   1  19
ATOM     19  N   UNL     1       2.879   7.926  17.451  0.00  0.00    +0.000 N 
ATOM     20  H   UNL     1       3.419   8.489  16.794  0.00  0.00    +0.000 HD
BRANCH  19  25
ATOM     21  F   UNL     1      -0.081  11.475  20.634  0.00  0.00    +0.000 F 
ATOM     22  C   UNL     1       0.647  10.631  19.890  0.00  0.00    +0.000 A 
ATOM     23  C   UNL     1       1.245  11.099  18.722  0.00  0.00    +0.000 A 
ATOM     24  C   UNL     1       2.002  10.214  17.935  0.00  0.00    +0.000 A 
ATOM     25  C   UNL     1       2.189   8.869  18.310  0.00  0.00    +0.000 A 
ATOM     26  C   UNL     1       1.555   8.423  19.481  0.00  0.00    +0.000 A 
ATOM     27  C   UNL     1       0.800   9.315  20.272  0.00  0.00    +0.000 A 
ENDBRANCH  19  25
ENDBRANCH   1  19
TORSDOF 3
ENDMDL
MODEL 6
REMARK VINA RESULT:      -8.9      2.866      4.827
REMARK  Name = 
REMARK  3 active torsions:
REMARK  status: ('A' for Active; 'I' for Inactive)
REMARK    1  A    between atoms: C_5  and  N_6
REMARK    2  A    between atoms: N_6  and  C_7
REMARK    3  A    between atoms: C_9  and  C_10
REMARK                            x       y       z     vdW  Elec       q    Type
REMARK                         _______ _______ _______ _____ _____    ______ ____
ROOT
ATOM      1  C   UNL     1       4.272   5.765  17.617  0.00  0.00    +0.000 A 
ATOM      2  N   UNL     1       4.215   4.433  17.444  0.00  0.00    +0.000 NA
ATOM      3  C   UNL     1       5.403   3.853  17.361  0.00  0.00    +0.000 A 
ATOM      4  N   UNL     1       6.234   4.126  18.369  0.00  0.00    +0.000 NA
ATOM      5  C   UNL     1       6.348   5.424  18.618  0.00  0.00    +0.000 A 
ATOM      6  C   UNL     1       7.487   5.826  19.288  0.00  0.00    +0.000 A 
ATOM      7  C   UNL     1       8.173   6.932  18.826  0.00  0.00    +0.000 A 
ATOM      8  C   UNL     1       7.622   7.647  17.777  0.00  0.00    +0.000 A 
ATOM      9  F   UNL     1       8.427   8.435  17.052  0.00  0.00    +0.000 F 
ATOM     10  C   UNL     1       6.285   7.449  17.384  0.00  0.00    +0.000 A 
ATOM     11  C   UNL     1       5.560   6.331  17.901  0.00  0.00    +0.000 A 
ENDROOT
BRANCH   3  12
ATOM     12  C   UNL     1       5.948   3.943  15.952  0.00  0.00    +0.000 A 
ATOM     13  C   UNL     1       7.194   4.531  15.645  0.00  0.00    +0.000 A 
ATOM     14  C   UNL     1       7.560   4.834  14.323  0.00  0.00    +0.000 A 
ATOM     15  C   UNL     1       6.694   4.544  13.274  0.00  0.00    +0.000 A 
ATOM     16  C   UNL     1       5.464   3.969  13.553  0.00  0.00    +0.000 A 
ATOM     17  F   UNL     1       4.601   3.739  12.554  0.00  0.00    +0.000 F 
ATOM     18  C   UNL     1       5.090   3.672  14.861  0.00  0.00    +0.000 A 
ENDBRANCH   3  12
BRANCH   1  19
ATOM     19  N   UNL     1       3.072   6.485  17.371  0.00  0.00    +0.000 N 
ATOM     20  H   UNL     1       3.204   7.063  16.540  0.00  0.00    +0.000 HD
BRANCH  19  25
ATOM     21  F   UNL     1       0.574   9.710  21.224  0.00  0.00    +0.000 F 
ATOM     22  C   UNL     1       1.194   8.948  20.313  0.00  0.00    +0.000 A 
ATOM     23  C   UNL     1       1.320   9.418  19.007  0.00  0.00    +0.000 A 
ATOM     24  C   UNL     1       1.963   8.618  18.046  0.00  0.00    +0.000 A 
ATOM     25  C   UNL     1       2.502   7.359  18.377  0.00  0.00    +0.000 A 
ATOM     26  C   UNL     1       2.341   6.905  19.696  0.00  0.00    +0.000 A 
ATOM     27  C   UNL     1       1.699   7.713  20.659  0.00  0.00    +0.000 A 
ENDBRANCH  19  25
ENDBRANCH   1  19
TORSDOF 3
ENDMDL
MODEL 7
REMARK VINA RESULT:      -8.9      1.001      1.140
REMARK  Name = 
REMARK  3 active torsions:
REMARK  status: ('A' for Active; 'I' for Inactive)
REMARK    1  A    between atoms: C_5  and  N_6
REMARK    2  A    between atoms: N_6  and  C_7
REMARK    3  A    between atoms: C_9  and  C_10
REMARK                            x       y       z     vdW  Elec       q    Type
REMARK                         _______ _______ _______ _____ _____    ______ ____
ROOT
ATOM      1  C   UNL     1       2.088   6.610  19.898  0.00  0.00    +0.000 A 
ATOM      2  N   UNL     1       2.200   6.880  18.585  0.00  0.00    +0.000 NA
ATOM      3  C   UNL     1       2.400   5.808  17.834  0.00  0.00    +0.000 A 
ATOM      4  N   UNL     1       1.509   4.828  18.002  0.00  0.00    +0.000 NA
ATOM      5  C   UNL     1       1.326   4.498  19.274  0.00  0.00    +0.000 A 
ATOM      6  C   UNL     1       0.812   3.239  19.516  0.00  0.00    +0.000 A 
ATOM      7  C   UNL     1       1.395   2.462  20.497  0.00  0.00    +0.000 A 
ATOM      8  C   UNL     1       2.399   3.028  21.263  0.00  0.00    +0.000 A 
ATOM      9  F   UNL     1       3.244   2.212  21.907  0.00  0.00    +0.000 F 
ATOM     10  C   UNL     1       2.623   4.418  21.258  0.00  0.00    +0.000 A 
ATOM     11  C   UNL     1       1.981   5.228  20.272  0.00  0.00    +0.000 A 
ENDROOT
BRANCH   3  12
ATOM     12  C   UNL     1       3.866   5.432  17.811  0.00  0.00    +0.000 A 
ATOM     13  C   UNL     1       4.338   4.151  18.169  0.00  0.00    +0.000 A 
ATOM     14  C   UNL     1       5.703   3.903  18.388  0.00  0.00    +0.000 A 
ATOM     15  C   UNL     1       6.631   4.928  18.242  0.00  0.00    +0.000 A 
ATOM     16  C   UNL     1       6.190   6.195  17.894  0.00  0.00    +0.000 A 
ATOM     17  F   UNL     1       7.071   7.200  17.806  0.00  0.00    +0.000 F 
ATOM     18  C   UNL     1       4.838   6.451  17.682  0.00  0.00    +0.000 A 
ENDBRANCH   3  12
BRANCH   1  19
ATOM     19  N   UNL     1       2.220   7.713  20.782  0.00  0.00    +0.000 N 
ATOM     20  H   UNL     1       2.404   7.358  21.721  0.00  0.00    +0.000 HD
BRANCH  19  25
ATOM     21  F   UNL     1      -1.661  11.720  21.395  0.00  0.00    +0.000 F 
ATOM     22  C   UNL     1      -0.753  10.747  21.239  0.00  0.00    +0.000 A 
ATOM     23  C   UNL     1      -0.419   9.949  22.330  0.00  0.00    +0.000 A 
ATOM     24  C   UNL     1       0.540   8.933  22.171  0.00  0.00    +0.000 A 
ATOM     25  C   UNL     1       1.156   8.688  20.928  0.00  0.00    +0.000 A 
ATOM     26  C   UNL     1       0.813   9.523  19.853  0.00  0.00    +0.000 A 
ATOM     27  C   UNL     1      -0.153  10.539  20.015  0.00  0.00    +0.000 A 
ENDBRANCH  19  25
ENDBRANCH   1  19
TORSDOF 3
ENDMDL
MODEL 8
REMARK VINA RESULT:      -8.6      2.501      6.182
REMARK  Name = 
REMARK  3 active torsions:
REMARK  status: ('A' for Active; 'I' for Inactive)
REMARK    1  A    between atoms: C_5  and  N_6
REMARK    2  A    between atoms: N_6  and  C_7
REMARK    3  A    between atoms: C_9  and  C_10
REMARK                            x       y       z     vdW  Elec       q    Type
REMARK                         _______ _______ _______ _____ _____    ______ ____
ROOT
ATOM      1  C   UNL     1       4.542   4.054  17.567  0.00  0.00    +0.000 A 
ATOM      2  N   UNL     1       3.669   4.729  16.800  0.00  0.00    +0.000 NA
ATOM      3  C   UNL     1       3.924   6.026  16.714  0.00  0.00    +0.000 A 
ATOM      4  N   UNL     1       5.166   6.331  16.332  0.00  0.00    +0.000 NA
ATOM      5  C   UNL     1       6.101   5.701  17.033  0.00  0.00    +0.000 A 
ATOM      6  C   UNL     1       7.356   6.276  17.042  0.00  0.00    +0.000 A 
ATOM      7  C   UNL     1       8.027   6.387  18.244  0.00  0.00    +0.000 A 
ATOM      8  C   UNL     1       7.448   5.817  19.365  0.00  0.00    +0.000 A 
ATOM      9  F   UNL     1       7.836   6.253  20.571  0.00  0.00    +0.000 F 
ATOM     10  C   UNL     1       6.379   4.909  19.251  0.00  0.00    +0.000 A 
ATOM     11  C   UNL     1       5.717   4.759  17.994  0.00  0.00    +0.000 A 
ENDROOT
BRANCH   3  12
ATOM     12  C   UNL     1       3.349   6.767  17.901  0.00  0.00    +0.000 A 
ATOM     13  C   UNL     1       2.984   6.128  19.106  0.00  0.00    +0.000 A 
ATOM     14  C   UNL     1       2.221   6.783  20.086  0.00  0.00    +0.000 A 
ATOM     15  C   UNL     1       1.815   8.099  19.892  0.00  0.00    +0.000 A 
ATOM     16  C   UNL     1       2.159   8.746  18.715  0.00  0.00    +0.000 A 
ATOM     17  F   UNL     1       1.724   9.994  18.496  0.00  0.00    +0.000 F 
ATOM     18  C   UNL     1       2.909   8.101  17.735  0.00  0.00    +0.000 A 
ENDBRANCH   3  12
BRANCH   1  19
ATOM     19  N   UNL     1       4.144   2.754  17.982  0.00  0.00    +0.000 N 
ATOM     20  H   UNL     1       3.687   2.288  17.197  0.00  0.00    +0.000 HD
BRANCH  19  25
ATOM     21  F   UNL     1       0.705   2.360  22.398  0.00  0.00    +0.000 F 
ATOM     22  C   UNL     1       1.523   2.428  21.340  0.00  0.00    +0.000 A 
ATOM     23  C   UNL     1       2.901   2.442  21.547  0.00  0.00    +0.000 A 
ATOM     24  C   UNL     1       3.763   2.522  20.439  0.00  0.00    +0.000 A 
ATOM     25  C   UNL     1       3.267   2.566  19.121  0.00  0.00    +0.000 A 
ATOM     26  C   UNL     1       1.874   2.572  18.946  0.00  0.00    +0.000 A 
ATOM     27  C   UNL     1       1.012   2.487  20.061  0.00  0.00    +0.000 A 
ENDBRANCH  19  25
ENDBRANCH   1  19
TORSDOF 3
ENDMDL
MODEL 9
REMARK VINA RESULT:      -8.6      2.774      5.113
REMARK  Name = 
REMARK  3 active torsions:
REMARK  status: ('A' for Active; 'I' for Inactive)
REMARK    1  A    between atoms: C_5  and  N_6
REMARK    2  A    between atoms: N_6  and  C_7
REMARK    3  A    between atoms: C_9  and  C_10
REMARK                            x       y       z     vdW  Elec       q    Type
REMARK                         _______ _______ _______ _____ _____    ______ ____
ROOT
ATOM      1  C   UNL     1       4.321   5.155  17.489  0.00  0.00    +0.000 A 
ATOM      2  N   UNL     1       4.541   3.898  17.065  0.00  0.00    +0.000 NA
ATOM      3  C   UNL     1       5.799   3.663  16.722  0.00  0.00    +0.000 A 
ATOM      4  N   UNL     1       6.704   3.973  17.652  0.00  0.00    +0.000 NA
ATOM      5  C   UNL     1       6.559   5.200  18.136  0.00  0.00    +0.000 A 
ATOM      6  C   UNL     1       7.672   5.767  18.724  0.00  0.00    +0.000 A 
ATOM      7  C   UNL     1       8.000   7.070  18.407  0.00  0.00    +0.000 A 
ATOM      8  C   UNL     1       7.130   7.779  17.597  0.00  0.00    +0.000 A 
ATOM      9  F   UNL     1       7.600   8.852  16.946  0.00  0.00    +0.000 F 
ATOM     10  C   UNL     1       5.827   7.312  17.343  0.00  0.00    +0.000 A 
ATOM     11  C   UNL     1       5.475   5.978  17.716  0.00  0.00    +0.000 A 
ENDROOT
BRANCH   3  12
ATOM     12  C   UNL     1       6.062   4.113  15.302  0.00  0.00    +0.000 A 
ATOM     13  C   UNL     1       5.333   3.632  14.193  0.00  0.00    +0.000 A 
ATOM     14  C   UNL     1       5.759   3.862  12.874  0.00  0.00    +0.000 A 
ATOM     15  C   UNL     1       6.918   4.590  12.632  0.00  0.00    +0.000 A 
ATOM     16  C   UNL     1       7.652   5.070  13.705  0.00  0.00    +0.000 A 
ATOM     17  F   UNL     1       8.800   5.724  13.481  0.00  0.00    +0.000 F 
ATOM     18  C   UNL     1       7.241   4.840  15.016  0.00  0.00    +0.000 A 
ENDBRANCH   3  12
BRANCH   1  19
ATOM     19  N   UNL     1       2.965   5.575  17.541  0.00  0.00    +0.000 N 
ATOM     20  H   UNL     1       2.675   5.855  16.603  0.00  0.00    +0.000 HD
BRANCH  19  25
ATOM     21  F   UNL     1       1.022   9.608  20.925  0.00  0.00    +0.000 F 
ATOM     22  C   UNL     1       1.511   8.650  20.126  0.00  0.00    +0.000 A 
ATOM     23  C   UNL     1       1.721   8.933  18.778  0.00  0.00    +0.000 A 
ATOM     24  C   UNL     1       2.226   7.928  17.934  0.00  0.00    +0.000 A 
ATOM     25  C   UNL     1       2.544   6.646  18.423  0.00  0.00    +0.000 A 
ATOM     26  C   UNL     1       2.302   6.386  19.781  0.00  0.00    +0.000 A 
ATOM     27  C   UNL     1       1.800   7.398  20.627  0.00  0.00    +0.000 A 
ENDBRANCH  19  25
ENDBRANCH   1  19
TORSDOF 3
ENDMDL
