MODEL 1
REMARK VINA RESULT:      -7.5      0.000      0.000
REMARK  Name = 
REMARK  7 active torsions:
REMARK  status: ('A' for Active; 'I' for Inactive)
REMARK    1  A    between atoms: C_1  and  C_2
REMARK    2  A    between atoms: C_2  and  C_3
REMARK    3  A    between atoms: C_3  and  N_4
REMARK    4  A    between atoms: C_3  and  C_12
REMARK    5  A    between atoms: C_5  and  C_7
REMARK    6  A    between atoms: C_17  and  C_18
REMARK    7  A    between atoms: C_18  and  C_20
REMARK                            x       y       z     vdW  Elec       q    Type
REMARK                         _______ _______ _______ _____ _____    ______ ____
ROOT
ATOM      1  C   UNL     1       1.554   9.099  18.955  0.00  0.00    +0.000 A 
ATOM      2  C   UNL     1       1.030   8.867  20.231  0.00  0.00    +0.000 A 
ATOM      3  C   UNL     1       1.277   7.658  20.884  0.00  0.00    +0.000 A 
ATOM      4  C   UNL     1       2.024   6.648  20.263  0.00  0.00    +0.000 A 
ATOM      5 CL   UNL     1       2.291   5.217  21.196  0.00  0.00    +0.000 Cl
ATOM      6  C   UNL     1       2.525   6.838  18.967  0.00  0.00    +0.000 A 
ATOM      7  C   UNL     1       2.283   8.065  18.338  0.00  0.00    +0.000 A 
ATOM      8  F   UNL     1       2.707   8.270  17.081  0.00  0.00    +0.000 F 
ENDROOT
BRANCH   6   9
ATOM      9  C   UNL     1       3.143   5.725  18.196  0.00  0.00    +0.000 C 
ATOM     10  O   UNL     1       2.408   4.936  17.608  0.00  0.00    +0.000 OA
BRANCH   9  11
ATOM     11  C   UNL     1       4.603   5.571  18.002  0.00  0.00    +0.000 A 
ATOM     12  C   UNL     1       5.328   6.157  16.963  0.00  0.00    +0.000 A 
ATOM     13  C   UNL     1       6.696   5.890  16.851  0.00  0.00    +0.000 A 
ATOM     14  C   UNL     1       7.292   5.069  17.797  0.00  0.00    +0.000 A 
ATOM     15  N   UNL     1       6.628   4.522  18.835  0.00  0.00    +0.000 NA
ATOM     16  C   UNL     1       5.302   4.787  18.916  0.00  0.00    +0.000 A 
ENDBRANCH   9  11
ENDBRANCH   6   9
BRANCH   1  17
ATOM     17  C   UNL     1       1.278  10.365  18.161  0.00  0.00    +0.000 C 
BRANCH  17  18
ATOM     18  N   UNL     1       0.089  10.998  18.714  0.00  0.00    +0.000 N 
ATOM     19  C   UNL     1      -1.161  10.793  18.188  0.00  0.00    +0.000 C 
ATOM     20  O   UNL     1      -1.391  10.066  17.231  0.00  0.00    +0.000 OA
ATOM     21  H   UNL     1       0.191  11.573  19.537  0.00  0.00    +0.000 HD
BRANCH  19  22
ATOM     22  C   UNL     1      -2.251  11.508  18.880  0.00  0.00    +0.000 C 
ATOM     23  C   UNL     1      -2.216  12.200  20.024  0.00  0.00    +0.000 C 
ATOM     24  C   UNL     1      -3.539  12.822  20.291  0.00  0.00    +0.000 C 
ATOM     25  N   UNL     1      -4.436  12.335  19.234  0.00  0.00    +0.000 NA
ATOM     26  C   UNL     1      -3.603  11.585  18.268  0.00  0.00    +0.000 C 
ATOM     27  H   UNL     1      -4.867  13.126  18.761  0.00  0.00    +0.000 HD
ENDBRANCH  19  22
ENDBRANCH  17  18
BRANCH  17  29
ATOM     28  C   UNL     1       2.047  12.775  18.578  0.00  0.00    +0.000 C 
ATOM     29  C   UNL     1       2.437  11.383  18.096  0.00  0.00    +0.000 C 
ENDBRANCH  17  29
ENDBRANCH   1  17
TORSDOF 6
ENDMDL
MODEL 2
REMARK VINA RESULT:      -7.3      4.797      8.256
REMARK  Name = 
REMARK  7 active torsions:
REMARK  status: ('A' for Active; 'I' for Inactive)
REMARK    1  A    between atoms: C_1  and  C_2
REMARK    2  A    between atoms: C_2  and  C_3
REMARK    3  A    between atoms: C_3  and  N_4
REMARK    4  A    between atoms: C_3  and  C_12
REMARK    5  A    between atoms: C_5  and  C_7
REMARK    6  A    between atoms: C_17  and  C_18
REMARK    7  A    between atoms: C_18  and  C_20
REMARK                            x       y       z     vdW  Elec       q    Type
REMARK                         _______ _______ _______ _____ _____    ______ ____
ROOT
ATOM      1  C   UNL     1       5.163   6.331  17.746  0.00  0.00    +0.000 A 
ATOM      2  C   UNL     1       4.706   7.211  16.760  0.00  0.00    +0.000 A 
ATOM      3  C   UNL     1       3.485   7.869  16.917  0.00  0.00    +0.000 A 
ATOM      4  C   UNL     1       2.684   7.636  18.042  0.00  0.00    +0.000 A 
ATOM      5 CL   UNL     1       1.216   8.546  18.133  0.00  0.00    +0.000 Cl
ATOM      6  C   UNL     1       3.098   6.726  19.025  0.00  0.00    +0.000 A 
ATOM      7  C   UNL     1       4.336   6.092  18.859  0.00  0.00    +0.000 A 
ATOM      8  F   UNL     1       4.748   5.180  19.754  0.00  0.00    +0.000 F 
ENDROOT
BRANCH   6   9
ATOM      9  C   UNL     1       2.193   6.296  20.126  0.00  0.00    +0.000 C 
ATOM     10  O   UNL     1       1.594   7.157  20.766  0.00  0.00    +0.000 OA
BRANCH   9  11
ATOM     11  C   UNL     1       1.885   4.881  20.431  0.00  0.00    +0.000 A 
ATOM     12  C   UNL     1       1.165   4.030  19.590  0.00  0.00    +0.000 A 
ATOM     13  C   UNL     1       0.887   2.728  20.014  0.00  0.00    +0.000 A 
ATOM     14  C   UNL     1       1.360   2.317  21.252  0.00  0.00    +0.000 A 
ATOM     15  N   UNL     1       2.092   3.100  22.070  0.00  0.00    +0.000 NA
ATOM     16  C   UNL     1       2.340   4.361  21.640  0.00  0.00    +0.000 A 
ENDBRANCH   9  11
ENDBRANCH   6   9
BRANCH   1  17
ATOM     17  C   UNL     1       6.452   5.536  17.617  0.00  0.00    +0.000 C 
BRANCH  17  18
ATOM     18  N   UNL     1       6.698   5.296  16.202  0.00  0.00    +0.000 N 
ATOM     19  C   UNL     1       6.146   4.235  15.532  0.00  0.00    +0.000 C 
ATOM     20  O   UNL     1       5.400   3.412  16.048  0.00  0.00    +0.000 OA
ATOM     21  H   UNL     1       7.263   5.960  15.695  0.00  0.00    +0.000 HD
BRANCH  19  22
ATOM     22  C   UNL     1       6.497   4.152  14.101  0.00  0.00    +0.000 C 
ATOM     23  C   UNL     1       5.989   3.362  13.150  0.00  0.00    +0.000 C 
ATOM     24  C   UNL     1       6.592   3.688  11.832  0.00  0.00    +0.000 C 
ATOM     25  N   UNL     1       7.626   4.698  12.099  0.00  0.00    +0.000 NA
ATOM     26  C   UNL     1       7.502   5.082  13.522  0.00  0.00    +0.000 C 
ATOM     27  H   UNL     1       7.462   5.516  11.516  0.00  0.00    +0.000 HD
ENDBRANCH  19  22
ENDBRANCH  17  18
BRANCH  17  29
ATOM     28  C   UNL     1       7.893   7.636  17.910  0.00  0.00    +0.000 C 
ATOM     29  C   UNL     1       7.699   6.168  18.272  0.00  0.00    +0.000 C 
ENDBRANCH  17  29
ENDBRANCH   1  17
TORSDOF 6
ENDMDL
MODEL 3
REMARK VINA RESULT:      -7.2      4.750      8.336
REMARK  Name = 
REMARK  7 active torsions:
REMARK  status: ('A' for Active; 'I' for Inactive)
REMARK    1  A    between atoms: C_1  and  C_2
REMARK    2  A    between atoms: C_2  and  C_3
REMARK    3  A    between atoms: C_3  and  N_4
REMARK    4  A    between atoms: C_3  and  C_12
REMARK    5  A    between atoms: C_5  and  C_7
REMARK    6  A    between atoms: C_17  and  C_18
REMARK    7  A    between atoms: C_18  and  C_20
REMARK                            x       y       z     vdW  Elec       q    Type
REMARK                         _______ _______ _______ _____ _____    ______ ____
ROOT
ATOM      1  C   UNL     1       5.259   6.284  17.817  0.00  0.00    +0.000 A 
ATOM      2  C   UNL     1       4.863   7.264  16.901  0.00  0.00    +0.000 A 
ATOM      3  C   UNL     1       3.643   7.923  17.062  0.00  0.00    +0.000 A 
ATOM      4  C   UNL     1       2.783   7.594  18.118  0.00  0.00    +0.000 A 
ATOM      5 CL   UNL     1       1.323   8.515  18.225  0.00  0.00    +0.000 Cl
ATOM      6  C   UNL     1       3.137   6.585  19.025  0.00  0.00    +0.000 A 
ATOM      7  C   UNL     1       4.374   5.950  18.859  0.00  0.00    +0.000 A 
ATOM      8  F   UNL     1       4.730   4.949  19.679  0.00  0.00    +0.000 F 
ENDROOT
BRANCH   6   9
ATOM      9  C   UNL     1       2.173   6.065  20.033  0.00  0.00    +0.000 C 
ATOM     10  O   UNL     1       1.607   6.864  20.775  0.00  0.00    +0.000 OA
BRANCH   9  11
ATOM     11  C   UNL     1       1.768   4.644  20.125  0.00  0.00    +0.000 A 
ATOM     12  C   UNL     1       1.810   3.885  21.296  0.00  0.00    +0.000 A 
ATOM     13  C   UNL     1       1.458   2.534  21.246  0.00  0.00    +0.000 A 
ATOM     14  C   UNL     1       1.052   1.998  20.033  0.00  0.00    +0.000 A 
ATOM     15  N   UNL     1       0.962   2.713  18.893  0.00  0.00    +0.000 NA
ATOM     16  C   UNL     1       1.318   4.018  18.965  0.00  0.00    +0.000 A 
ENDBRANCH   9  11
ENDBRANCH   6   9
BRANCH   1  17
ATOM     17  C   UNL     1       6.544   5.484  17.674  0.00  0.00    +0.000 C 
BRANCH  17  18
ATOM     18  N   UNL     1       6.771   5.239  16.257  0.00  0.00    +0.000 N 
ATOM     19  C   UNL     1       6.123   4.243  15.573  0.00  0.00    +0.000 C 
ATOM     20  O   UNL     1       5.302   3.488  16.076  0.00  0.00    +0.000 OA
ATOM     21  H   UNL     1       7.398   5.853  15.759  0.00  0.00    +0.000 HD
BRANCH  19  22
ATOM     22  C   UNL     1       6.471   4.145  14.141  0.00  0.00    +0.000 C 
ATOM     23  C   UNL     1       5.971   3.333  13.204  0.00  0.00    +0.000 C 
ATOM     24  C   UNL     1       6.564   3.649  11.879  0.00  0.00    +0.000 C 
ATOM     25  N   UNL     1       7.583   4.678  12.126  0.00  0.00    +0.000 NA
ATOM     26  C   UNL     1       7.459   5.081  13.544  0.00  0.00    +0.000 C 
ATOM     27  H   UNL     1       7.404   5.486  11.533  0.00  0.00    +0.000 HD
ENDBRANCH  19  22
ENDBRANCH  17  18
BRANCH  17  29
ATOM     28  C   UNL     1       8.037   5.671  19.749  0.00  0.00    +0.000 C 
ATOM     29  C   UNL     1       7.802   6.114  18.311  0.00  0.00    +0.000 C 
ENDBRANCH  17  29
ENDBRANCH   1  17
TORSDOF 6
ENDMDL
MODEL 4
REMARK VINA RESULT:      -7.2      0.995      1.481
REMARK  Name = 
REMARK  7 active torsions:
REMARK  status: ('A' for Active; 'I' for Inactive)
REMARK    1  A    between atoms: C_1  and  C_2
REMARK    2  A    between atoms: C_2  and  C_3
REMARK    3  A    between atoms: C_3  and  N_4
REMARK    4  A    between atoms: C_3  and  C_12
REMARK    5  A    between atoms: C_5  and  C_7
REMARK    6  A    between atoms: C_17  and  C_18
REMARK    7  A    between atoms: C_18  and  C_20
REMARK                            x       y       z     vdW  Elec       q    Type
REMARK                         _______ _______ _______ _____ _____    ______ ____
ROOT
ATOM      1  C   UNL     1       1.288   9.442  19.301  0.00  0.00    +0.000 A 
ATOM      2  C   UNL     1       0.784   9.091  20.557  0.00  0.00    +0.000 A 
ATOM      3  C   UNL     1       1.057   7.832  21.097  0.00  0.00    +0.000 A 
ATOM      4  C   UNL     1       1.809   6.892  20.380  0.00  0.00    +0.000 A 
ATOM      5 CL   UNL     1       2.109   5.389  21.179  0.00  0.00    +0.000 Cl
ATOM      6  C   UNL     1       2.290   7.203  19.100  0.00  0.00    +0.000 A 
ATOM      7  C   UNL     1       2.022   8.478  18.585  0.00  0.00    +0.000 A 
ATOM      8  F   UNL     1       2.425   8.799  17.346  0.00  0.00    +0.000 F 
ENDROOT
BRANCH   6   9
ATOM      9  C   UNL     1       2.912   6.172  18.225  0.00  0.00    +0.000 C 
ATOM     10  O   UNL     1       2.180   5.387  17.627  0.00  0.00    +0.000 OA
BRANCH   9  11
ATOM     11  C   UNL     1       4.363   6.101  17.944  0.00  0.00    +0.000 A 
ATOM     12  C   UNL     1       5.306   5.529  18.798  0.00  0.00    +0.000 A 
ATOM     13  C   UNL     1       6.659   5.574  18.449  0.00  0.00    +0.000 A 
ATOM     14  C   UNL     1       7.015   6.167  17.247  0.00  0.00    +0.000 A 
ATOM     15  N   UNL     1       6.125   6.692  16.381  0.00  0.00    +0.000 NA
ATOM     16  C   UNL     1       4.822   6.645  16.746  0.00  0.00    +0.000 A 
ENDBRANCH   9  11
ENDBRANCH   6   9
BRANCH   1  17
ATOM     17  C   UNL     1       0.984  10.769  18.625  0.00  0.00    +0.000 C 
BRANCH  17  18
ATOM     18  N   UNL     1      -0.450  11.009  18.720  0.00  0.00    +0.000 N 
ATOM     19  C   UNL     1      -1.349  10.418  17.872  0.00  0.00    +0.000 C 
ATOM     20  O   UNL     1      -1.039   9.639  16.979  0.00  0.00    +0.000 OA
ATOM     21  H   UNL     1      -0.788  11.601  19.464  0.00  0.00    +0.000 HD
BRANCH  19  22
ATOM     22  C   UNL     1      -2.761  10.769  18.119  0.00  0.00    +0.000 C 
ATOM     23  C   UNL     1      -3.872  10.171  17.676  0.00  0.00    +0.000 C 
ATOM     24  C   UNL     1      -5.075  10.824  18.253  0.00  0.00    +0.000 C 
ATOM     25  N   UNL     1      -4.582  11.980  19.015  0.00  0.00    +0.000 NA
ATOM     26  C   UNL     1      -3.105  11.893  19.029  0.00  0.00    +0.000 C 
ATOM     27  H   UNL     1      -4.927  11.931  19.971  0.00  0.00    +0.000 HD
ENDBRANCH  19  22
ENDBRANCH  17  18
BRANCH  17  29
ATOM     28  C   UNL     1       2.560  12.718  18.088  0.00  0.00    +0.000 C 
ATOM     29  C   UNL     1       1.762  11.990  19.162  0.00  0.00    +0.000 C 
ENDBRANCH  17  29
ENDBRANCH   1  17
TORSDOF 6
ENDMDL
MODEL 5
REMARK VINA RESULT:      -7.2      1.941      2.817
REMARK  Name = 
REMARK  7 active torsions:
REMARK  status: ('A' for Active; 'I' for Inactive)
REMARK    1  A    between atoms: C_1  and  C_2
REMARK    2  A    between atoms: C_2  and  C_3
REMARK    3  A    between atoms: C_3  and  N_4
REMARK    4  A    between atoms: C_3  and  C_12
REMARK    5  A    between atoms: C_5  and  C_7
REMARK    6  A    between atoms: C_17  and  C_18
REMARK    7  A    between atoms: C_18  and  C_20
REMARK                            x       y       z     vdW  Elec       q    Type
REMARK                         _______ _______ _______ _____ _____    ______ ____
ROOT
ATOM      1  C   UNL     1       1.733   7.197  20.362  0.00  0.00    +0.000 A 
ATOM      2  C   UNL     1       0.974   6.160  20.914  0.00  0.00    +0.000 A 
ATOM      3  C   UNL     1       1.244   4.833  20.572  0.00  0.00    +0.000 A 
ATOM      4  C   UNL     1       2.251   4.521  19.650  0.00  0.00    +0.000 A 
ATOM      5 CL   UNL     1       2.509   2.839  19.346  0.00  0.00    +0.000 Cl
ATOM      6  C   UNL     1       2.998   5.545  19.049  0.00  0.00    +0.000 A 
ATOM      7  C   UNL     1       2.726   6.867  19.421  0.00  0.00    +0.000 A 
ATOM      8  F   UNL     1       3.387   7.878  18.837  0.00  0.00    +0.000 F 
ENDROOT
BRANCH   6   9
ATOM      9  C   UNL     1       3.931   5.275  17.921  0.00  0.00    +0.000 C 
ATOM     10  O   UNL     1       3.510   4.667  16.940  0.00  0.00    +0.000 OA
BRANCH   9  11
ATOM     11  C   UNL     1       5.317   5.791  17.860  0.00  0.00    +0.000 A 
ATOM     12  C   UNL     1       6.324   5.460  18.768  0.00  0.00    +0.000 A 
ATOM     13  C   UNL     1       7.581   6.059  18.641  0.00  0.00    +0.000 A 
ATOM     14  C   UNL     1       7.791   6.946  17.596  0.00  0.00    +0.000 A 
ATOM     15  N   UNL     1       6.852   7.256  16.679  0.00  0.00    +0.000 NA
ATOM     16  C   UNL     1       5.640   6.671  16.829  0.00  0.00    +0.000 A 
ENDBRANCH   9  11
ENDBRANCH   6   9
BRANCH   1  17
ATOM     17  C   UNL     1       1.460   8.666  20.642  0.00  0.00    +0.000 C 
BRANCH  17  18
ATOM     18  N   UNL     1       0.380   9.102  19.767  0.00  0.00    +0.000 N 
ATOM     19  C   UNL     1       0.440  10.275  19.059  0.00  0.00    +0.000 C 
ATOM     20  O   UNL     1       1.392  11.044  19.087  0.00  0.00    +0.000 OA
ATOM     21  H   UNL     1      -0.418   8.496  19.652  0.00  0.00    +0.000 HD
BRANCH  19  22
ATOM     22  C   UNL     1      -0.740  10.553  18.217  0.00  0.00    +0.000 C 
ATOM     23  C   UNL     1      -1.416   9.730  17.409  0.00  0.00    +0.000 C 
ATOM     24  C   UNL     1      -2.590  10.428  16.826  0.00  0.00    +0.000 C 
ATOM     25  N   UNL     1      -2.496  11.824  17.277  0.00  0.00    +0.000 NA
ATOM     26  C   UNL     1      -1.384  11.892  18.251  0.00  0.00    +0.000 C 
ATOM     27  H   UNL     1      -3.362  12.093  17.739  0.00  0.00    +0.000 HD
ENDBRANCH  19  22
ENDBRANCH  17  18
BRANCH  17  29
ATOM     28  C   UNL     1      -0.359   9.239  22.356  0.00  0.00    +0.000 C 
ATOM     29  C   UNL     1       1.128   9.020  22.108  0.00  0.00    +0.000 C 
ENDBRANCH  17  29
ENDBRANCH   1  17
TORSDOF 6
ENDMDL
MODEL 6
REMARK VINA RESULT:      -7.1      3.154      5.137
REMARK  Name = 
REMARK  7 active torsions:
REMARK  status: ('A' for Active; 'I' for Inactive)
REMARK    1  A    between atoms: C_1  and  C_2
REMARK    2  A    between atoms: C_2  and  C_3
REMARK    3  A    between atoms: C_3  and  N_4
REMARK    4  A    between atoms: C_3  and  C_12
REMARK    5  A    between atoms: C_5  and  C_7
REMARK    6  A    between atoms: C_17  and  C_18
REMARK    7  A    between atoms: C_18  and  C_20
REMARK                            x       y       z     vdW  Elec       q    Type
REMARK                         _______ _______ _______ _____ _____    ______ ____
ROOT
ATOM      1  C   UNL     1       3.317   4.958  18.817  0.00  0.00    +0.000 A 
ATOM      2  C   UNL     1       2.813   4.320  17.678  0.00  0.00    +0.000 A 
ATOM      3  C   UNL     1       3.683   3.856  16.690  0.00  0.00    +0.000 A 
ATOM      4  C   UNL     1       5.067   4.049  16.804  0.00  0.00    +0.000 A 
ATOM      5 CL   UNL     1       6.034   3.390  15.531  0.00  0.00    +0.000 Cl
ATOM      6  C   UNL     1       5.594   4.723  17.915  0.00  0.00    +0.000 A 
ATOM      7  C   UNL     1       4.706   5.162  18.905  0.00  0.00    +0.000 A 
ATOM      8  F   UNL     1       5.166   5.850  19.961  0.00  0.00    +0.000 F 
ENDROOT
BRANCH   6   9
ATOM      9  C   UNL     1       7.025   5.127  17.978  0.00  0.00    +0.000 C 
ATOM     10  O   UNL     1       7.888   4.255  17.907  0.00  0.00    +0.000 OA
BRANCH   9  11
ATOM     11  C   UNL     1       7.480   6.535  18.014  0.00  0.00    +0.000 A 
ATOM     12  C   UNL     1       8.384   7.050  18.944  0.00  0.00    +0.000 A 
ATOM     13  C   UNL     1       8.693   8.413  18.914  0.00  0.00    +0.000 A 
ATOM     14  C   UNL     1       8.105   9.205  17.938  0.00  0.00    +0.000 A 
ATOM     15  N   UNL     1       7.259   8.732  17.001  0.00  0.00    +0.000 NA
ATOM     16  C   UNL     1       6.968   7.409  17.058  0.00  0.00    +0.000 A 
ENDBRANCH   9  11
ENDBRANCH   6   9
BRANCH   1  17
ATOM     17  C   UNL     1       2.428   5.540  19.904  0.00  0.00    +0.000 C 
BRANCH  17  18
ATOM     18  N   UNL     1       1.998   6.864  19.479  0.00  0.00    +0.000 N 
ATOM     19  C   UNL     1       1.589   7.823  20.369  0.00  0.00    +0.000 C 
ATOM     20  O   UNL     1       1.557   7.662  21.582  0.00  0.00    +0.000 OA
ATOM     21  H   UNL     1       2.044   7.091  18.496  0.00  0.00    +0.000 HD
BRANCH  19  22
ATOM     22  C   UNL     1       1.196   9.109  19.761  0.00  0.00    +0.000 C 
ATOM     23  C   UNL     1       0.798  10.239  20.356  0.00  0.00    +0.000 C 
ATOM     24  C   UNL     1       0.587  11.307  19.345  0.00  0.00    +0.000 C 
ATOM     25  N   UNL     1       0.788  10.670  18.036  0.00  0.00    +0.000 NA
ATOM     26  C   UNL     1       1.282   9.300  18.290  0.00  0.00    +0.000 C 
ATOM     27  H   UNL     1       1.490  11.186  17.509  0.00  0.00    +0.000 HD
ENDBRANCH  19  22
ENDBRANCH  17  18
BRANCH  17  29
ATOM     28  C   UNL     1       1.565   3.452  21.114  0.00  0.00    +0.000 C 
ATOM     29  C   UNL     1       1.203   4.687  20.299  0.00  0.00    +0.000 C 
ENDBRANCH  17  29
ENDBRANCH   1  17
TORSDOF 6
ENDMDL
MODEL 7
REMARK VINA RESULT:      -7.1      1.309      1.787
REMARK  Name = 
REMARK  7 active torsions:
REMARK  status: ('A' for Active; 'I' for Inactive)
REMARK    1  A    between atoms: C_1  and  C_2
REMARK    2  A    between atoms: C_2  and  C_3
REMARK    3  A    between atoms: C_3  and  N_4
REMARK    4  A    between atoms: C_3  and  C_12
REMARK    5  A    between atoms: C_5  and  C_7
REMARK    6  A    between atoms: C_17  and  C_18
REMARK    7  A    between atoms: C_18  and  C_20
REMARK                            x       y       z     vdW  Elec       q    Type
REMARK                         _______ _______ _______ _____ _____    ______ ____
ROOT
ATOM      1  C   UNL     1       1.672   8.997  19.126  0.00  0.00    +0.000 A 
ATOM      2  C   UNL     1       1.138   8.749  20.395  0.00  0.00    +0.000 A 
ATOM      3  C   UNL     1       1.286   7.494  20.987  0.00  0.00    +0.000 A 
ATOM      4  C   UNL     1       1.940   6.455  20.311  0.00  0.00    +0.000 A 
ATOM      5 CL   UNL     1       2.091   4.963  21.173  0.00  0.00    +0.000 Cl
ATOM      6  C   UNL     1       2.447   6.664  19.021  0.00  0.00    +0.000 A 
ATOM      7  C   UNL     1       2.306   7.936  18.453  0.00  0.00    +0.000 A 
ATOM      8  F   UNL     1       2.737   8.165  17.203  0.00  0.00    +0.000 F 
ENDROOT
BRANCH   6   9
ATOM      9  C   UNL     1       2.963   5.541  18.191  0.00  0.00    +0.000 C 
ATOM     10  O   UNL     1       2.160   4.855  17.563  0.00  0.00    +0.000 OA
BRANCH   9  11
ATOM     11  C   UNL     1       4.402   5.264  17.988  0.00  0.00    +0.000 A 
ATOM     12  C   UNL     1       5.384   5.427  18.967  0.00  0.00    +0.000 A 
ATOM     13  C   UNL     1       6.722   5.188  18.638  0.00  0.00    +0.000 A 
ATOM     14  C   UNL     1       7.025   4.771  17.350  0.00  0.00    +0.000 A 
ATOM     15  N   UNL     1       6.097   4.565  16.394  0.00  0.00    +0.000 NA
ATOM     16  C   UNL     1       4.809   4.813  16.734  0.00  0.00    +0.000 A 
ENDBRANCH   9  11
ENDBRANCH   6   9
BRANCH   1  17
ATOM     17  C   UNL     1       1.499  10.319  18.396  0.00  0.00    +0.000 C 
BRANCH  17  18
ATOM     18  N   UNL     1       0.211  10.299  17.718  0.00  0.00    +0.000 N 
ATOM     19  C   UNL     1      -0.934  10.772  18.306  0.00  0.00    +0.000 C 
ATOM     20  O   UNL     1      -0.977  11.256  19.430  0.00  0.00    +0.000 OA
ATOM     21  H   UNL     1       0.174   9.960  16.768  0.00  0.00    +0.000 HD
BRANCH  19  22
ATOM     22  C   UNL     1      -2.146  10.680  17.470  0.00  0.00    +0.000 C 
ATOM     23  C   UNL     1      -2.312  10.089  16.281  0.00  0.00    +0.000 C 
ATOM     24  C   UNL     1      -3.732  10.176  15.855  0.00  0.00    +0.000 C 
ATOM     25  N   UNL     1      -4.409  10.999  16.867  0.00  0.00    +0.000 NA
ATOM     26  C   UNL     1      -3.436  11.234  17.957  0.00  0.00    +0.000 C 
ATOM     27  H   UNL     1      -5.210  10.492  17.239  0.00  0.00    +0.000 HD
ENDBRANCH  19  22
ENDBRANCH  17  18
BRANCH  17  29
ATOM     28  C   UNL     1       2.286  12.754  18.547  0.00  0.00    +0.000 C 
ATOM     29  C   UNL     1       1.619  11.588  19.267  0.00  0.00    +0.000 C 
ENDBRANCH  17  29
ENDBRANCH   1  17
TORSDOF 6
ENDMDL
MODEL 8
REMARK VINA RESULT:      -6.9      2.630      3.765
REMARK  Name = 
REMARK  7 active torsions:
REMARK  status: ('A' for Active; 'I' for Inactive)
REMARK    1  A    between atoms: C_1  and  C_2
REMARK    2  A    between atoms: C_2  and  C_3
REMARK    3  A    between atoms: C_3  and  N_4
REMARK    4  A    between atoms: C_3  and  C_12
REMARK    5  A    between atoms: C_5  and  C_7
REMARK    6  A    between atoms: C_17  and  C_18
REMARK    7  A    between atoms: C_18  and  C_20
REMARK                            x       y       z     vdW  Elec       q    Type
REMARK                         _______ _______ _______ _____ _____    ______ ____
ROOT
ATOM      1  C   UNL     1       1.230   9.003  19.524  0.00  0.00    +0.000 A 
ATOM      2  C   UNL     1       1.763   9.669  18.415  0.00  0.00    +0.000 A 
ATOM      3  C   UNL     1       2.666   9.019  17.572  0.00  0.00    +0.000 A 
ATOM      4  C   UNL     1       3.078   7.707  17.838  0.00  0.00    +0.000 A 
ATOM      5 CL   UNL     1       4.167   7.005  16.692  0.00  0.00    +0.000 Cl
ATOM      6  C   UNL     1       2.592   7.031  18.966  0.00  0.00    +0.000 A 
ATOM      7  C   UNL     1       1.672   7.693  19.788  0.00  0.00    +0.000 A 
ATOM      8  F   UNL     1       1.218   7.099  20.902  0.00  0.00    +0.000 F 
ENDROOT
BRANCH   6   9
ATOM      9  C   UNL     1       3.154   5.722  19.397  0.00  0.00    +0.000 C 
ATOM     10  O   UNL     1       4.317   5.681  19.792  0.00  0.00    +0.000 OA
BRANCH   9  11
ATOM     11  C   UNL     1       2.361   4.476  19.482  0.00  0.00    +0.000 A 
ATOM     12  C   UNL     1       2.077   3.798  20.669  0.00  0.00    +0.000 A 
ATOM     13  C   UNL     1       1.366   2.596  20.616  0.00  0.00    +0.000 A 
ATOM     14  C   UNL     1       0.943   2.129  19.379  0.00  0.00    +0.000 A 
ATOM     15  N   UNL     1       1.165   2.780  18.219  0.00  0.00    +0.000 NA
ATOM     16  C   UNL     1       1.865   3.937  18.297  0.00  0.00    +0.000 A 
ENDBRANCH   9  11
ENDBRANCH   6   9
BRANCH   1  17
ATOM     17  C   UNL     1       0.289   9.665  20.517  0.00  0.00    +0.000 C 
BRANCH  17  18
ATOM     18  N   UNL     1      -0.910  10.076  19.802  0.00  0.00    +0.000 N 
ATOM     19  C   UNL     1      -1.231  11.395  19.607  0.00  0.00    +0.000 C 
ATOM     20  O   UNL     1      -0.547  12.332  19.999  0.00  0.00    +0.000 OA
ATOM     21  H   UNL     1      -1.500   9.361  19.404  0.00  0.00    +0.000 HD
BRANCH  19  22
ATOM     22  C   UNL     1      -2.479  11.627  18.854  0.00  0.00    +0.000 C 
ATOM     23  C   UNL     1      -2.799  11.252  17.611  0.00  0.00    +0.000 C 
ATOM     24  C   UNL     1      -4.201  11.632  17.302  0.00  0.00    +0.000 C 
ATOM     25  N   UNL     1      -4.678  12.397  18.463  0.00  0.00    +0.000 NA
ATOM     26  C   UNL     1      -3.630  12.307  19.503  0.00  0.00    +0.000 C 
ATOM     27  H   UNL     1      -5.536  11.979  18.817  0.00  0.00    +0.000 HD
ENDBRANCH  19  22
ENDBRANCH  17  18
BRANCH  17  29
ATOM     28  C   UNL     1      -0.020   9.585  23.061  0.00  0.00    +0.000 C 
ATOM     29  C   UNL     1      -0.094   8.815  21.749  0.00  0.00    +0.000 C 
ENDBRANCH  17  29
ENDBRANCH   1  17
TORSDOF 6
ENDMDL
MODEL 9
REMARK VINA RESULT:      -6.9      1.094      1.338
REMARK  Name = 
REMARK  7 active torsions:
REMARK  status: ('A' for Active; 'I' for Inactive)
REMARK    1  A    between atoms: C_1  and  C_2
REMARK    2  A    between atoms: C_2  and  C_3
REMARK    3  A    between atoms: C_3  and  N_4
REMARK    4  A    between atoms: C_3  and  C_12
REMARK    5  A    between atoms: C_5  and  C_7
REMARK    6  A    between atoms: C_17  and  C_18
REMARK    7  A    between atoms: C_18  and  C_20
REMARK                            x       y       z     vdW  Elec       q    Type
REMARK                         _______ _______ _______ _____ _____    ______ ____
ROOT
ATOM      1  C   UNL     1       1.178   9.340  19.432  0.00  0.00    +0.000 A 
ATOM      2  C   UNL     1       0.752   8.932  20.700  0.00  0.00    +0.000 A 
ATOM      3  C   UNL     1       1.117   7.679  21.195  0.00  0.00    +0.000 A 
ATOM      4  C   UNL     1       1.884   6.798  20.421  0.00  0.00    +0.000 A 
ATOM      5 CL   UNL     1       2.300   5.295  21.168  0.00  0.00    +0.000 Cl
ATOM      6  C   UNL     1       2.288   7.164  19.129  0.00  0.00    +0.000 A 
ATOM      7  C   UNL     1       1.929   8.434  18.660  0.00  0.00    +0.000 A 
ATOM      8  F   UNL     1       2.257   8.805  17.413  0.00  0.00    +0.000 F 
ENDROOT
BRANCH   6   9
ATOM      9  C   UNL     1       2.923   6.189  18.202  0.00  0.00    +0.000 C 
ATOM     10  O   UNL     1       2.201   5.430  17.560  0.00  0.00    +0.000 OA
BRANCH   9  11
ATOM     11  C   UNL     1       4.376   6.149  17.921  0.00  0.00    +0.000 A 
ATOM     12  C   UNL     1       5.327   5.569  18.762  0.00  0.00    +0.000 A 
ATOM     13  C   UNL     1       6.680   5.645  18.417  0.00  0.00    +0.000 A 
ATOM     14  C   UNL     1       7.028   6.277  17.232  0.00  0.00    +0.000 A 
ATOM     15  N   UNL     1       6.131   6.811  16.378  0.00  0.00    +0.000 NA
ATOM     16  C   UNL     1       4.827   6.733  16.740  0.00  0.00    +0.000 A 
ENDBRANCH   9  11
ENDBRANCH   6   9
BRANCH   1  17
ATOM     17  C   UNL     1       0.772  10.663  18.805  0.00  0.00    +0.000 C 
BRANCH  17  18
ATOM     18  N   UNL     1      -0.620  10.921  19.147  0.00  0.00    +0.000 N 
ATOM     19  C   UNL     1      -1.345  11.925  18.560  0.00  0.00    +0.000 C 
ATOM     20  O   UNL     1      -0.902  12.678  17.702  0.00  0.00    +0.000 OA
ATOM     21  H   UNL     1      -1.071  10.309  19.811  0.00  0.00    +0.000 HD
BRANCH  19  22
ATOM     22  C   UNL     1      -2.742  12.035  19.022  0.00  0.00    +0.000 C 
ATOM     23  C   UNL     1      -3.225  12.618  20.125  0.00  0.00    +0.000 C 
ATOM     24  C   UNL     1      -4.709  12.558  20.133  0.00  0.00    +0.000 C 
ATOM     25  N   UNL     1      -5.088  11.759  18.959  0.00  0.00    +0.000 NA
ATOM     26  C   UNL     1      -3.852  11.513  18.183  0.00  0.00    +0.000 C 
ATOM     27  H   UNL     1      -5.742  12.286  18.385  0.00  0.00    +0.000 HD
ENDBRANCH  19  22
ENDBRANCH  17  18
BRANCH  17  29
ATOM     28  C   UNL     1       2.569  12.333  18.060  0.00  0.00    +0.000 C 
ATOM     29  C   UNL     1       1.644  11.881  19.183  0.00  0.00    +0.000 C 
ENDBRANCH  17  29
ENDBRANCH   1  17
TORSDOF 6
ENDMDL
