MODEL 1
REMARK VINA RESULT:      -7.9      0.000      0.000
REMARK  Name = 
REMARK  5 active torsions:
REMARK  status: ('A' for Active; 'I' for Inactive)
REMARK    1  A    between atoms: C_3  and  C_4
REMARK    2  A    between atoms: N_5  and  O_6
REMARK    3  A    between atoms: C_13  and  O_14
REMARK    4  A    between atoms: O_14  and  C_15
REMARK    5  A    between atoms: C_15  and  C_16
REMARK                            x       y       z     vdW  Elec       q    Type
REMARK                         _______ _______ _______ _____ _____    ______ ____
ROOT
ATOM      1  O   UNL     1       4.348   3.906  16.142  0.00  0.00    +0.000 OA
ATOM      2  C   UNL     1       5.513   4.251  16.038  0.00  0.00    +0.000 A 
ATOM      3  C   UNL     1       6.192   4.193  14.724  0.00  0.00    +0.000 A 
ATOM      4  C   UNL     1       7.131   5.119  14.510  0.00  0.00    +0.000 A 
ATOM      5  O   UNL     1       7.525   6.072  15.421  0.00  0.00    +0.000 OA
ATOM      6  C   UNL     1       7.199   5.845  16.742  0.00  0.00    +0.000 A 
ATOM      7  C   UNL     1       7.826   6.667  17.672  0.00  0.00    +0.000 A 
ATOM      8  C   UNL     1       7.577   6.475  19.027  0.00  0.00    +0.000 A 
ATOM      9  C   UNL     1       6.769   5.411  19.448  0.00  0.00    +0.000 A 
ATOM     10  C   UNL     1       6.165   4.542  18.523  0.00  0.00    +0.000 A 
ATOM     11  C   UNL     1       6.304   4.839  17.147  0.00  0.00    +0.000 A 
ENDROOT
BRANCH   3  12
ATOM     12  C   UNL     1       5.798   3.241  13.665  0.00  0.00    +0.000 C 
ATOM     13  N   UNL     1       6.261   3.291  12.456  0.00  0.00    +0.000 NA
BRANCH  13  14
ATOM     14  O   UNL     1       5.707   2.242  11.712  0.00  0.00    +0.000 OA
ATOM     15  H   UNL     1       6.450   1.975  11.137  0.00  0.00    +0.000 HD
ENDBRANCH  13  14
ENDBRANCH   3  12
BRANCH  10  16
ATOM     16  O   UNL     1       5.559   3.444  19.122  0.00  0.00    +0.000 OA
BRANCH  16  17
ATOM     17  C   UNL     1       4.277   3.746  19.672  0.00  0.00    +0.000 C 
BRANCH  17  18
ATOM     18  C   UNL     1       3.335   2.574  20.023  0.00  0.00    +0.000 C 
ATOM     19  C   UNL     1       2.465   3.060  21.205  0.00  0.00    +0.000 C 
ATOM     20  C   UNL     1       1.332   3.972  20.739  0.00  0.00    +0.000 C 
ATOM     21  C   UNL     1       0.388   3.167  19.865  0.00  0.00    +0.000 C 
ATOM     22  C   UNL     1       1.112   2.653  18.624  0.00  0.00    +0.000 C 
ATOM     23  C   UNL     1       2.465   1.978  18.901  0.00  0.00    +0.000 C 
ENDBRANCH  17  18
ENDBRANCH  16  17
ENDBRANCH  10  16
TORSDOF 5
ENDMDL
MODEL 2
REMARK VINA RESULT:      -7.8      5.244      6.761
REMARK  Name = 
REMARK  5 active torsions:
REMARK  status: ('A' for Active; 'I' for Inactive)
REMARK    1  A    between atoms: C_3  and  C_4
REMARK    2  A    between atoms: N_5  and  O_6
REMARK    3  A    between atoms: C_13  and  O_14
REMARK    4  A    between atoms: O_14  and  C_15
REMARK    5  A    between atoms: C_15  and  C_16
REMARK                            x       y       z     vdW  Elec       q    Type
REMARK                         _______ _______ _______ _____ _____    ______ ____
ROOT
ATOM      1  O   UNL     1       1.457   8.685  21.280  0.00  0.00    +0.000 OA
ATOM      2  C   UNL     1       1.438   8.601  20.063  0.00  0.00    +0.000 A 
ATOM      3  C   UNL     1       0.679   9.586  19.261  0.00  0.00    +0.000 A 
ATOM      4  C   UNL     1       1.178   9.865  18.054  0.00  0.00    +0.000 A 
ATOM      5  O   UNL     1       2.297   9.283  17.506  0.00  0.00    +0.000 OA
ATOM      6  C   UNL     1       2.724   8.099  18.070  0.00  0.00    +0.000 A 
ATOM      7  C   UNL     1       3.682   7.392  17.350  0.00  0.00    +0.000 A 
ATOM      8  C   UNL     1       4.134   6.170  17.836  0.00  0.00    +0.000 A 
ATOM      9  C   UNL     1       3.568   5.623  18.995  0.00  0.00    +0.000 A 
ATOM     10  C   UNL     1       2.567   6.302  19.710  0.00  0.00    +0.000 A 
ATOM     11  C   UNL     1       2.223   7.608  19.290  0.00  0.00    +0.000 A 
ENDROOT
BRANCH   3  12
ATOM     12  C   UNL     1      -0.501  10.303  19.787  0.00  0.00    +0.000 C 
ATOM     13  N   UNL     1      -0.994  11.365  19.233  0.00  0.00    +0.000 NA
BRANCH  13  14
ATOM     14  O   UNL     1      -2.114  11.783  19.961  0.00  0.00    +0.000 OA
ATOM     15  H   UNL     1      -1.789  11.761  20.882  0.00  0.00    +0.000 HD
ENDBRANCH  13  14
ENDBRANCH   3  12
BRANCH  10  16
ATOM     16  O   UNL     1       1.997   5.531  20.716  0.00  0.00    +0.000 OA
BRANCH  16  17
ATOM     17  C   UNL     1       1.004   4.627  20.231  0.00  0.00    +0.000 C 
BRANCH  17  18
ATOM     18  C   UNL     1       1.212   3.115  20.466  0.00  0.00    +0.000 C 
ATOM     19  C   UNL     1       0.863   2.421  19.128  0.00  0.00    +0.000 C 
ATOM     20  C   UNL     1       2.002   2.530  18.117  0.00  0.00    +0.000 C 
ATOM     21  C   UNL     1       3.200   1.768  18.651  0.00  0.00    +0.000 C 
ATOM     22  C   UNL     1       3.684   2.378  19.963  0.00  0.00    +0.000 C 
ATOM     23  C   UNL     1       2.578   2.642  20.997  0.00  0.00    +0.000 C 
ENDBRANCH  17  18
ENDBRANCH  16  17
ENDBRANCH  10  16
TORSDOF 5
ENDMDL
MODEL 3
REMARK VINA RESULT:      -7.7      5.637      7.510
REMARK  Name = 
REMARK  5 active torsions:
REMARK  status: ('A' for Active; 'I' for Inactive)
REMARK    1  A    between atoms: C_3  and  C_4
REMARK    2  A    between atoms: N_5  and  O_6
REMARK    3  A    between atoms: C_13  and  O_14
REMARK    4  A    between atoms: O_14  and  C_15
REMARK    5  A    between atoms: C_15  and  C_16
REMARK                            x       y       z     vdW  Elec       q    Type
REMARK                         _______ _______ _______ _____ _____    ______ ____
ROOT
ATOM      1  O   UNL     1       1.596   8.519  22.154  0.00  0.00    +0.000 OA
ATOM      2  C   UNL     1       1.295   8.676  20.982  0.00  0.00    +0.000 A 
ATOM      3  C   UNL     1       0.399   9.786  20.586  0.00  0.00    +0.000 A 
ATOM      4  C   UNL     1       0.614  10.306  19.375  0.00  0.00    +0.000 A 
ATOM      5  O   UNL     1       1.560   9.863  18.480  0.00  0.00    +0.000 OA
ATOM      6  C   UNL     1       2.072   8.600  18.687  0.00  0.00    +0.000 A 
ATOM      7  C   UNL     1       2.818   8.066  17.641  0.00  0.00    +0.000 A 
ATOM      8  C   UNL     1       3.336   6.781  17.760  0.00  0.00    +0.000 A 
ATOM      9  C   UNL     1       3.037   6.006  18.888  0.00  0.00    +0.000 A 
ATOM     10  C   UNL     1       2.247   6.513  19.934  0.00  0.00    +0.000 A 
ATOM     11  C   UNL     1       1.853   7.869  19.869  0.00  0.00    +0.000 A 
ENDROOT
BRANCH   3  12
ATOM     12  C   UNL     1      -0.607  10.362  21.501  0.00  0.00    +0.000 C 
ATOM     13  N   UNL     1      -0.310  11.179  22.463  0.00  0.00    +0.000 NA
BRANCH  13  14
ATOM     14  O   UNL     1      -1.485  11.554  23.124  0.00  0.00    +0.000 OA
ATOM     15  H   UNL     1      -1.194  12.317  23.658  0.00  0.00    +0.000 HD
ENDBRANCH  13  14
ENDBRANCH   3  12
BRANCH  10  16
ATOM     16  O   UNL     1       1.903   5.548  20.873  0.00  0.00    +0.000 OA
BRANCH  16  17
ATOM     17  C   UNL     1       0.958   4.599  20.378  0.00  0.00    +0.000 C 
BRANCH  17  18
ATOM     18  C   UNL     1       1.270   3.097  20.549  0.00  0.00    +0.000 C 
ATOM     19  C   UNL     1       0.899   2.426  19.205  0.00  0.00    +0.000 C 
ATOM     20  C   UNL     1       1.978   2.640  18.146  0.00  0.00    +0.000 C 
ATOM     21  C   UNL     1       3.246   1.938  18.595  0.00  0.00    +0.000 C 
ATOM     22  C   UNL     1       3.755   2.535  19.905  0.00  0.00    +0.000 C 
ATOM     23  C   UNL     1       2.687   2.693  20.998  0.00  0.00    +0.000 C 
ENDBRANCH  17  18
ENDBRANCH  16  17
ENDBRANCH  10  16
TORSDOF 5
ENDMDL
MODEL 4
REMARK VINA RESULT:      -7.6      0.696      1.316
REMARK  Name = 
REMARK  5 active torsions:
REMARK  status: ('A' for Active; 'I' for Inactive)
REMARK    1  A    between atoms: C_3  and  C_4
REMARK    2  A    between atoms: N_5  and  O_6
REMARK    3  A    between atoms: C_13  and  O_14
REMARK    4  A    between atoms: O_14  and  C_15
REMARK    5  A    between atoms: C_15  and  C_16
REMARK                            x       y       z     vdW  Elec       q    Type
REMARK                         _______ _______ _______ _____ _____    ______ ____
ROOT
ATOM      1  O   UNL     1       4.129   4.162  15.713  0.00  0.00    +0.000 OA
ATOM      2  C   UNL     1       5.334   4.348  15.739  0.00  0.00    +0.000 A 
ATOM      3  C   UNL     1       6.133   4.235  14.498  0.00  0.00    +0.000 A 
ATOM      4  C   UNL     1       7.202   5.030  14.417  0.00  0.00    +0.000 A 
ATOM      5  O   UNL     1       7.622   5.894  15.401  0.00  0.00    +0.000 OA
ATOM      6  C   UNL     1       7.135   5.678  16.672  0.00  0.00    +0.000 A 
ATOM      7  C   UNL     1       7.764   6.380  17.694  0.00  0.00    +0.000 A 
ATOM      8  C   UNL     1       7.353   6.186  19.008  0.00  0.00    +0.000 A 
ATOM      9  C   UNL     1       6.372   5.230  19.302  0.00  0.00    +0.000 A 
ATOM     10  C   UNL     1       5.758   4.478  18.286  0.00  0.00    +0.000 A 
ATOM     11  C   UNL     1       6.077   4.791  16.944  0.00  0.00    +0.000 A 
ENDROOT
BRANCH   3  12
ATOM     12  C   UNL     1       5.728   3.375  13.366  0.00  0.00    +0.000 C 
ATOM     13  N   UNL     1       6.345   3.362  12.226  0.00  0.00    +0.000 NA
BRANCH  13  14
ATOM     14  O   UNL     1       5.728   2.430  11.384  0.00  0.00    +0.000 OA
ATOM     15  H   UNL     1       5.428   1.744  12.010  0.00  0.00    +0.000 HD
ENDBRANCH  13  14
ENDBRANCH   3  12
BRANCH  10  16
ATOM     16  O   UNL     1       4.953   3.456  18.776  0.00  0.00    +0.000 OA
BRANCH  16  17
ATOM     17  C   UNL     1       4.173   3.853  19.904  0.00  0.00    +0.000 C 
BRANCH  17  18
ATOM     18  C   UNL     1       2.799   4.508  19.652  0.00  0.00    +0.000 C 
ATOM     19  C   UNL     1       2.328   4.000  18.269  0.00  0.00    +0.000 C 
ATOM     20  C   UNL     1       1.758   2.586  18.347  0.00  0.00    +0.000 C 
ATOM     21  C   UNL     1       0.505   2.613  19.201  0.00  0.00    +0.000 C 
ATOM     22  C   UNL     1       0.832   3.062  20.622  0.00  0.00    +0.000 C 
ATOM     23  C   UNL     1       1.699   4.327  20.714  0.00  0.00    +0.000 C 
ENDBRANCH  17  18
ENDBRANCH  16  17
ENDBRANCH  10  16
TORSDOF 5
ENDMDL
MODEL 5
REMARK VINA RESULT:      -7.4      2.623      4.417
REMARK  Name = 
REMARK  5 active torsions:
REMARK  status: ('A' for Active; 'I' for Inactive)
REMARK    1  A    between atoms: C_3  and  C_4
REMARK    2  A    between atoms: N_5  and  O_6
REMARK    3  A    between atoms: C_13  and  O_14
REMARK    4  A    between atoms: O_14  and  C_15
REMARK    5  A    between atoms: C_15  and  C_16
REMARK                            x       y       z     vdW  Elec       q    Type
REMARK                         _______ _______ _______ _____ _____    ______ ____
ROOT
ATOM      1  O   UNL     1       7.691   5.456  19.645  0.00  0.00    +0.000 OA
ATOM      2  C   UNL     1       7.231   5.874  18.596  0.00  0.00    +0.000 A 
ATOM      3  C   UNL     1       7.776   7.106  17.982  0.00  0.00    +0.000 A 
ATOM      4  C   UNL     1       7.745   7.157  16.648  0.00  0.00    +0.000 A 
ATOM      5  O   UNL     1       7.218   6.184  15.831  0.00  0.00    +0.000 OA
ATOM      6  C   UNL     1       6.357   5.278  16.414  0.00  0.00    +0.000 A 
ATOM      7  C   UNL     1       5.632   4.476  15.538  0.00  0.00    +0.000 A 
ATOM      8  C   UNL     1       4.716   3.564  16.050  0.00  0.00    +0.000 A 
ATOM      9  C   UNL     1       4.469   3.516  17.428  0.00  0.00    +0.000 A 
ATOM     10  C   UNL     1       5.159   4.351  18.324  0.00  0.00    +0.000 A 
ATOM     11  C   UNL     1       6.193   5.166  17.807  0.00  0.00    +0.000 A 
ENDROOT
BRANCH   3  12
ATOM     12  C   UNL     1       8.412   8.177  18.776  0.00  0.00    +0.000 C 
ATOM     13  N   UNL     1       8.525   9.400  18.361  0.00  0.00    +0.000 NA
BRANCH  13  14
ATOM     14  O   UNL     1       9.151  10.163  19.353  0.00  0.00    +0.000 OA
ATOM     15  H   UNL     1      10.055  10.269  19.000  0.00  0.00    +0.000 HD
ENDBRANCH  13  14
ENDBRANCH   3  12
BRANCH  10  16
ATOM     16  O   UNL     1       4.655   4.297  19.618  0.00  0.00    +0.000 OA
BRANCH  16  17
ATOM     17  C   UNL     1       3.671   5.299  19.875  0.00  0.00    +0.000 C 
BRANCH  17  18
ATOM     18  C   UNL     1       2.325   4.863  20.492  0.00  0.00    +0.000 C 
ATOM     19  C   UNL     1       1.268   5.024  19.374  0.00  0.00    +0.000 C 
ATOM     20  C   UNL     1       1.310   3.865  18.381  0.00  0.00    +0.000 C 
ATOM     21  C   UNL     1       0.922   2.590  19.105  0.00  0.00    +0.000 C 
ATOM     22  C   UNL     1       1.915   2.282  20.221  0.00  0.00    +0.000 C 
ATOM     23  C   UNL     1       2.239   3.469  21.141  0.00  0.00    +0.000 C 
ENDBRANCH  17  18
ENDBRANCH  16  17
ENDBRANCH  10  16
TORSDOF 5
ENDMDL
MODEL 6
REMARK VINA RESULT:      -7.4      1.573      2.064
REMARK  Name = 
REMARK  5 active torsions:
REMARK  status: ('A' for Active; 'I' for Inactive)
REMARK    1  A    between atoms: C_3  and  C_4
REMARK    2  A    between atoms: N_5  and  O_6
REMARK    3  A    between atoms: C_13  and  O_14
REMARK    4  A    between atoms: O_14  and  C_15
REMARK    5  A    between atoms: C_15  and  C_16
REMARK                            x       y       z     vdW  Elec       q    Type
REMARK                         _______ _______ _______ _____ _____    ______ ____
ROOT
ATOM      1  O   UNL     1       4.802   6.618  15.177  0.00  0.00    +0.000 OA
ATOM      2  C   UNL     1       5.471   5.674  15.564  0.00  0.00    +0.000 A 
ATOM      3  C   UNL     1       5.985   4.679  14.597  0.00  0.00    +0.000 A 
ATOM      4  C   UNL     1       7.155   4.114  14.905  0.00  0.00    +0.000 A 
ATOM      5  O   UNL     1       7.874   4.360  16.052  0.00  0.00    +0.000 OA
ATOM      6  C   UNL     1       7.195   4.939  17.103  0.00  0.00    +0.000 A 
ATOM      7  C   UNL     1       7.853   4.937  18.328  0.00  0.00    +0.000 A 
ATOM      8  C   UNL     1       7.217   5.470  19.444  0.00  0.00    +0.000 A 
ATOM      9  C   UNL     1       5.896   5.927  19.346  0.00  0.00    +0.000 A 
ATOM     10  C   UNL     1       5.200   5.895  18.126  0.00  0.00    +0.000 A 
ATOM     11  C   UNL     1       5.908   5.491  16.970  0.00  0.00    +0.000 A 
ENDROOT
BRANCH   3  12
ATOM     12  C   UNL     1       5.310   4.393  13.314  0.00  0.00    +0.000 C 
ATOM     13  N   UNL     1       5.579   3.356  12.584  0.00  0.00    +0.000 NA
BRANCH  13  14
ATOM     14  O   UNL     1       4.754   3.368  11.453  0.00  0.00    +0.000 OA
ATOM     15  H   UNL     1       4.248   2.539  11.551  0.00  0.00    +0.000 HD
ENDBRANCH  13  14
ENDBRANCH   3  12
BRANCH  10  16
ATOM     16  O   UNL     1       3.853   6.211  18.259  0.00  0.00    +0.000 OA
BRANCH  16  17
ATOM     17  C   UNL     1       3.235   5.562  19.369  0.00  0.00    +0.000 C 
BRANCH  17  18
ATOM     18  C   UNL     1       1.764   5.113  19.229  0.00  0.00    +0.000 C 
ATOM     19  C   UNL     1       1.658   4.408  17.857  0.00  0.00    +0.000 C 
ATOM     20  C   UNL     1       2.200   2.981  17.908  0.00  0.00    +0.000 C 
ATOM     21  C   UNL     1       1.324   2.162  18.837  0.00  0.00    +0.000 C 
ATOM     22  C   UNL     1       1.367   2.727  20.254  0.00  0.00    +0.000 C 
ATOM     23  C   UNL     1       1.158   4.246  20.348  0.00  0.00    +0.000 C 
ENDBRANCH  17  18
ENDBRANCH  16  17
ENDBRANCH  10  16
TORSDOF 5
ENDMDL
MODEL 7
REMARK VINA RESULT:      -7.3      3.230      4.520
REMARK  Name = 
REMARK  5 active torsions:
REMARK  status: ('A' for Active; 'I' for Inactive)
REMARK    1  A    between atoms: C_3  and  C_4
REMARK    2  A    between atoms: N_5  and  O_6
REMARK    3  A    between atoms: C_13  and  O_14
REMARK    4  A    between atoms: O_14  and  C_15
REMARK    5  A    between atoms: C_15  and  C_16
REMARK                            x       y       z     vdW  Elec       q    Type
REMARK                         _______ _______ _______ _____ _____    ______ ____
ROOT
ATOM      1  O   UNL     1       5.496   4.050  19.357  0.00  0.00    +0.000 OA
ATOM      2  C   UNL     1       5.587   5.209  18.987  0.00  0.00    +0.000 A 
ATOM      3  C   UNL     1       6.914   5.793  18.689  0.00  0.00    +0.000 A 
ATOM      4  C   UNL     1       6.939   6.725  17.732  0.00  0.00    +0.000 A 
ATOM      5  O   UNL     1       5.838   7.193  17.054  0.00  0.00    +0.000 OA
ATOM      6  C   UNL     1       4.606   6.960  17.627  0.00  0.00    +0.000 A 
ATOM      7  C   UNL     1       3.537   7.660  17.078  0.00  0.00    +0.000 A 
ATOM      8  C   UNL     1       2.268   7.505  17.626  0.00  0.00    +0.000 A 
ATOM      9  C   UNL     1       2.090   6.716  18.771  0.00  0.00    +0.000 A 
ATOM     10  C   UNL     1       3.168   6.038  19.366  0.00  0.00    +0.000 A 
ATOM     11  C   UNL     1       4.421   6.083  18.712  0.00  0.00    +0.000 A 
ENDROOT
BRANCH   3  12
ATOM     12  C   UNL     1       8.157   5.314  19.326  0.00  0.00    +0.000 C 
ATOM     13  N   UNL     1       8.314   5.235  20.610  0.00  0.00    +0.000 NA
BRANCH  13  14
ATOM     14  O   UNL     1       9.589   4.726  20.884  0.00  0.00    +0.000 OA
ATOM     15  H   UNL     1      10.099   4.996  20.097  0.00  0.00    +0.000 HD
ENDBRANCH  13  14
ENDBRANCH   3  12
BRANCH  10  16
ATOM     16  O   UNL     1       2.841   5.462  20.587  0.00  0.00    +0.000 OA
BRANCH  16  17
ATOM     17  C   UNL     1       1.486   5.017  20.650  0.00  0.00    +0.000 C 
BRANCH  17  18
ATOM     18  C   UNL     1       1.216   3.499  20.724  0.00  0.00    +0.000 C 
ATOM     19  C   UNL     1       0.634   3.099  19.348  0.00  0.00    +0.000 C 
ATOM     20  C   UNL     1       1.725   2.961  18.289  0.00  0.00    +0.000 C 
ATOM     21  C   UNL     1       2.638   1.813  18.676  0.00  0.00    +0.000 C 
ATOM     22  C   UNL     1       3.319   2.095  20.012  0.00  0.00    +0.000 C 
ATOM     23  C   UNL     1       2.377   2.572  21.128  0.00  0.00    +0.000 C 
ENDBRANCH  17  18
ENDBRANCH  16  17
ENDBRANCH  10  16
TORSDOF 5
ENDMDL
MODEL 8
REMARK VINA RESULT:      -7.3      3.815      5.630
REMARK  Name = 
REMARK  5 active torsions:
REMARK  status: ('A' for Active; 'I' for Inactive)
REMARK    1  A    between atoms: C_3  and  C_4
REMARK    2  A    between atoms: N_5  and  O_6
REMARK    3  A    between atoms: C_13  and  O_14
REMARK    4  A    between atoms: O_14  and  C_15
REMARK    5  A    between atoms: C_15  and  C_16
REMARK                            x       y       z     vdW  Elec       q    Type
REMARK                         _______ _______ _______ _____ _____    ______ ____
ROOT
ATOM      1  O   UNL     1       5.356   6.214  18.728  0.00  0.00    +0.000 OA
ATOM      2  C   UNL     1       4.566   5.391  18.295  0.00  0.00    +0.000 A 
ATOM      3  C   UNL     1       4.899   4.604  17.087  0.00  0.00    +0.000 A 
ATOM      4  C   UNL     1       4.395   3.368  17.039  0.00  0.00    +0.000 A 
ATOM      5  O   UNL     1       3.577   2.809  17.992  0.00  0.00    +0.000 OA
ATOM      6  C   UNL     1       2.950   3.675  18.863  0.00  0.00    +0.000 A 
ATOM      7  C   UNL     1       1.933   3.129  19.638  0.00  0.00    +0.000 A 
ATOM      8  C   UNL     1       1.229   3.949  20.513  0.00  0.00    +0.000 A 
ATOM      9  C   UNL     1       1.489   5.325  20.548  0.00  0.00    +0.000 A 
ATOM     10  C   UNL     1       2.483   5.902  19.738  0.00  0.00    +0.000 A 
ATOM     11  C   UNL     1       3.291   5.036  18.965  0.00  0.00    +0.000 A 
ENDROOT
BRANCH   3  12
ATOM     12  C   UNL     1       5.814   5.101  16.039  0.00  0.00    +0.000 C 
ATOM     13  N   UNL     1       7.084   4.840  16.020  0.00  0.00    +0.000 NA
BRANCH  13  14
ATOM     14  O   UNL     1       7.656   5.438  14.892  0.00  0.00    +0.000 OA
ATOM     15  H   UNL     1       7.114   6.243  14.780  0.00  0.00    +0.000 HD
ENDBRANCH  13  14
ENDBRANCH   3  12
BRANCH  10  16
ATOM     16  O   UNL     1       2.472   7.291  19.768  0.00  0.00    +0.000 OA
BRANCH  16  17
ATOM     17  C   UNL     1       1.694   7.819  20.842  0.00  0.00    +0.000 C 
BRANCH  17  18
ATOM     18  C   UNL     1       0.420   8.621  20.499  0.00  0.00    +0.000 C 
ATOM     19  C   UNL     1      -0.519   8.481  21.720  0.00  0.00    +0.000 C 
ATOM     20  C   UNL     1      -0.110   9.413  22.859  0.00  0.00    +0.000 C 
ATOM     21  C   UNL     1      -0.280  10.848  22.398  0.00  0.00    +0.000 C 
ATOM     22  C   UNL     1       0.629  11.142  21.209  0.00  0.00    +0.000 C 
ATOM     23  C   UNL     1       0.577  10.096  20.085  0.00  0.00    +0.000 C 
ENDBRANCH  17  18
ENDBRANCH  16  17
ENDBRANCH  10  16
TORSDOF 5
ENDMDL
MODEL 9
REMARK VINA RESULT:      -7.3      3.419      5.554
REMARK  Name = 
REMARK  5 active torsions:
REMARK  status: ('A' for Active; 'I' for Inactive)
REMARK    1  A    between atoms: C_3  and  C_4
REMARK    2  A    between atoms: N_5  and  O_6
REMARK    3  A    between atoms: C_13  and  O_14
REMARK    4  A    between atoms: O_14  and  C_15
REMARK    5  A    between atoms: C_15  and  C_16
REMARK                            x       y       z     vdW  Elec       q    Type
REMARK                         _______ _______ _______ _____ _____    ______ ____
ROOT
ATOM      1  O   UNL     1       5.060   5.354  19.764  0.00  0.00    +0.000 OA
ATOM      2  C   UNL     1       4.352   5.002  18.836  0.00  0.00    +0.000 A 
ATOM      3  C   UNL     1       4.836   5.125  17.442  0.00  0.00    +0.000 A 
ATOM      4  C   UNL     1       4.391   4.202  16.586  0.00  0.00    +0.000 A 
ATOM      5  O   UNL     1       3.506   3.196  16.896  0.00  0.00    +0.000 OA
ATOM      6  C   UNL     1       2.760   3.353  18.045  0.00  0.00    +0.000 A 
ATOM      7  C   UNL     1       1.694   2.474  18.204  0.00  0.00    +0.000 A 
ATOM      8  C   UNL     1       0.872   2.594  19.320  0.00  0.00    +0.000 A 
ATOM      9  C   UNL     1       1.071   3.643  20.227  0.00  0.00    +0.000 A 
ATOM     10  C   UNL     1       2.116   4.569  20.058  0.00  0.00    +0.000 A 
ATOM     11  C   UNL     1       3.033   4.346  19.004  0.00  0.00    +0.000 A 
ENDROOT
BRANCH   3  12
ATOM     12  C   UNL     1       5.830   6.138  17.030  0.00  0.00    +0.000 C 
ATOM     13  N   UNL     1       7.105   5.909  16.993  0.00  0.00    +0.000 NA
BRANCH  13  14
ATOM     14  O   UNL     1       7.762   7.061  16.543  0.00  0.00    +0.000 OA
ATOM     15  H   UNL     1       7.845   7.590  17.359  0.00  0.00    +0.000 HD
ENDBRANCH  13  14
ENDBRANCH   3  12
BRANCH  10  16
ATOM     16  O   UNL     1       2.045   5.638  20.942  0.00  0.00    +0.000 OA
BRANCH  16  17
ATOM     17  C   UNL     1       1.225   6.704  20.463  0.00  0.00    +0.000 C 
BRANCH  17  18
ATOM     18  C   UNL     1       1.856   8.107  20.322  0.00  0.00    +0.000 C 
ATOM     19  C   UNL     1       2.439   8.174  18.891  0.00  0.00    +0.000 C 
ATOM     20  C   UNL     1       1.355   8.439  17.848  0.00  0.00    +0.000 C 
ATOM     21  C   UNL     1       0.768   9.816  18.096  0.00  0.00    +0.000 C 
ATOM     22  C   UNL     1       0.114   9.881  19.473  0.00  0.00    +0.000 C 
ATOM     23  C   UNL     1       0.975   9.334  20.622  0.00  0.00    +0.000 C 
ENDBRANCH  17  18
ENDBRANCH  16  17
ENDBRANCH  10  16
TORSDOF 5
ENDMDL
