MODEL 1
REMARK VINA RESULT:      -8.6      0.000      0.000
REMARK  Name = 
REMARK  7 active torsions:
REMARK  status: ('A' for Active; 'I' for Inactive)
REMARK    1  A    between atoms: C_1  and  O_2
REMARK    2  A    between atoms: O_2  and  C_3
REMARK    3  A    between atoms: C_6  and  C_7
REMARK    4  A    between atoms: C_7  and  N_8
REMARK    5  A    between atoms: C_10  and  C_11
REMARK    6  A    between atoms: N_13  and  C_14
REMARK    7  A    between atoms: C_14  and  C_15
REMARK                            x       y       z     vdW  Elec       q    Type
REMARK                         _______ _______ _______ _____ _____    ______ ____
ROOT
ATOM      1  N   UNL     1       5.331   4.972  18.493  0.00  0.00    +0.000 N 
ATOM      2  C   UNL     1       6.332   5.623  19.294  0.00  0.00    +0.000 C 
ATOM      3  C   UNL     1       7.500   5.797  18.336  0.00  0.00    +0.000 C 
ATOM      4  C   UNL     1       7.346   4.651  17.338  0.00  0.00    +0.000 C 
ATOM      5  C   UNL     1       5.863   4.381  17.358  0.00  0.00    +0.000 C 
ATOM      6  O   UNL     1       5.250   3.751  16.509  0.00  0.00    +0.000 OA
ENDROOT
BRANCH   3   7
ATOM      7  C   UNL     1       7.508   7.148  17.651  0.00  0.00    +0.000 C 
ATOM      8  O   UNL     1       6.893   7.321  16.592  0.00  0.00    +0.000 OA
ATOM      9  N   UNL     1       8.234   8.150  18.245  0.00  0.00    +0.000 N 
ATOM     10  H   UNL     1       8.959   7.913  18.914  0.00  0.00    +0.000 HD
BRANCH   9  11
ATOM     11  C   UNL     1       8.325   9.445  17.609  0.00  0.00    +0.000 C 
BRANCH  11  12
ATOM     12  C   UNL     1       8.909  10.520  18.487  0.00  0.00    +0.000 A 
ATOM     13  C   UNL     1       9.391  10.282  19.801  0.00  0.00    +0.000 A 
ATOM     14  C   UNL     1      10.102  11.270  20.496  0.00  0.00    +0.000 A 
ATOM     15  C   UNL     1      10.318  12.463  19.847  0.00  0.00    +0.000 A 
ATOM     16  C   UNL     1       9.746  12.739  18.624  0.00  0.00    +0.000 A 
ATOM     17  C   UNL     1       9.006  11.809  17.941  0.00  0.00    +0.000 A 
ATOM     18  O   UNL     1      10.140  13.946  18.131  0.00  0.00    +0.000 OA
ATOM     19  C   UNL     1      11.308  14.125  18.944  0.00  0.00    +0.000 C 
ATOM     20  O   UNL     1      11.186  13.448  20.218  0.00  0.00    +0.000 OA
ENDBRANCH  11  12
ENDBRANCH   9  11
ENDBRANCH   3   7
BRANCH   1  21
ATOM     21  C   UNL     1       3.990   4.715  18.980  0.00  0.00    +0.000 C 
BRANCH  21  25
ATOM     22  C   UNL     1       1.685   8.356  19.364  0.00  0.00    +0.000 A 
ATOM     23  C   UNL     1       1.661   7.401  20.381  0.00  0.00    +0.000 A 
ATOM     24  C   UNL     1       2.397   6.217  20.268  0.00  0.00    +0.000 A 
ATOM     25  C   UNL     1       3.159   5.969  19.120  0.00  0.00    +0.000 A 
ATOM     26  C   UNL     1       3.137   6.910  18.081  0.00  0.00    +0.000 A 
ATOM     27  C   UNL     1       2.410   8.097  18.202  0.00  0.00    +0.000 A 
BRANCH  22  29
ATOM     28  C   UNL     1       1.054  10.502  18.603  0.00  0.00    +0.000 C 
ATOM     29  O   UNL     1       0.943   9.483  19.593  0.00  0.00    +0.000 OA
ENDBRANCH  22  29
ENDBRANCH  21  25
ENDBRANCH   1  21
TORSDOF 6
ENDMDL
MODEL 2
REMARK VINA RESULT:      -8.5      3.411      7.408
REMARK  Name = 
REMARK  7 active torsions:
REMARK  status: ('A' for Active; 'I' for Inactive)
REMARK    1  A    between atoms: C_1  and  O_2
REMARK    2  A    between atoms: O_2  and  C_3
REMARK    3  A    between atoms: C_6  and  C_7
REMARK    4  A    between atoms: C_7  and  N_8
REMARK    5  A    between atoms: C_10  and  C_11
REMARK    6  A    between atoms: N_13  and  C_14
REMARK    7  A    between atoms: C_14  and  C_15
REMARK                            x       y       z     vdW  Elec       q    Type
REMARK                         _______ _______ _______ _____ _____    ______ ____
ROOT
ATOM      1  N   UNL     1       3.525   3.013  17.511  0.00  0.00    +0.000 N 
ATOM      2  C   UNL     1       2.311   3.725  17.216  0.00  0.00    +0.000 C 
ATOM      3  C   UNL     1       1.398   3.374  18.382  0.00  0.00    +0.000 C 
ATOM      4  C   UNL     1       1.881   2.000  18.842  0.00  0.00    +0.000 C 
ATOM      5  C   UNL     1       3.332   1.996  18.433  0.00  0.00    +0.000 C 
ATOM      6  O   UNL     1       4.181   1.225  18.855  0.00  0.00    +0.000 OA
ENDROOT
BRANCH   3   7
ATOM      7  C   UNL     1       1.446   4.395  19.499  0.00  0.00    +0.000 C 
ATOM      8  O   UNL     1       0.820   4.208  20.550  0.00  0.00    +0.000 OA
ATOM      9  N   UNL     1       2.192   5.527  19.286  0.00  0.00    +0.000 N 
ATOM     10  H   UNL     1       2.429   5.798  18.337  0.00  0.00    +0.000 HD
BRANCH   9  11
ATOM     11  C   UNL     1       2.229   6.563  20.293  0.00  0.00    +0.000 C 
BRANCH  11  12
ATOM     12  C   UNL     1       1.815   7.922  19.791  0.00  0.00    +0.000 A 
ATOM     13  C   UNL     1       2.092   8.390  18.480  0.00  0.00    +0.000 A 
ATOM     14  C   UNL     1       1.516   9.574  18.002  0.00  0.00    +0.000 A 
ATOM     15  C   UNL     1       0.668  10.248  18.852  0.00  0.00    +0.000 A 
ATOM     16  C   UNL     1       0.497   9.863  20.163  0.00  0.00    +0.000 A 
ATOM     17  C   UNL     1       1.085   8.734  20.672  0.00  0.00    +0.000 A 
ATOM     18  O   UNL     1      -0.431  10.624  20.807  0.00  0.00    +0.000 OA
ATOM     19  C   UNL     1      -1.085  11.167  19.652  0.00  0.00    +0.000 C 
ATOM     20  O   UNL     1      -0.187  11.257  18.519  0.00  0.00    +0.000 OA
ENDBRANCH  11  12
ENDBRANCH   9  11
ENDBRANCH   3   7
BRANCH   1  21
ATOM     21  C   UNL     1       4.725   3.156  16.711  0.00  0.00    +0.000 C 
BRANCH  21  25
ATOM     22  C   UNL     1       7.283   6.321  18.180  0.00  0.00    +0.000 A 
ATOM     23  C   UNL     1       7.180   6.083  16.808  0.00  0.00    +0.000 A 
ATOM     24  C   UNL     1       6.361   5.059  16.320  0.00  0.00    +0.000 A 
ATOM     25  C   UNL     1       5.643   4.249  17.206  0.00  0.00    +0.000 A 
ATOM     26  C   UNL     1       5.792   4.461  18.584  0.00  0.00    +0.000 A 
ATOM     27  C   UNL     1       6.602   5.492  19.069  0.00  0.00    +0.000 A 
BRANCH  22  29
ATOM     28  C   UNL     1       8.025   8.513  17.706  0.00  0.00    +0.000 C 
ATOM     29  O   UNL     1       8.097   7.360  18.540  0.00  0.00    +0.000 OA
ENDBRANCH  22  29
ENDBRANCH  21  25
ENDBRANCH   1  21
TORSDOF 6
ENDMDL
MODEL 3
REMARK VINA RESULT:      -8.4      3.876      7.451
REMARK  Name = 
REMARK  7 active torsions:
REMARK  status: ('A' for Active; 'I' for Inactive)
REMARK    1  A    between atoms: C_1  and  O_2
REMARK    2  A    between atoms: O_2  and  C_3
REMARK    3  A    between atoms: C_6  and  C_7
REMARK    4  A    between atoms: C_7  and  N_8
REMARK    5  A    between atoms: C_10  and  C_11
REMARK    6  A    between atoms: N_13  and  C_14
REMARK    7  A    between atoms: C_14  and  C_15
REMARK                            x       y       z     vdW  Elec       q    Type
REMARK                         _______ _______ _______ _____ _____    ______ ____
ROOT
ATOM      1  N   UNL     1       2.701   3.060  17.840  0.00  0.00    +0.000 N 
ATOM      2  C   UNL     1       1.418   3.660  18.084  0.00  0.00    +0.000 C 
ATOM      3  C   UNL     1       1.169   3.388  19.560  0.00  0.00    +0.000 C 
ATOM      4  C   UNL     1       1.947   2.105  19.846  0.00  0.00    +0.000 C 
ATOM      5  C   UNL     1       3.050   2.142  18.819  0.00  0.00    +0.000 C 
ATOM      6  O   UNL     1       4.074   1.475  18.861  0.00  0.00    +0.000 OA
ENDROOT
BRANCH   3   7
ATOM      7  C   UNL     1       1.608   4.528  20.454  0.00  0.00    +0.000 C 
ATOM      8  O   UNL     1       1.972   4.313  21.617  0.00  0.00    +0.000 OA
ATOM      9  N   UNL     1       1.567   5.795  19.926  0.00  0.00    +0.000 N 
ATOM     10  H   UNL     1       0.989   5.978  19.112  0.00  0.00    +0.000 HD
BRANCH   9  11
ATOM     11  C   UNL     1       1.920   6.929  20.750  0.00  0.00    +0.000 C 
BRANCH  11  12
ATOM     12  C   UNL     1       1.591   8.262  20.131  0.00  0.00    +0.000 A 
ATOM     13  C   UNL     1       1.880   8.592  18.782  0.00  0.00    +0.000 A 
ATOM     14  C   UNL     1       1.378   9.766  18.204  0.00  0.00    +0.000 A 
ATOM     15  C   UNL     1       0.588  10.567  18.996  0.00  0.00    +0.000 A 
ATOM     16  C   UNL     1       0.409  10.312  20.338  0.00  0.00    +0.000 A 
ATOM     17  C   UNL     1       0.928   9.196  20.942  0.00  0.00    +0.000 A 
ATOM     18  O   UNL     1      -0.459  11.188  20.918  0.00  0.00    +0.000 OA
ATOM     19  C   UNL     1      -1.090  11.669  19.724  0.00  0.00    +0.000 C 
ATOM     20  O   UNL     1      -0.203  11.598  18.580  0.00  0.00    +0.000 OA
ENDBRANCH  11  12
ENDBRANCH   9  11
ENDBRANCH   3   7
BRANCH   1  21
ATOM     21  C   UNL     1       3.391   3.183  16.571  0.00  0.00    +0.000 C 
BRANCH  21  25
ATOM     22  C   UNL     1       6.626   6.054  16.649  0.00  0.00    +0.000 A 
ATOM     23  C   UNL     1       6.833   4.779  16.120  0.00  0.00    +0.000 A 
ATOM     24  C   UNL     1       5.797   3.839  16.093  0.00  0.00    +0.000 A 
ATOM     25  C   UNL     1       4.539   4.164  16.613  0.00  0.00    +0.000 A 
ATOM     26  C   UNL     1       4.354   5.428  17.189  0.00  0.00    +0.000 A 
ATOM     27  C   UNL     1       5.387   6.369  17.204  0.00  0.00    +0.000 A 
BRANCH  22  29
ATOM     28  C   UNL     1       7.705   7.943  17.570  0.00  0.00    +0.000 C 
ATOM     29  O   UNL     1       7.705   6.895  16.604  0.00  0.00    +0.000 OA
ENDBRANCH  22  29
ENDBRANCH  21  25
ENDBRANCH   1  21
TORSDOF 6
ENDMDL
MODEL 4
REMARK VINA RESULT:      -8.2      3.832      7.766
REMARK  Name = 
REMARK  7 active torsions:
REMARK  status: ('A' for Active; 'I' for Inactive)
REMARK    1  A    between atoms: C_1  and  O_2
REMARK    2  A    between atoms: O_2  and  C_3
REMARK    3  A    between atoms: C_6  and  C_7
REMARK    4  A    between atoms: C_7  and  N_8
REMARK    5  A    between atoms: C_10  and  C_11
REMARK    6  A    between atoms: N_13  and  C_14
REMARK    7  A    between atoms: C_14  and  C_15
REMARK                            x       y       z     vdW  Elec       q    Type
REMARK                         _______ _______ _______ _____ _____    ______ ____
ROOT
ATOM      1  N   UNL     1       2.712   3.375  17.829  0.00  0.00    +0.000 N 
ATOM      2  C   UNL     1       1.540   4.176  18.053  0.00  0.00    +0.000 C 
ATOM      3  C   UNL     1       1.160   3.861  19.492  0.00  0.00    +0.000 C 
ATOM      4  C   UNL     1       1.686   2.445  19.722  0.00  0.00    +0.000 C 
ATOM      5  C   UNL     1       2.839   2.351  18.755  0.00  0.00    +0.000 C 
ATOM      6  O   UNL     1       3.727   1.513  18.797  0.00  0.00    +0.000 OA
ENDROOT
BRANCH   3   7
ATOM      7  C   UNL     1       1.735   4.848  20.486  0.00  0.00    +0.000 C 
ATOM      8  O   UNL     1       2.283   4.452  21.522  0.00  0.00    +0.000 OA
ATOM      9  N   UNL     1       1.607   6.183  20.194  0.00  0.00    +0.000 N 
ATOM     10  H   UNL     1       0.904   6.483  19.526  0.00  0.00    +0.000 HD
BRANCH   9  11
ATOM     11  C   UNL     1       2.086   7.173  21.132  0.00  0.00    +0.000 C 
BRANCH  11  12
ATOM     12  C   UNL     1       1.338   8.480  21.079  0.00  0.00    +0.000 A 
ATOM     13  C   UNL     1       0.861   9.060  19.876  0.00  0.00    +0.000 A 
ATOM     14  C   UNL     1       0.005  10.169  19.902  0.00  0.00    +0.000 A 
ATOM     15  C   UNL     1      -0.356  10.655  21.138  0.00  0.00    +0.000 A 
ATOM     16  C   UNL     1       0.203  10.172  22.300  0.00  0.00    +0.000 A 
ATOM     17  C   UNL     1       1.080   9.118  22.302  0.00  0.00    +0.000 A 
ATOM     18  O   UNL     1      -0.340  10.744  23.411  0.00  0.00    +0.000 OA
ATOM     19  C   UNL     1      -1.542  11.248  22.812  0.00  0.00    +0.000 C 
ATOM     20  O   UNL     1      -1.360  11.540  21.404  0.00  0.00    +0.000 OA
ENDBRANCH  11  12
ENDBRANCH   9  11
ENDBRANCH   3   7
BRANCH   1  21
ATOM     21  C   UNL     1       3.488   3.454  16.606  0.00  0.00    +0.000 C 
BRANCH  21  25
ATOM     22  C   UNL     1       6.675   6.374  16.764  0.00  0.00    +0.000 A 
ATOM     23  C   UNL     1       6.968   5.030  16.526  0.00  0.00    +0.000 A 
ATOM     24  C   UNL     1       5.947   4.075  16.478  0.00  0.00    +0.000 A 
ATOM     25  C   UNL     1       4.616   4.455  16.683  0.00  0.00    +0.000 A 
ATOM     26  C   UNL     1       4.337   5.798  16.971  0.00  0.00    +0.000 A 
ATOM     27  C   UNL     1       5.357   6.753  17.008  0.00  0.00    +0.000 A 
BRANCH  22  29
ATOM     28  C   UNL     1       8.002   7.884  18.005  0.00  0.00    +0.000 C 
ATOM     29  O   UNL     1       7.751   7.221  16.769  0.00  0.00    +0.000 OA
ENDBRANCH  22  29
ENDBRANCH  21  25
ENDBRANCH   1  21
TORSDOF 6
ENDMDL
MODEL 5
REMARK VINA RESULT:      -8.2      3.976      7.462
REMARK  Name = 
REMARK  7 active torsions:
REMARK  status: ('A' for Active; 'I' for Inactive)
REMARK    1  A    between atoms: C_1  and  O_2
REMARK    2  A    between atoms: O_2  and  C_3
REMARK    3  A    between atoms: C_6  and  C_7
REMARK    4  A    between atoms: C_7  and  N_8
REMARK    5  A    between atoms: C_10  and  C_11
REMARK    6  A    between atoms: N_13  and  C_14
REMARK    7  A    between atoms: C_14  and  C_15
REMARK                            x       y       z     vdW  Elec       q    Type
REMARK                         _______ _______ _______ _____ _____    ______ ____
ROOT
ATOM      1  N   UNL     1       2.562   3.276  18.029  0.00  0.00    +0.000 N 
ATOM      2  C   UNL     1       1.356   4.011  18.297  0.00  0.00    +0.000 C 
ATOM      3  C   UNL     1       1.135   3.806  19.788  0.00  0.00    +0.000 C 
ATOM      4  C   UNL     1       1.789   2.458  20.086  0.00  0.00    +0.000 C 
ATOM      5  C   UNL     1       2.852   2.354  19.023  0.00  0.00    +0.000 C 
ATOM      6  O   UNL     1       3.804   1.587  19.050  0.00  0.00    +0.000 OA
ENDROOT
BRANCH   3   7
ATOM      7  C   UNL     1       1.720   4.919  20.631  0.00  0.00    +0.000 C 
ATOM      8  O   UNL     1       2.459   4.662  21.589  0.00  0.00    +0.000 OA
ATOM      9  N   UNL     1       1.381   6.207  20.297  0.00  0.00    +0.000 N 
ATOM     10  H   UNL     1       0.556   6.376  19.731  0.00  0.00    +0.000 HD
BRANCH   9  11
ATOM     11  C   UNL     1       1.863   7.307  21.101  0.00  0.00    +0.000 C 
BRANCH  11  12
ATOM     12  C   UNL     1       0.991   8.535  21.045  0.00  0.00    +0.000 A 
ATOM     13  C   UNL     1       0.233   9.008  22.147  0.00  0.00    +0.000 A 
ATOM     14  C   UNL     1      -0.400  10.257  22.102  0.00  0.00    +0.000 A 
ATOM     15  C   UNL     1      -0.242  11.000  20.955  0.00  0.00    +0.000 A 
ATOM     16  C   UNL     1       0.388  10.491  19.841  0.00  0.00    +0.000 A 
ATOM     17  C   UNL     1       0.976   9.253  19.839  0.00  0.00    +0.000 A 
ATOM     18  O   UNL     1       0.492  11.412  18.842  0.00  0.00    +0.000 OA
ATOM     19  C   UNL     1       0.279  12.591  19.630  0.00  0.00    +0.000 C 
ATOM     20  O   UNL     1      -0.543  12.320  20.791  0.00  0.00    +0.000 OA
ENDBRANCH  11  12
ENDBRANCH   9  11
ENDBRANCH   3   7
BRANCH   1  21
ATOM     21  C   UNL     1       3.215   3.294  16.734  0.00  0.00    +0.000 C 
BRANCH  21  25
ATOM     22  C   UNL     1       6.676   5.888  16.615  0.00  0.00    +0.000 A 
ATOM     23  C   UNL     1       5.516   6.296  17.276  0.00  0.00    +0.000 A 
ATOM     24  C   UNL     1       4.388   5.470  17.318  0.00  0.00    +0.000 A 
ATOM     25  C   UNL     1       4.405   4.224  16.682  0.00  0.00    +0.000 A 
ATOM     26  C   UNL     1       5.555   3.843  15.977  0.00  0.00    +0.000 A 
ATOM     27  C   UNL     1       6.684   4.665  15.947  0.00  0.00    +0.000 A 
BRANCH  22  29
ATOM     28  C   UNL     1       7.581   7.844  17.583  0.00  0.00    +0.000 C 
ATOM     29  O   UNL     1       7.722   6.769  16.657  0.00  0.00    +0.000 OA
ENDBRANCH  22  29
ENDBRANCH  21  25
ENDBRANCH   1  21
TORSDOF 6
ENDMDL
MODEL 6
REMARK VINA RESULT:      -8.2      0.603      1.099
REMARK  Name = 
REMARK  7 active torsions:
REMARK  status: ('A' for Active; 'I' for Inactive)
REMARK    1  A    between atoms: C_1  and  O_2
REMARK    2  A    between atoms: O_2  and  C_3
REMARK    3  A    between atoms: C_6  and  C_7
REMARK    4  A    between atoms: C_7  and  N_8
REMARK    5  A    between atoms: C_10  and  C_11
REMARK    6  A    between atoms: N_13  and  C_14
REMARK    7  A    between atoms: C_14  and  C_15
REMARK                            x       y       z     vdW  Elec       q    Type
REMARK                         _______ _______ _______ _____ _____    ______ ____
ROOT
ATOM      1  N   UNL     1       5.033   5.176  18.680  0.00  0.00    +0.000 N 
ATOM      2  C   UNL     1       6.178   5.681  19.387  0.00  0.00    +0.000 C 
ATOM      3  C   UNL     1       7.305   5.569  18.372  0.00  0.00    +0.000 C 
ATOM      4  C   UNL     1       6.890   4.406  17.472  0.00  0.00    +0.000 C 
ATOM      5  C   UNL     1       5.386   4.420  17.573  0.00  0.00    +0.000 C 
ATOM      6  O   UNL     1       4.623   3.859  16.800  0.00  0.00    +0.000 OA
ENDROOT
BRANCH   3   7
ATOM      7  C   UNL     1       7.523   6.844  17.586  0.00  0.00    +0.000 C 
ATOM      8  O   UNL     1       7.237   6.901  16.384  0.00  0.00    +0.000 OA
ATOM      9  N   UNL     1       8.062   7.914  18.258  0.00  0.00    +0.000 N 
ATOM     10  H   UNL     1       8.565   7.757  19.126  0.00  0.00    +0.000 HD
BRANCH   9  11
ATOM     11  C   UNL     1       8.346   9.139  17.547  0.00  0.00    +0.000 C 
BRANCH  11  12
ATOM     12  C   UNL     1       8.799  10.271  18.432  0.00  0.00    +0.000 A 
ATOM     13  C   UNL     1       9.246  10.090  19.767  0.00  0.00    +0.000 A 
ATOM     14  C   UNL     1       9.841  11.143  20.476  0.00  0.00    +0.000 A 
ATOM     15  C   UNL     1       9.979  12.343  19.818  0.00  0.00    +0.000 A 
ATOM     16  C   UNL     1       9.435  12.555  18.570  0.00  0.00    +0.000 A 
ATOM     17  C   UNL     1       8.806  11.558  17.872  0.00  0.00    +0.000 A 
ATOM     18  O   UNL     1       9.744  13.787  18.076  0.00  0.00    +0.000 OA
ATOM     19  C   UNL     1      10.858  14.075  18.931  0.00  0.00    +0.000 C 
ATOM     20  O   UNL     1      10.743  13.403  20.209  0.00  0.00    +0.000 OA
ENDBRANCH  11  12
ENDBRANCH   9  11
ENDBRANCH   3   7
BRANCH   1  21
ATOM     21  C   UNL     1       3.696   5.207  19.239  0.00  0.00    +0.000 C 
BRANCH  21  25
ATOM     22  C   UNL     1       1.638   8.977  18.723  0.00  0.00    +0.000 A 
ATOM     23  C   UNL     1       2.485   8.499  17.722  0.00  0.00    +0.000 A 
ATOM     24  C   UNL     1       3.161   7.284  17.878  0.00  0.00    +0.000 A 
ATOM     25  C   UNL     1       3.005   6.538  19.051  0.00  0.00    +0.000 A 
ATOM     26  C   UNL     1       2.193   7.051  20.073  0.00  0.00    +0.000 A 
ATOM     27  C   UNL     1       1.510   8.259  19.909  0.00  0.00    +0.000 A 
BRANCH  22  29
ATOM     28  C   UNL     1      -0.409  10.122  18.438  0.00  0.00    +0.000 C 
ATOM     29  O   UNL     1       1.015  10.166  18.452  0.00  0.00    +0.000 OA
ENDBRANCH  22  29
ENDBRANCH  21  25
ENDBRANCH   1  21
TORSDOF 6
ENDMDL
MODEL 7
REMARK VINA RESULT:      -8.2      1.121      1.604
REMARK  Name = 
REMARK  7 active torsions:
REMARK  status: ('A' for Active; 'I' for Inactive)
REMARK    1  A    between atoms: C_1  and  O_2
REMARK    2  A    between atoms: O_2  and  C_3
REMARK    3  A    between atoms: C_6  and  C_7
REMARK    4  A    between atoms: C_7  and  N_8
REMARK    5  A    between atoms: C_10  and  C_11
REMARK    6  A    between atoms: N_13  and  C_14
REMARK    7  A    between atoms: C_14  and  C_15
REMARK                            x       y       z     vdW  Elec       q    Type
REMARK                         _______ _______ _______ _____ _____    ______ ____
ROOT
ATOM      1  N   UNL     1       5.519   4.516  17.856  0.00  0.00    +0.000 N 
ATOM      2  C   UNL     1       6.400   5.132  18.811  0.00  0.00    +0.000 C 
ATOM      3  C   UNL     1       7.553   5.641  17.960  0.00  0.00    +0.000 C 
ATOM      4  C   UNL     1       7.586   4.695  16.761  0.00  0.00    +0.000 C 
ATOM      5  C   UNL     1       6.156   4.228  16.659  0.00  0.00    +0.000 C 
ATOM      6  O   UNL     1       5.658   3.694  15.679  0.00  0.00    +0.000 OA
ENDROOT
BRANCH   3   7
ATOM      7  C   UNL     1       7.386   7.085  17.538  0.00  0.00    +0.000 C 
ATOM      8  O   UNL     1       6.559   7.397  16.672  0.00  0.00    +0.000 OA
ATOM      9  N   UNL     1       8.195   8.016  18.142  0.00  0.00    +0.000 N 
ATOM     10  H   UNL     1       9.049   7.714  18.599  0.00  0.00    +0.000 HD
BRANCH   9  11
ATOM     11  C   UNL     1       8.120   9.402  17.739  0.00  0.00    +0.000 C 
BRANCH  11  12
ATOM     12  C   UNL     1       9.102  10.299  18.446  0.00  0.00    +0.000 A 
ATOM     13  C   UNL     1      10.154  10.984  17.784  0.00  0.00    +0.000 A 
ATOM     14  C   UNL     1      10.912  11.955  18.450  0.00  0.00    +0.000 A 
ATOM     15  C   UNL     1      10.582  12.220  19.759  0.00  0.00    +0.000 A 
ATOM     16  C   UNL     1       9.647  11.471  20.439  0.00  0.00    +0.000 A 
ATOM     17  C   UNL     1       8.922  10.482  19.825  0.00  0.00    +0.000 A 
ATOM     18  O   UNL     1       9.426  11.941  21.698  0.00  0.00    +0.000 OA
ATOM     19  C   UNL     1       9.968  13.257  21.522  0.00  0.00    +0.000 C 
ATOM     20  O   UNL     1      11.001  13.282  20.507  0.00  0.00    +0.000 OA
ENDBRANCH  11  12
ENDBRANCH   9  11
ENDBRANCH   3   7
BRANCH   1  21
ATOM     21  C   UNL     1       4.217   3.993  18.221  0.00  0.00    +0.000 C 
BRANCH  21  25
ATOM     22  C   UNL     1       1.765   6.979  20.166  0.00  0.00    +0.000 A 
ATOM     23  C   UNL     1       1.943   5.726  20.756  0.00  0.00    +0.000 A 
ATOM     24  C   UNL     1       2.729   4.750  20.135  0.00  0.00    +0.000 A 
ATOM     25  C   UNL     1       3.337   5.015  18.903  0.00  0.00    +0.000 A 
ATOM     26  C   UNL     1       3.111   6.257  18.293  0.00  0.00    +0.000 A 
ATOM     27  C   UNL     1       2.335   7.234  18.921  0.00  0.00    +0.000 A 
BRANCH  22  29
ATOM     28  C   UNL     1       1.090   9.223  20.467  0.00  0.00    +0.000 C 
ATOM     29  O   UNL     1       0.993   7.861  20.873  0.00  0.00    +0.000 OA
ENDBRANCH  22  29
ENDBRANCH  21  25
ENDBRANCH   1  21
TORSDOF 6
ENDMDL
MODEL 8
REMARK VINA RESULT:      -8.0      3.584      7.010
REMARK  Name = 
REMARK  7 active torsions:
REMARK  status: ('A' for Active; 'I' for Inactive)
REMARK    1  A    between atoms: C_1  and  O_2
REMARK    2  A    between atoms: O_2  and  C_3
REMARK    3  A    between atoms: C_6  and  C_7
REMARK    4  A    between atoms: C_7  and  N_8
REMARK    5  A    between atoms: C_10  and  C_11
REMARK    6  A    between atoms: N_13  and  C_14
REMARK    7  A    between atoms: C_14  and  C_15
REMARK                            x       y       z     vdW  Elec       q    Type
REMARK                         _______ _______ _______ _____ _____    ______ ____
ROOT
ATOM      1  N   UNL     1       3.088   2.995  17.555  0.00  0.00    +0.000 N 
ATOM      2  C   UNL     1       1.826   3.682  17.519  0.00  0.00    +0.000 C 
ATOM      3  C   UNL     1       1.139   3.239  18.802  0.00  0.00    +0.000 C 
ATOM      4  C   UNL     1       1.725   1.857  19.087  0.00  0.00    +0.000 C 
ATOM      5  C   UNL     1       3.082   1.922  18.434  0.00  0.00    +0.000 C 
ATOM      6  O   UNL     1       4.008   1.157  18.656  0.00  0.00    +0.000 OA
ENDROOT
BRANCH   3   7
ATOM      7  C   UNL     1       1.359   4.197  19.952  0.00  0.00    +0.000 C 
ATOM      8  O   UNL     1       1.103   3.856  21.114  0.00  0.00    +0.000 OA
ATOM      9  N   UNL     1       1.832   5.449  19.648  0.00  0.00    +0.000 N 
ATOM     10  H   UNL     1       1.737   5.802  18.701  0.00  0.00    +0.000 HD
BRANCH   9  11
ATOM     11  C   UNL     1       2.007   6.426  20.699  0.00  0.00    +0.000 C 
BRANCH  11  12
ATOM     12  C   UNL     1       1.543   7.812  20.331  0.00  0.00    +0.000 A 
ATOM     13  C   UNL     1       0.886   8.683  21.238  0.00  0.00    +0.000 A 
ATOM     14  C   UNL     1       0.654  10.025  20.907  0.00  0.00    +0.000 A 
ATOM     15  C   UNL     1       1.101  10.455  19.679  0.00  0.00    +0.000 A 
ATOM     16  C   UNL     1       1.626   9.583  18.751  0.00  0.00    +0.000 A 
ATOM     17  C   UNL     1       1.821   8.255  19.029  0.00  0.00    +0.000 A 
ATOM     18  O   UNL     1       2.065  10.223  17.631  0.00  0.00    +0.000 OA
ATOM     19  C   UNL     1       2.158  11.546  18.178  0.00  0.00    +0.000 C 
ATOM     20  O   UNL     1       1.216  11.748  19.260  0.00  0.00    +0.000 OA
ENDBRANCH  11  12
ENDBRANCH   9  11
ENDBRANCH   3   7
BRANCH   1  21
ATOM     21  C   UNL     1       4.127   3.220  16.569  0.00  0.00    +0.000 C 
BRANCH  21  25
ATOM     22  C   UNL     1       7.123   6.074  17.830  0.00  0.00    +0.000 A 
ATOM     23  C   UNL     1       5.903   5.996  18.503  0.00  0.00    +0.000 A 
ATOM     24  C   UNL     1       4.923   5.081  18.103  0.00  0.00    +0.000 A 
ATOM     25  C   UNL     1       5.151   4.240  17.008  0.00  0.00    +0.000 A 
ATOM     26  C   UNL     1       6.358   4.361  16.306  0.00  0.00    +0.000 A 
ATOM     27  C   UNL     1       7.339   5.268  16.714  0.00  0.00    +0.000 A 
BRANCH  22  29
ATOM     28  C   UNL     1       7.948   8.286  17.729  0.00  0.00    +0.000 C 
ATOM     29  O   UNL     1       8.012   6.991  18.322  0.00  0.00    +0.000 OA
ENDBRANCH  22  29
ENDBRANCH  21  25
ENDBRANCH   1  21
TORSDOF 6
ENDMDL
MODEL 9
REMARK VINA RESULT:      -8.0      3.120      7.671
REMARK  Name = 
REMARK  7 active torsions:
REMARK  status: ('A' for Active; 'I' for Inactive)
REMARK    1  A    between atoms: C_1  and  O_2
REMARK    2  A    between atoms: O_2  and  C_3
REMARK    3  A    between atoms: C_6  and  C_7
REMARK    4  A    between atoms: C_7  and  N_8
REMARK    5  A    between atoms: C_10  and  C_11
REMARK    6  A    between atoms: N_13  and  C_14
REMARK    7  A    between atoms: C_14  and  C_15
REMARK                            x       y       z     vdW  Elec       q    Type
REMARK                         _______ _______ _______ _____ _____    ______ ____
ROOT
ATOM      1  N   UNL     1       4.045   3.708  17.535  0.00  0.00    +0.000 N 
ATOM      2  C   UNL     1       3.215   4.864  17.328  0.00  0.00    +0.000 C 
ATOM      3  C   UNL     1       1.965   4.558  18.139  0.00  0.00    +0.000 C 
ATOM      4  C   UNL     1       1.886   3.033  18.153  0.00  0.00    +0.000 C 
ATOM      5  C   UNL     1       3.326   2.616  17.997  0.00  0.00    +0.000 C 
ATOM      6  O   UNL     1       3.769   1.505  18.246  0.00  0.00    +0.000 OA
ENDROOT
BRANCH   3   7
ATOM      7  C   UNL     1       2.011   5.136  19.537  0.00  0.00    +0.000 C 
ATOM      8  O   UNL     1       2.167   4.399  20.519  0.00  0.00    +0.000 OA
ATOM      9  N   UNL     1       1.858   6.494  19.663  0.00  0.00    +0.000 N 
ATOM     10  H   UNL     1       1.432   7.021  18.907  0.00  0.00    +0.000 HD
BRANCH   9  11
ATOM     11  C   UNL     1       1.836   7.096  20.977  0.00  0.00    +0.000 C 
BRANCH  11  12
ATOM     12  C   UNL     1       1.228   8.474  21.010  0.00  0.00    +0.000 A 
ATOM     13  C   UNL     1       0.886   9.207  19.844  0.00  0.00    +0.000 A 
ATOM     14  C   UNL     1       0.145  10.393  19.931  0.00  0.00    +0.000 A 
ATOM     15  C   UNL     1      -0.241  10.801  21.187  0.00  0.00    +0.000 A 
ATOM     16  C   UNL     1       0.195  10.160  22.326  0.00  0.00    +0.000 A 
ATOM     17  C   UNL     1       0.960   9.024  22.273  0.00  0.00    +0.000 A 
ATOM     18  O   UNL     1      -0.356  10.684  23.456  0.00  0.00    +0.000 OA
ATOM     19  C   UNL     1      -1.462  11.364  22.846  0.00  0.00    +0.000 C 
ATOM     20  O   UNL     1      -1.165  11.760  21.484  0.00  0.00    +0.000 OA
ENDBRANCH  11  12
ENDBRANCH   9  11
ENDBRANCH   3   7
BRANCH   1  21
ATOM     21  C   UNL     1       5.402   3.623  17.032  0.00  0.00    +0.000 C 
BRANCH  21  25
ATOM     22  C   UNL     1       7.837   6.948  18.347  0.00  0.00    +0.000 A 
ATOM     23  C   UNL     1       7.249   6.967  17.081  0.00  0.00    +0.000 A 
ATOM     24  C   UNL     1       6.463   5.897  16.641  0.00  0.00    +0.000 A 
ATOM     25  C   UNL     1       6.269   4.782  17.464  0.00  0.00    +0.000 A 
ATOM     26  C   UNL     1       6.906   4.747  18.712  0.00  0.00    +0.000 A 
ATOM     27  C   UNL     1       7.680   5.823  19.154  0.00  0.00    +0.000 A 
BRANCH  22  29
ATOM     28  C   UNL     1       8.208   9.254  17.991  0.00  0.00    +0.000 C 
ATOM     29  O   UNL     1       8.567   8.057  18.677  0.00  0.00    +0.000 OA
ENDBRANCH  22  29
ENDBRANCH  21  25
ENDBRANCH   1  21
TORSDOF 6
ENDMDL
