MODEL 1
REMARK VINA RESULT:      -7.5      0.000      0.000
REMARK  Name = 
REMARK  2 active torsions:
REMARK  status: ('A' for Active; 'I' for Inactive)
REMARK    1  A    between atoms: C_2  and  C_13
REMARK    2  A    between atoms: N_3  and  C_4
REMARK                            x       y       z     vdW  Elec       q    Type
REMARK                         _______ _______ _______ _____ _____    ______ ____
ROOT
ATOM      1  O   UNL     1       2.222   8.740  17.502  0.00  0.00    +0.000 OA
ATOM      2  C   UNL     1       2.137   8.150  18.575  0.00  0.00    +0.000 C 
ATOM      3  N   UNL     1       2.632   6.892  18.859  0.00  0.00    +0.000 N 
ATOM      4  H   UNL     1       2.385   6.484  19.754  0.00  0.00    +0.000 HD
ENDROOT
BRANCH   3   5
ATOM      5  C   UNL     1       3.378   6.068  17.989  0.00  0.00    +0.000 A 
ATOM      6  C   UNL     1       3.051   4.721  17.732  0.00  0.00    +0.000 A 
ATOM      7  C   UNL     1       3.852   3.927  16.902  0.00  0.00    +0.000 A 
ATOM      8  C   UNL     1       4.975   4.502  16.355  0.00  0.00    +0.000 A 
ATOM      9  C   UNL     1       5.288   5.821  16.579  0.00  0.00    +0.000 A 
ATOM     10  C   UNL     1       4.502   6.634  17.372  0.00  0.00    +0.000 A 
ATOM     11  O   UNL     1       6.440   6.189  15.958  0.00  0.00    +0.000 OA
ATOM     12  C   UNL     1       6.851   4.931  15.378  0.00  0.00    +0.000 C 
ATOM     13  O   UNL     1       5.885   3.877  15.564  0.00  0.00    +0.000 OA
ENDBRANCH   3   5
BRANCH   2  14
ATOM     14  C   UNL     1       1.334   8.805  19.644  0.00  0.00    +0.000 A 
ATOM     15  C   UNL     1       1.671   8.465  20.969  0.00  0.00    +0.000 A 
ATOM     16  C   UNL     1       0.959   8.999  22.044  0.00  0.00    +0.000 A 
ATOM     17  C   UNL     1      -0.098   9.870  21.805  0.00  0.00    +0.000 A 
ATOM     18 CL   UNL     1      -0.987  10.518  23.127  0.00  0.00    +0.000 Cl
ATOM     19  C   UNL     1      -0.448  10.214  20.499  0.00  0.00    +0.000 A 
ATOM     20  C   UNL     1       0.265   9.682  19.417  0.00  0.00    +0.000 A 
ATOM     21 CL   UNL     1      -0.275  10.131  17.838  0.00  0.00    +0.000 Cl
ENDBRANCH   2  14
TORSDOF 2
ENDMDL
MODEL 2
REMARK VINA RESULT:      -7.3      1.149      1.158
REMARK  Name = 
REMARK  2 active torsions:
REMARK  status: ('A' for Active; 'I' for Inactive)
REMARK    1  A    between atoms: C_2  and  C_13
REMARK    2  A    between atoms: N_3  and  C_4
REMARK                            x       y       z     vdW  Elec       q    Type
REMARK                         _______ _______ _______ _____ _____    ______ ____
ROOT
ATOM      1  O   UNL     1       2.226   6.109  20.418  0.00  0.00    +0.000 OA
ATOM      2  C   UNL     1       2.186   7.119  19.722  0.00  0.00    +0.000 C 
ATOM      3  N   UNL     1       2.790   7.289  18.491  0.00  0.00    +0.000 N 
ATOM      4  H   UNL     1       2.770   8.218  18.085  0.00  0.00    +0.000 HD
ENDROOT
BRANCH   3   5
ATOM      5  C   UNL     1       3.520   6.317  17.774  0.00  0.00    +0.000 A 
ATOM      6  C   UNL     1       3.149   4.958  17.719  0.00  0.00    +0.000 A 
ATOM      7  C   UNL     1       3.935   4.021  17.038  0.00  0.00    +0.000 A 
ATOM      8  C   UNL     1       5.086   4.467  16.434  0.00  0.00    +0.000 A 
ATOM      9  C   UNL     1       5.443   5.793  16.461  0.00  0.00    +0.000 A 
ATOM     10  C   UNL     1       4.673   6.745  17.102  0.00  0.00    +0.000 A 
ATOM     11  O   UNL     1       6.618   6.024  15.817  0.00  0.00    +0.000 OA
ATOM     12  C   UNL     1       6.993   4.679  15.445  0.00  0.00    +0.000 C 
ATOM     13  O   UNL     1       5.986   3.698  15.768  0.00  0.00    +0.000 OA
ENDBRANCH   3   5
BRANCH   2  14
ATOM     14  C   UNL     1       1.512   8.314  20.302  0.00  0.00    +0.000 A 
ATOM     15  C   UNL     1       1.355   8.319  21.701  0.00  0.00    +0.000 A 
ATOM     16  C   UNL     1       0.708   9.377  22.342  0.00  0.00    +0.000 A 
ATOM     17  C   UNL     1       0.208  10.434  21.589  0.00  0.00    +0.000 A 
ATOM     18 CL   UNL     1      -0.604  11.732  22.374  0.00  0.00    +0.000 Cl
ATOM     19  C   UNL     1       0.350  10.443  20.202  0.00  0.00    +0.000 A 
ATOM     20  C   UNL     1       1.000   9.383  19.556  0.00  0.00    +0.000 A 
ATOM     21 CL   UNL     1       1.085   9.463  17.831  0.00  0.00    +0.000 Cl
ENDBRANCH   2  14
TORSDOF 2
ENDMDL
MODEL 3
REMARK VINA RESULT:      -7.3      3.455      7.699
REMARK  Name = 
REMARK  2 active torsions:
REMARK  status: ('A' for Active; 'I' for Inactive)
REMARK    1  A    between atoms: C_2  and  C_13
REMARK    2  A    between atoms: N_3  and  C_4
REMARK                            x       y       z     vdW  Elec       q    Type
REMARK                         _______ _______ _______ _____ _____    ______ ____
ROOT
ATOM      1  O   UNL     1       2.214   7.441  19.664  0.00  0.00    +0.000 OA
ATOM      2  C   UNL     1       2.501   7.608  18.483  0.00  0.00    +0.000 C 
ATOM      3  N   UNL     1       2.056   8.632  17.669  0.00  0.00    +0.000 N 
ATOM      4  H   UNL     1       2.283   8.576  16.683  0.00  0.00    +0.000 HD
ENDROOT
BRANCH   3   5
ATOM      5  C   UNL     1       1.233   9.712  18.055  0.00  0.00    +0.000 A 
ATOM      6  C   UNL     1       1.736  10.906  18.610  0.00  0.00    +0.000 A 
ATOM      7  C   UNL     1       0.876  11.929  19.026  0.00  0.00    +0.000 A 
ATOM      8  C   UNL     1      -0.477  11.726  18.886  0.00  0.00    +0.000 A 
ATOM      9  C   UNL     1      -0.975  10.576  18.323  0.00  0.00    +0.000 A 
ATOM     10  C   UNL     1      -0.149   9.562  17.879  0.00  0.00    +0.000 A 
ATOM     11  O   UNL     1      -2.334  10.568  18.287  0.00  0.00    +0.000 OA
ATOM     12  C   UNL     1      -2.633  11.813  18.958  0.00  0.00    +0.000 C 
ATOM     13  O   UNL     1      -1.456  12.585  19.271  0.00  0.00    +0.000 OA
ENDBRANCH   3   5
BRANCH   2  14
ATOM     14  C   UNL     1       3.323   6.551  17.831  0.00  0.00    +0.000 A 
ATOM     15  C   UNL     1       4.454   6.995  17.120  0.00  0.00    +0.000 A 
ATOM     16  C   UNL     1       5.274   6.088  16.446  0.00  0.00    +0.000 A 
ATOM     17  C   UNL     1       4.965   4.733  16.471  0.00  0.00    +0.000 A 
ATOM     18 CL   UNL     1       5.965   3.614  15.629  0.00  0.00    +0.000 Cl
ATOM     19  C   UNL     1       3.846   4.275  17.166  0.00  0.00    +0.000 A 
ATOM     20  C   UNL     1       3.022   5.182  17.845  0.00  0.00    +0.000 A 
ATOM     21 CL   UNL     1       1.635   4.524  18.638  0.00  0.00    +0.000 Cl
ENDBRANCH   2  14
TORSDOF 2
ENDMDL
MODEL 4
REMARK VINA RESULT:      -7.3      2.261      2.960
REMARK  Name = 
REMARK  2 active torsions:
REMARK  status: ('A' for Active; 'I' for Inactive)
REMARK    1  A    between atoms: C_2  and  C_13
REMARK    2  A    between atoms: N_3  and  C_4
REMARK                            x       y       z     vdW  Elec       q    Type
REMARK                         _______ _______ _______ _____ _____    ______ ____
ROOT
ATOM      1  O   UNL     1       2.187   8.403  18.892  0.00  0.00    +0.000 OA
ATOM      2  C   UNL     1       1.723   8.051  19.972  0.00  0.00    +0.000 C 
ATOM      3  N   UNL     1       1.826   6.794  20.536  0.00  0.00    +0.000 N 
ATOM      4  H   UNL     1       1.293   6.616  21.380  0.00  0.00    +0.000 HD
ENDROOT
BRANCH   3   5
ATOM      5  C   UNL     1       2.529   5.691  20.005  0.00  0.00    +0.000 A 
ATOM      6  C   UNL     1       3.870   5.764  19.579  0.00  0.00    +0.000 A 
ATOM      7  C   UNL     1       4.510   4.656  19.009  0.00  0.00    +0.000 A 
ATOM      8  C   UNL     1       3.782   3.499  18.868  0.00  0.00    +0.000 A 
ATOM      9  C   UNL     1       2.482   3.411  19.302  0.00  0.00    +0.000 A 
ATOM     10  C   UNL     1       1.835   4.479  19.892  0.00  0.00    +0.000 A 
ATOM     11  O   UNL     1       1.939   2.188  19.060  0.00  0.00    +0.000 OA
ATOM     12  C   UNL     1       3.026   1.542  18.359  0.00  0.00    +0.000 C 
ATOM     13  O   UNL     1       4.222   2.345  18.303  0.00  0.00    +0.000 OA
ENDBRANCH   3   5
BRANCH   2  14
ATOM     14  C   UNL     1       0.880   9.039  20.701  0.00  0.00    +0.000 A 
ATOM     15  C   UNL     1       0.893   8.948  22.106  0.00  0.00    +0.000 A 
ATOM     16  C   UNL     1       0.113   9.806  22.883  0.00  0.00    +0.000 A 
ATOM     17  C   UNL     1      -0.689  10.757  22.262  0.00  0.00    +0.000 A 
ATOM     18 CL   UNL     1      -1.663  11.806  23.216  0.00  0.00    +0.000 Cl
ATOM     19  C   UNL     1      -0.718  10.858  20.872  0.00  0.00    +0.000 A 
ATOM     20  C   UNL     1       0.065  10.000  20.089  0.00  0.00    +0.000 A 
ATOM     21 CL   UNL     1      -0.074  10.172  18.375  0.00  0.00    +0.000 Cl
ENDBRANCH   2  14
TORSDOF 2
ENDMDL
MODEL 5
REMARK VINA RESULT:      -7.2      3.475      7.551
REMARK  Name = 
REMARK  2 active torsions:
REMARK  status: ('A' for Active; 'I' for Inactive)
REMARK    1  A    between atoms: C_2  and  C_13
REMARK    2  A    between atoms: N_3  and  C_4
REMARK                            x       y       z     vdW  Elec       q    Type
REMARK                         _______ _______ _______ _____ _____    ______ ____
ROOT
ATOM      1  O   UNL     1       2.213   7.414  19.649  0.00  0.00    +0.000 OA
ATOM      2  C   UNL     1       2.491   7.591  18.467  0.00  0.00    +0.000 C 
ATOM      3  N   UNL     1       2.023   8.609  17.659  0.00  0.00    +0.000 N 
ATOM      4  H   UNL     1       2.247   8.562  16.671  0.00  0.00    +0.000 HD
ENDROOT
BRANCH   3   5
ATOM      5  C   UNL     1       1.179   9.671  18.051  0.00  0.00    +0.000 A 
ATOM      6  C   UNL     1      -0.227   9.603  17.988  0.00  0.00    +0.000 A 
ATOM      7  C   UNL     1      -1.021  10.701  18.339  0.00  0.00    +0.000 A 
ATOM      8  C   UNL     1      -0.383  11.853  18.735  0.00  0.00    +0.000 A 
ATOM      9  C   UNL     1       0.986  11.920  18.824  0.00  0.00    +0.000 A 
ATOM     10  C   UNL     1       1.793  10.844  18.511  0.00  0.00    +0.000 A 
ATOM     11  O   UNL     1       1.416  13.147  19.223  0.00  0.00    +0.000 OA
ATOM     12  C   UNL     1       0.163  13.862  19.305  0.00  0.00    +0.000 C 
ATOM     13  O   UNL     1      -0.986  13.023  19.070  0.00  0.00    +0.000 OA
ENDBRANCH   3   5
BRANCH   2  14
ATOM     14  C   UNL     1       3.332   6.553  17.808  0.00  0.00    +0.000 A 
ATOM     15  C   UNL     1       4.451   7.023  17.094  0.00  0.00    +0.000 A 
ATOM     16  C   UNL     1       5.286   6.136  16.413  0.00  0.00    +0.000 A 
ATOM     17  C   UNL     1       5.006   4.774  16.436  0.00  0.00    +0.000 A 
ATOM     18 CL   UNL     1       6.025   3.679  15.586  0.00  0.00    +0.000 Cl
ATOM     19  C   UNL     1       3.900   4.291  17.134  0.00  0.00    +0.000 A 
ATOM     20  C   UNL     1       3.060   5.179  17.820  0.00  0.00    +0.000 A 
ATOM     21 CL   UNL     1       1.690   4.490  18.617  0.00  0.00    +0.000 Cl
ENDBRANCH   2  14
TORSDOF 2
ENDMDL
MODEL 6
REMARK VINA RESULT:      -7.2      2.647      3.103
REMARK  Name = 
REMARK  2 active torsions:
REMARK  status: ('A' for Active; 'I' for Inactive)
REMARK    1  A    between atoms: C_2  and  C_13
REMARK    2  A    between atoms: N_3  and  C_4
REMARK                            x       y       z     vdW  Elec       q    Type
REMARK                         _______ _______ _______ _____ _____    ______ ____
ROOT
ATOM      1  O   UNL     1       2.503   7.735  19.449  0.00  0.00    +0.000 OA
ATOM      2  C   UNL     1       1.675   7.542  20.334  0.00  0.00    +0.000 C 
ATOM      3  N   UNL     1       1.281   6.315  20.832  0.00  0.00    +0.000 N 
ATOM      4  H   UNL     1       0.502   6.303  21.481  0.00  0.00    +0.000 HD
ENDROOT
BRANCH   3   5
ATOM      5  C   UNL     1       1.794   5.054  20.459  0.00  0.00    +0.000 A 
ATOM      6  C   UNL     1       2.187   4.074  21.392  0.00  0.00    +0.000 A 
ATOM      7  C   UNL     1       2.740   2.857  20.974  0.00  0.00    +0.000 A 
ATOM      8  C   UNL     1       2.897   2.655  19.623  0.00  0.00    +0.000 A 
ATOM      9  C   UNL     1       2.494   3.594  18.705  0.00  0.00    +0.000 A 
ATOM     10  C   UNL     1       1.921   4.792  19.088  0.00  0.00    +0.000 A 
ATOM     11  O   UNL     1       2.748   3.207  17.427  0.00  0.00    +0.000 OA
ATOM     12  C   UNL     1       3.422   1.949  17.652  0.00  0.00    +0.000 C 
ATOM     13  O   UNL     1       3.450   1.560  19.040  0.00  0.00    +0.000 OA
ENDBRANCH   3   5
BRANCH   2  14
ATOM     14  C   UNL     1       0.947   8.734  20.851  0.00  0.00    +0.000 A 
ATOM     15  C   UNL     1       0.769   8.794  22.247  0.00  0.00    +0.000 A 
ATOM     16  C   UNL     1       0.072   9.853  22.831  0.00  0.00    +0.000 A 
ATOM     17  C   UNL     1      -0.456  10.856  22.025  0.00  0.00    +0.000 A 
ATOM     18 CL   UNL     1      -1.328  12.155  22.741  0.00  0.00    +0.000 Cl
ATOM     19  C   UNL     1      -0.293  10.810  20.641  0.00  0.00    +0.000 A 
ATOM     20  C   UNL     1       0.407   9.749  20.051  0.00  0.00    +0.000 A 
ATOM     21 CL   UNL     1       0.516   9.758  18.327  0.00  0.00    +0.000 Cl
ENDBRANCH   2  14
TORSDOF 2
ENDMDL
MODEL 7
REMARK VINA RESULT:      -7.2      1.169      1.238
REMARK  Name = 
REMARK  2 active torsions:
REMARK  status: ('A' for Active; 'I' for Inactive)
REMARK    1  A    between atoms: C_2  and  C_13
REMARK    2  A    between atoms: N_3  and  C_4
REMARK                            x       y       z     vdW  Elec       q    Type
REMARK                         _______ _______ _______ _____ _____    ______ ____
ROOT
ATOM      1  O   UNL     1       1.251   9.001  17.570  0.00  0.00    +0.000 OA
ATOM      2  C   UNL     1       1.569   8.765  18.732  0.00  0.00    +0.000 C 
ATOM      3  N   UNL     1       2.364   7.722  19.167  0.00  0.00    +0.000 N 
ATOM      4  H   UNL     1       2.447   7.584  20.168  0.00  0.00    +0.000 HD
ENDROOT
BRANCH   3   5
ATOM      5  C   UNL     1       3.007   6.762  18.356  0.00  0.00    +0.000 A 
ATOM      6  C   UNL     1       2.639   5.402  18.332  0.00  0.00    +0.000 A 
ATOM      7  C   UNL     1       3.341   4.476  17.551  0.00  0.00    +0.000 A 
ATOM      8  C   UNL     1       4.408   4.936  16.816  0.00  0.00    +0.000 A 
ATOM      9  C   UNL     1       4.758   6.264  16.813  0.00  0.00    +0.000 A 
ATOM     10  C   UNL     1       4.067   7.204  17.553  0.00  0.00    +0.000 A 
ATOM     11  O   UNL     1       5.844   6.509  16.033  0.00  0.00    +0.000 OA
ATOM     12  C   UNL     1       6.179   5.170  15.604  0.00  0.00    +0.000 C 
ATOM     13  O   UNL     1       5.224   4.180  16.037  0.00  0.00    +0.000 OA
ENDBRANCH   3   5
BRANCH   2  14
ATOM     14  C   UNL     1       0.959   9.620  19.787  0.00  0.00    +0.000 A 
ATOM     15  C   UNL     1       0.293   8.943  20.826  0.00  0.00    +0.000 A 
ATOM     16  C   UNL     1      -0.341   9.651  21.848  0.00  0.00    +0.000 A 
ATOM     17  C   UNL     1      -0.320  11.042  21.836  0.00  0.00    +0.000 A 
ATOM     18 CL   UNL     1      -1.112  11.919  23.085  0.00  0.00    +0.000 Cl
ATOM     19  C   UNL     1       0.331  11.730  20.812  0.00  0.00    +0.000 A 
ATOM     20  C   UNL     1       0.970  11.021  19.785  0.00  0.00    +0.000 A 
ATOM     21 CL   UNL     1       1.708  11.963  18.538  0.00  0.00    +0.000 Cl
ENDBRANCH   2  14
TORSDOF 2
ENDMDL
MODEL 8
REMARK VINA RESULT:      -7.1      3.317      7.648
REMARK  Name = 
REMARK  2 active torsions:
REMARK  status: ('A' for Active; 'I' for Inactive)
REMARK    1  A    between atoms: C_2  and  C_13
REMARK    2  A    between atoms: N_3  and  C_4
REMARK                            x       y       z     vdW  Elec       q    Type
REMARK                         _______ _______ _______ _____ _____    ______ ____
ROOT
ATOM      1  O   UNL     1       2.230   6.348  19.843  0.00  0.00    +0.000 OA
ATOM      2  C   UNL     1       2.592   6.867  18.792  0.00  0.00    +0.000 C 
ATOM      3  N   UNL     1       2.184   8.092  18.301  0.00  0.00    +0.000 N 
ATOM      4  H   UNL     1       2.478   8.341  17.363  0.00  0.00    +0.000 HD
ENDROOT
BRANCH   3   5
ATOM      5  C   UNL     1       1.316   9.005  18.939  0.00  0.00    +0.000 A 
ATOM      6  C   UNL     1       1.195   9.104  20.340  0.00  0.00    +0.000 A 
ATOM      7  C   UNL     1       0.282   9.988  20.926  0.00  0.00    +0.000 A 
ATOM      8  C   UNL     1      -0.502  10.748  20.090  0.00  0.00    +0.000 A 
ATOM      9  C   UNL     1      -0.373  10.676  18.725  0.00  0.00    +0.000 A 
ATOM     10  C   UNL     1       0.538   9.833  18.119  0.00  0.00    +0.000 A 
ATOM     11  O   UNL     1      -1.245  11.498  18.081  0.00  0.00    +0.000 OA
ATOM     12  C   UNL     1      -1.985  12.039  19.199  0.00  0.00    +0.000 C 
ATOM     13  O   UNL     1      -1.465  11.623  20.478  0.00  0.00    +0.000 OA
ENDBRANCH   3   5
BRANCH   2  14
ATOM     14  C   UNL     1       3.476   6.058  17.908  0.00  0.00    +0.000 A 
ATOM     15  C   UNL     1       4.566   6.738  17.331  0.00  0.00    +0.000 A 
ATOM     16  C   UNL     1       5.437   6.080  16.461  0.00  0.00    +0.000 A 
ATOM     17  C   UNL     1       5.222   4.740  16.157  0.00  0.00    +0.000 A 
ATOM     18 CL   UNL     1       6.285   3.930  15.074  0.00  0.00    +0.000 Cl
ATOM     19  C   UNL     1       4.145   4.052  16.715  0.00  0.00    +0.000 A 
ATOM     20  C   UNL     1       3.270   4.709  17.590  0.00  0.00    +0.000 A 
ATOM     21 CL   UNL     1       1.940   3.785  18.193  0.00  0.00    +0.000 Cl
ENDBRANCH   2  14
TORSDOF 2
ENDMDL
MODEL 9
REMARK VINA RESULT:      -7.1      1.237      1.572
REMARK  Name = 
REMARK  2 active torsions:
REMARK  status: ('A' for Active; 'I' for Inactive)
REMARK    1  A    between atoms: C_2  and  C_13
REMARK    2  A    between atoms: N_3  and  C_4
REMARK                            x       y       z     vdW  Elec       q    Type
REMARK                         _______ _______ _______ _____ _____    ______ ____
ROOT
ATOM      1  O   UNL     1       2.167   8.735  17.234  0.00  0.00    +0.000 OA
ATOM      2  C   UNL     1       2.203   8.263  18.366  0.00  0.00    +0.000 C 
ATOM      3  N   UNL     1       2.789   7.067  18.736  0.00  0.00    +0.000 N 
ATOM      4  H   UNL     1       2.639   6.748  19.686  0.00  0.00    +0.000 HD
ENDROOT
BRANCH   3   5
ATOM      5  C   UNL     1       3.504   6.188  17.894  0.00  0.00    +0.000 A 
ATOM      6  C   UNL     1       3.145   4.839  17.704  0.00  0.00    +0.000 A 
ATOM      7  C   UNL     1       3.917   3.991  16.900  0.00  0.00    +0.000 A 
ATOM      8  C   UNL     1       5.043   4.516  16.312  0.00  0.00    +0.000 A 
ATOM      9  C   UNL     1       5.387   5.836  16.471  0.00  0.00    +0.000 A 
ATOM     10  C   UNL     1       4.630   6.702  17.236  0.00  0.00    +0.000 A 
ATOM     11  O   UNL     1       6.538   6.151  15.819  0.00  0.00    +0.000 OA
ATOM     12  C   UNL     1       6.914   4.859  15.291  0.00  0.00    +0.000 C 
ATOM     13  O   UNL     1       5.928   3.836  15.538  0.00  0.00    +0.000 OA
ENDBRANCH   3   5
BRANCH   2  14
ATOM     14  C   UNL     1       1.456   8.993  19.428  0.00  0.00    +0.000 A 
ATOM     15  C   UNL     1       1.177  10.348  19.169  0.00  0.00    +0.000 A 
ATOM     16  C   UNL     1       0.510  11.131  20.113  0.00  0.00    +0.000 A 
ATOM     17  C   UNL     1       0.123  10.568  21.324  0.00  0.00    +0.000 A 
ATOM     18 CL   UNL     1      -0.686  11.534  22.495  0.00  0.00    +0.000 Cl
ATOM     19  C   UNL     1       0.396   9.228  21.599  0.00  0.00    +0.000 A 
ATOM     20  C   UNL     1       1.064   8.439  20.654  0.00  0.00    +0.000 A 
ATOM     21 CL   UNL     1       1.397   6.805  21.106  0.00  0.00    +0.000 Cl
ENDBRANCH   2  14
TORSDOF 2
ENDMDL
