MODEL 1
REMARK VINA RESULT:      -6.7      0.000      0.000
REMARK  Name = 
REMARK  7 active torsions:
REMARK  status: ('A' for Active; 'I' for Inactive)
REMARK    1  A    between atoms: N_1  and  C_2
REMARK    2  A    between atoms: C_2  and  C_3
REMARK    3  A    between atoms: C_6  and  O_7
REMARK    4  A    between atoms: O_7  and  C_8
REMARK    5  A    between atoms: C_11  and  S_12
REMARK    6  A    between atoms: S_12  and  C_15
REMARK    7  A    between atoms: C_15  and  C_16
REMARK                            x       y       z     vdW  Elec       q    Type
REMARK                         _______ _______ _______ _____ _____    ______ ____
ROOT
ATOM      1  C   UNL     1       1.543   8.668  19.724  0.00  0.00    +0.000 A 
ATOM      2  C   UNL     1       1.434   9.332  18.498  0.00  0.00    +0.000 A 
ATOM      3  C   UNL     1       0.524  10.375  18.339  0.00  0.00    +0.000 A 
ATOM      4  C   UNL     1      -0.350  10.692  19.381  0.00  0.00    +0.000 A 
ATOM      5  C   UNL     1      -0.309   9.984  20.582  0.00  0.00    +0.000 A 
ATOM      6  C   UNL     1       0.647   8.971  20.756  0.00  0.00    +0.000 A 
ENDROOT
BRANCH   4   7
ATOM      7  S   UNL     1      -1.495  12.043  19.153  0.00  0.00    +0.000 S 
ATOM      8  O   UNL     1      -1.905  12.496  20.469  0.00  0.00    +0.000 OA
ATOM      9  O   UNL     1      -0.861  12.948  18.213  0.00  0.00    +0.000 OA
BRANCH   7  10
ATOM     10  C   UNL     1      -2.900  11.269  18.364  0.00  0.00    +0.000 C 
BRANCH  10  11
ATOM     11  C   UNL     1      -2.597  11.205  16.900  0.00  0.00    +0.000 C 
ATOM     12  C   UNL     1      -2.631   9.940  16.083  0.00  0.00    +0.000 C 
ATOM     13  S   UNL     1      -3.972  10.994  15.854  0.00  0.00    +0.000 S 
ENDBRANCH  10  11
ENDBRANCH   7  10
ENDBRANCH   4   7
BRANCH   1  14
ATOM     14  O   UNL     1       2.513   7.719  19.984  0.00  0.00    +0.000 OA
BRANCH  14  18
ATOM     15  C   UNL     1       1.381   3.796  19.057  0.00  0.00    +0.000 A 
ATOM     16  C   UNL     1       1.907   4.627  18.058  0.00  0.00    +0.000 A 
ATOM     17  C   UNL     1       2.365   5.906  18.365  0.00  0.00    +0.000 A 
ATOM     18  C   UNL     1       2.220   6.409  19.662  0.00  0.00    +0.000 A 
ATOM     19  C   UNL     1       1.751   5.577  20.677  0.00  0.00    +0.000 A 
ATOM     20  C   UNL     1       1.334   4.273  20.376  0.00  0.00    +0.000 A 
BRANCH  15  21
ATOM     21  C   UNL     1       0.854   2.432  18.692  0.00  0.00    +0.000 C 
BRANCH  21  22
ATOM     22  N   UNL     1       1.916   1.432  18.696  0.00  0.00    +0.000 NA
ATOM     23  H   UNL     1       1.598   0.604  19.193  0.00  0.00    +0.000 HD
ATOM     24  H   UNL     1       2.710   1.800  19.216  0.00  0.00    +0.000 HD
ENDBRANCH  21  22
ENDBRANCH  15  21
ENDBRANCH  14  18
ENDBRANCH   1  14
TORSDOF 7
ENDMDL
MODEL 2
REMARK VINA RESULT:      -6.6      0.329      1.080
REMARK  Name = 
REMARK  7 active torsions:
REMARK  status: ('A' for Active; 'I' for Inactive)
REMARK    1  A    between atoms: N_1  and  C_2
REMARK    2  A    between atoms: C_2  and  C_3
REMARK    3  A    between atoms: C_6  and  O_7
REMARK    4  A    between atoms: O_7  and  C_8
REMARK    5  A    between atoms: C_11  and  S_12
REMARK    6  A    between atoms: S_12  and  C_15
REMARK    7  A    between atoms: C_15  and  C_16
REMARK                            x       y       z     vdW  Elec       q    Type
REMARK                         _______ _______ _______ _____ _____    ______ ____
ROOT
ATOM      1  C   UNL     1       1.651   8.540  19.652  0.00  0.00    +0.000 A 
ATOM      2  C   UNL     1       1.518   9.199  18.426  0.00  0.00    +0.000 A 
ATOM      3  C   UNL     1       0.677  10.304  18.307  0.00  0.00    +0.000 A 
ATOM      4  C   UNL     1      -0.108  10.693  19.394  0.00  0.00    +0.000 A 
ATOM      5  C   UNL     1      -0.047   9.994  20.600  0.00  0.00    +0.000 A 
ATOM      6  C   UNL     1       0.842   8.916  20.732  0.00  0.00    +0.000 A 
ENDROOT
BRANCH   4   7
ATOM      7  S   UNL     1      -1.164  12.121  19.216  0.00  0.00    +0.000 S 
ATOM      8  O   UNL     1      -1.424  12.641  20.545  0.00  0.00    +0.000 OA
ATOM      9  O   UNL     1      -0.548  12.947  18.195  0.00  0.00    +0.000 OA
BRANCH   7  10
ATOM     10  C   UNL     1      -2.685  11.436  18.575  0.00  0.00    +0.000 C 
BRANCH  10  11
ATOM     11  C   UNL     1      -2.544  11.378  17.086  0.00  0.00    +0.000 C 
ATOM     12  C   UNL     1      -2.540  10.102  16.285  0.00  0.00    +0.000 C 
ATOM     13  S   UNL     1      -3.998  11.012  16.204  0.00  0.00    +0.000 S 
ENDBRANCH  10  11
ENDBRANCH   7  10
ENDBRANCH   4   7
BRANCH   1  14
ATOM     14  O   UNL     1       2.565   7.524  19.868  0.00  0.00    +0.000 OA
BRANCH  14  18
ATOM     15  C   UNL     1       1.553   3.551  19.023  0.00  0.00    +0.000 A 
ATOM     16  C   UNL     1       1.328   4.073  20.305  0.00  0.00    +0.000 A 
ATOM     17  C   UNL     1       1.582   5.414  20.581  0.00  0.00    +0.000 A 
ATOM     18  C   UNL     1       2.152   6.235  19.603  0.00  0.00    +0.000 A 
ATOM     19  C   UNL     1       2.329   5.746  18.309  0.00  0.00    +0.000 A 
ATOM     20  C   UNL     1       2.030   4.408  18.019  0.00  0.00    +0.000 A 
BRANCH  15  21
ATOM     21  C   UNL     1       1.310   2.086  18.761  0.00  0.00    +0.000 C 
BRANCH  21  22
ATOM     22  N   UNL     1       2.513   1.427  18.266  0.00  0.00    +0.000 NA
ATOM     23  H   UNL     1       2.253   0.586  17.757  0.00  0.00    +0.000 HD
ATOM     24  H   UNL     1       3.073   1.128  19.063  0.00  0.00    +0.000 HD
ENDBRANCH  21  22
ENDBRANCH  15  21
ENDBRANCH  14  18
ENDBRANCH   1  14
TORSDOF 7
ENDMDL
MODEL 3
REMARK VINA RESULT:      -6.6      4.262      7.746
REMARK  Name = 
REMARK  7 active torsions:
REMARK  status: ('A' for Active; 'I' for Inactive)
REMARK    1  A    between atoms: N_1  and  C_2
REMARK    2  A    between atoms: C_2  and  C_3
REMARK    3  A    between atoms: C_6  and  O_7
REMARK    4  A    between atoms: O_7  and  C_8
REMARK    5  A    between atoms: C_11  and  S_12
REMARK    6  A    between atoms: S_12  and  C_15
REMARK    7  A    between atoms: C_15  and  C_16
REMARK                            x       y       z     vdW  Elec       q    Type
REMARK                         _______ _______ _______ _____ _____    ______ ____
ROOT
ATOM      1  C   UNL     1       1.048   9.960  18.878  0.00  0.00    +0.000 A 
ATOM      2  C   UNL     1       1.744   9.393  17.805  0.00  0.00    +0.000 A 
ATOM      3  C   UNL     1       2.278   8.111  17.910  0.00  0.00    +0.000 A 
ATOM      4  C   UNL     1       2.202   7.429  19.126  0.00  0.00    +0.000 A 
ATOM      5  C   UNL     1       1.583   8.015  20.230  0.00  0.00    +0.000 A 
ATOM      6  C   UNL     1       0.997   9.284  20.104  0.00  0.00    +0.000 A 
ENDROOT
BRANCH   4   7
ATOM      7  S   UNL     1       2.884   5.783  19.225  0.00  0.00    +0.000 S 
ATOM      8  O   UNL     1       2.450   5.058  18.045  0.00  0.00    +0.000 OA
ATOM      9  O   UNL     1       4.294   5.952  19.523  0.00  0.00    +0.000 OA
BRANCH   7  10
ATOM     10  C   UNL     1       2.065   5.078  20.648  0.00  0.00    +0.000 C 
BRANCH  10  11
ATOM     11  C   UNL     1       1.879   3.620  20.366  0.00  0.00    +0.000 C 
ATOM     12  C   UNL     1       2.970   2.588  20.488  0.00  0.00    +0.000 C 
ATOM     13  S   UNL     1       1.813   2.584  21.763  0.00  0.00    +0.000 S 
ENDBRANCH  10  11
ENDBRANCH   7  10
ENDBRANCH   4   7
BRANCH   1  14
ATOM     14  O   UNL     1       0.382  11.169  18.792  0.00  0.00    +0.000 OA
BRANCH  14  18
ATOM     15  C   UNL     1      -3.760  11.275  18.195  0.00  0.00    +0.000 A 
ATOM     16  C   UNL     1      -2.973  10.364  17.476  0.00  0.00    +0.000 A 
ATOM     17  C   UNL     1      -1.606  10.259  17.721  0.00  0.00    +0.000 A 
ATOM     18  C   UNL     1      -0.987  11.126  18.626  0.00  0.00    +0.000 A 
ATOM     19  C   UNL     1      -1.764  11.998  19.388  0.00  0.00    +0.000 A 
ATOM     20  C   UNL     1      -3.147  12.071  19.174  0.00  0.00    +0.000 A 
BRANCH  15  21
ATOM     21  C   UNL     1      -5.230  11.400  17.882  0.00  0.00    +0.000 C 
BRANCH  21  22
ATOM     22  N   UNL     1      -5.515  12.626  17.147  0.00  0.00    +0.000 NA
ATOM     23  H   UNL     1      -6.004  13.279  17.754  0.00  0.00    +0.000 HD
ATOM     24  H   UNL     1      -6.148  12.408  16.380  0.00  0.00    +0.000 HD
ENDBRANCH  21  22
ENDBRANCH  15  21
ENDBRANCH  14  18
ENDBRANCH   1  14
TORSDOF 7
ENDMDL
MODEL 4
REMARK VINA RESULT:      -6.6      4.258      7.628
REMARK  Name = 
REMARK  7 active torsions:
REMARK  status: ('A' for Active; 'I' for Inactive)
REMARK    1  A    between atoms: N_1  and  C_2
REMARK    2  A    between atoms: C_2  and  C_3
REMARK    3  A    between atoms: C_6  and  O_7
REMARK    4  A    between atoms: O_7  and  C_8
REMARK    5  A    between atoms: C_11  and  S_12
REMARK    6  A    between atoms: S_12  and  C_15
REMARK    7  A    between atoms: C_15  and  C_16
REMARK                            x       y       z     vdW  Elec       q    Type
REMARK                         _______ _______ _______ _____ _____    ______ ____
ROOT
ATOM      1  C   UNL     1       1.208   9.558  19.083  0.00  0.00    +0.000 A 
ATOM      2  C   UNL     1       1.259   8.555  20.056  0.00  0.00    +0.000 A 
ATOM      3  C   UNL     1       2.046   7.422  19.860  0.00  0.00    +0.000 A 
ATOM      4  C   UNL     1       2.708   7.245  18.644  0.00  0.00    +0.000 A 
ATOM      5  C   UNL     1       2.601   8.199  17.632  0.00  0.00    +0.000 A 
ATOM      6  C   UNL     1       1.852   9.364  17.855  0.00  0.00    +0.000 A 
ENDROOT
BRANCH   4   7
ATOM      7  S   UNL     1       3.720   5.790  18.427  0.00  0.00    +0.000 S 
ATOM      8  O   UNL     1       4.632   6.051  17.329  0.00  0.00    +0.000 OA
ATOM      9  O   UNL     1       4.217   5.451  19.748  0.00  0.00    +0.000 OA
BRANCH   7  10
ATOM     10  C   UNL     1       2.551   4.545  17.903  0.00  0.00    +0.000 C 
BRANCH  10  11
ATOM     11  C   UNL     1       2.271   3.682  19.093  0.00  0.00    +0.000 C 
ATOM     12  C   UNL     1       1.033   3.791  19.945  0.00  0.00    +0.000 C 
ATOM     13  S   UNL     1       1.061   2.452  18.864  0.00  0.00    +0.000 S 
ENDBRANCH  10  11
ENDBRANCH   7  10
ENDBRANCH   4   7
BRANCH   1  14
ATOM     14  O   UNL     1       0.554  10.762  19.274  0.00  0.00    +0.000 OA
BRANCH  14  18
ATOM     15  C   UNL     1      -3.367  11.256  17.892  0.00  0.00    +0.000 A 
ATOM     16  C   UNL     1      -2.521  10.320  17.278  0.00  0.00    +0.000 A 
ATOM     17  C   UNL     1      -1.242  10.085  17.776  0.00  0.00    +0.000 A 
ATOM     18  C   UNL     1      -0.754  10.846  18.842  0.00  0.00    +0.000 A 
ATOM     19  C   UNL     1      -1.601  11.740  19.497  0.00  0.00    +0.000 A 
ATOM     20  C   UNL     1      -2.904  11.944  19.024  0.00  0.00    +0.000 A 
BRANCH  15  21
ATOM     21  C   UNL     1      -4.731  11.524  17.308  0.00  0.00    +0.000 C 
BRANCH  21  22
ATOM     22  N   UNL     1      -5.354  12.689  17.925  0.00  0.00    +0.000 NA
ATOM     23  H   UNL     1      -4.762  13.031  18.677  0.00  0.00    +0.000 HD
ATOM     24  H   UNL     1      -6.235  12.403  18.350  0.00  0.00    +0.000 HD
ENDBRANCH  21  22
ENDBRANCH  15  21
ENDBRANCH  14  18
ENDBRANCH   1  14
TORSDOF 7
ENDMDL
MODEL 5
REMARK VINA RESULT:      -6.5      4.511      7.735
REMARK  Name = 
REMARK  7 active torsions:
REMARK  status: ('A' for Active; 'I' for Inactive)
REMARK    1  A    between atoms: N_1  and  C_2
REMARK    2  A    between atoms: C_2  and  C_3
REMARK    3  A    between atoms: C_6  and  O_7
REMARK    4  A    between atoms: O_7  and  C_8
REMARK    5  A    between atoms: C_11  and  S_12
REMARK    6  A    between atoms: S_12  and  C_15
REMARK    7  A    between atoms: C_15  and  C_16
REMARK                            x       y       z     vdW  Elec       q    Type
REMARK                         _______ _______ _______ _____ _____    ______ ____
ROOT
ATOM      1  C   UNL     1       1.183   9.517  19.191  0.00  0.00    +0.000 A 
ATOM      2  C   UNL     1       1.920   9.381  18.010  0.00  0.00    +0.000 A 
ATOM      3  C   UNL     1       2.628   8.209  17.753  0.00  0.00    +0.000 A 
ATOM      4  C   UNL     1       2.680   7.207  18.725  0.00  0.00    +0.000 A 
ATOM      5  C   UNL     1       2.016   7.363  19.941  0.00  0.00    +0.000 A 
ATOM      6  C   UNL     1       1.258   8.522  20.173  0.00  0.00    +0.000 A 
ENDROOT
BRANCH   4   7
ATOM      7  S   UNL     1       3.583   5.711  18.360  0.00  0.00    +0.000 S 
ATOM      8  O   UNL     1       4.502   5.476  19.459  0.00  0.00    +0.000 OA
ATOM      9  O   UNL     1       2.587   4.723  17.993  0.00  0.00    +0.000 OA
BRANCH   7  10
ATOM     10  C   UNL     1       4.539   6.145  16.914  0.00  0.00    +0.000 C 
BRANCH  10  11
ATOM     11  C   UNL     1       5.155   4.880  16.404  0.00  0.00    +0.000 C 
ATOM     12  C   UNL     1       5.919   4.772  15.110  0.00  0.00    +0.000 C 
ATOM     13  S   UNL     1       6.888   4.781  16.532  0.00  0.00    +0.000 S 
ENDBRANCH  10  11
ENDBRANCH   7  10
ENDBRANCH   4   7
BRANCH   1  14
ATOM     14  O   UNL     1       0.355  10.596  19.444  0.00  0.00    +0.000 OA
BRANCH  14  18
ATOM     15  C   UNL     1      -3.214  11.005  17.294  0.00  0.00    +0.000 A 
ATOM     16  C   UNL     1      -2.235  10.100  16.859  0.00  0.00    +0.000 A 
ATOM     17  C   UNL     1      -1.078   9.891  17.606  0.00  0.00    +0.000 A 
ATOM     18  C   UNL     1      -0.839  10.652  18.755  0.00  0.00    +0.000 A 
ATOM     19  C   UNL     1      -1.826  11.515  19.229  0.00  0.00    +0.000 A 
ATOM     20  C   UNL     1      -3.011  11.690  18.502  0.00  0.00    +0.000 A 
BRANCH  15  21
ATOM     21  C   UNL     1      -4.438  11.244  16.447  0.00  0.00    +0.000 C 
BRANCH  21  22
ATOM     22  N   UNL     1      -5.636  11.375  17.267  0.00  0.00    +0.000 NA
ATOM     23  H   UNL     1      -5.493  10.898  18.153  0.00  0.00    +0.000 HD
ATOM     24  H   UNL     1      -6.406  10.901  16.799  0.00  0.00    +0.000 HD
ENDBRANCH  21  22
ENDBRANCH  15  21
ENDBRANCH  14  18
ENDBRANCH   1  14
TORSDOF 7
ENDMDL
MODEL 6
REMARK VINA RESULT:      -6.4      3.068      4.277
REMARK  Name = 
REMARK  7 active torsions:
REMARK  status: ('A' for Active; 'I' for Inactive)
REMARK    1  A    between atoms: N_1  and  C_2
REMARK    2  A    between atoms: C_2  and  C_3
REMARK    3  A    between atoms: C_6  and  O_7
REMARK    4  A    between atoms: O_7  and  C_8
REMARK    5  A    between atoms: C_11  and  S_12
REMARK    6  A    between atoms: S_12  and  C_15
REMARK    7  A    between atoms: C_15  and  C_16
REMARK                            x       y       z     vdW  Elec       q    Type
REMARK                         _______ _______ _______ _____ _____    ______ ____
ROOT
ATOM      1  C   UNL     1       2.046   6.897  19.711  0.00  0.00    +0.000 A 
ATOM      2  C   UNL     1       1.490   7.557  20.812  0.00  0.00    +0.000 A 
ATOM      3  C   UNL     1       1.018   8.862  20.687  0.00  0.00    +0.000 A 
ATOM      4  C   UNL     1       1.190   9.545  19.481  0.00  0.00    +0.000 A 
ATOM      5  C   UNL     1       1.816   8.927  18.399  0.00  0.00    +0.000 A 
ATOM      6  C   UNL     1       2.240   7.594  18.512  0.00  0.00    +0.000 A 
ENDROOT
BRANCH   4   7
ATOM      7  S   UNL     1       0.562  11.210  19.346  0.00  0.00    +0.000 S 
ATOM      8  O   UNL     1       1.511  11.973  18.557  0.00  0.00    +0.000 OA
ATOM      9  O   UNL     1      -0.823  11.081  18.934  0.00  0.00    +0.000 OA
BRANCH   7  10
ATOM     10  C   UNL     1       0.619  11.813  21.028  0.00  0.00    +0.000 C 
BRANCH  10  11
ATOM     11  C   UNL     1      -0.787  11.807  21.540  0.00  0.00    +0.000 C 
ATOM     12  C   UNL     1      -1.198  11.256  22.881  0.00  0.00    +0.000 C 
ATOM     13  S   UNL     1      -1.142  12.973  22.783  0.00  0.00    +0.000 S 
ENDBRANCH  10  11
ENDBRANCH   7  10
ENDBRANCH   4   7
BRANCH   1  14
ATOM     14  O   UNL     1       2.409   5.563  19.736  0.00  0.00    +0.000 OA
BRANCH  14  18
ATOM     15  C   UNL     1       5.634   4.601  17.246  0.00  0.00    +0.000 A 
ATOM     16  C   UNL     1       5.869   5.154  18.512  0.00  0.00    +0.000 A 
ATOM     17  C   UNL     1       4.813   5.404  19.386  0.00  0.00    +0.000 A 
ATOM     18  C   UNL     1       3.495   5.189  18.971  0.00  0.00    +0.000 A 
ATOM     19  C   UNL     1       3.249   4.588  17.737  0.00  0.00    +0.000 A 
ATOM     20  C   UNL     1       4.315   4.294  16.877  0.00  0.00    +0.000 A 
BRANCH  15  21
ATOM     21  C   UNL     1       6.789   4.379  16.303  0.00  0.00    +0.000 C 
BRANCH  21  22
ATOM     22  N   UNL     1       8.040   4.193  17.028  0.00  0.00    +0.000 NA
ATOM     23  H   UNL     1       8.186   3.202  17.202  0.00  0.00    +0.000 HD
ATOM     24  H   UNL     1       7.961   4.643  17.938  0.00  0.00    +0.000 HD
ENDBRANCH  21  22
ENDBRANCH  15  21
ENDBRANCH  14  18
ENDBRANCH   1  14
TORSDOF 7
ENDMDL
MODEL 7
REMARK VINA RESULT:      -6.4      3.252      4.503
REMARK  Name = 
REMARK  7 active torsions:
REMARK  status: ('A' for Active; 'I' for Inactive)
REMARK    1  A    between atoms: N_1  and  C_2
REMARK    2  A    between atoms: C_2  and  C_3
REMARK    3  A    between atoms: C_6  and  O_7
REMARK    4  A    between atoms: O_7  and  C_8
REMARK    5  A    between atoms: C_11  and  S_12
REMARK    6  A    between atoms: S_12  and  C_15
REMARK    7  A    between atoms: C_15  and  C_16
REMARK                            x       y       z     vdW  Elec       q    Type
REMARK                         _______ _______ _______ _____ _____    ______ ____
ROOT
ATOM      1  C   UNL     1       1.957   7.863  18.671  0.00  0.00    +0.000 A 
ATOM      2  C   UNL     1       1.698   7.936  20.044  0.00  0.00    +0.000 A 
ATOM      3  C   UNL     1       1.192   9.107  20.604  0.00  0.00    +0.000 A 
ATOM      4  C   UNL     1       1.035  10.242  19.806  0.00  0.00    +0.000 A 
ATOM      5  C   UNL     1       1.366  10.208  18.451  0.00  0.00    +0.000 A 
ATOM      6  C   UNL     1       1.823   9.011  17.879  0.00  0.00    +0.000 A 
ENDROOT
BRANCH   4   7
ATOM      7  S   UNL     1       0.371  11.723  20.550  0.00  0.00    +0.000 S 
ATOM      8  O   UNL     1       1.478  12.447  21.145  0.00  0.00    +0.000 OA
ATOM      9  O   UNL     1      -0.467  12.336  19.536  0.00  0.00    +0.000 OA
BRANCH   7  10
ATOM     10  C   UNL     1      -0.664  11.098  21.866  0.00  0.00    +0.000 C 
BRANCH  10  11
ATOM     11  C   UNL     1      -1.776  12.082  22.049  0.00  0.00    +0.000 C 
ATOM     12  C   UNL     1      -2.709  12.094  23.232  0.00  0.00    +0.000 C 
ATOM     13  S   UNL     1      -1.501  13.319  23.242  0.00  0.00    +0.000 S 
ENDBRANCH  10  11
ENDBRANCH   7  10
ENDBRANCH   4   7
BRANCH   1  14
ATOM     14  O   UNL     1       2.332   6.694  18.035  0.00  0.00    +0.000 OA
BRANCH  14  18
ATOM     15  C   UNL     1       6.369   5.701  18.538  0.00  0.00    +0.000 A 
ATOM     16  C   UNL     1       5.398   5.127  19.370  0.00  0.00    +0.000 A 
ATOM     17  C   UNL     1       4.044   5.382  19.165  0.00  0.00    +0.000 A 
ATOM     18  C   UNL     1       3.644   6.289  18.179  0.00  0.00    +0.000 A 
ATOM     19  C   UNL     1       4.592   6.825  17.308  0.00  0.00    +0.000 A 
ATOM     20  C   UNL     1       5.950   6.531  17.486  0.00  0.00    +0.000 A 
BRANCH  15  21
ATOM     21  C   UNL     1       7.829   5.443  18.807  0.00  0.00    +0.000 C 
BRANCH  21  22
ATOM     22  N   UNL     1       8.119   5.463  20.235  0.00  0.00    +0.000 NA
ATOM     23  H   UNL     1       8.425   6.394  20.506  0.00  0.00    +0.000 HD
ATOM     24  H   UNL     1       8.897   4.832  20.420  0.00  0.00    +0.000 HD
ENDBRANCH  21  22
ENDBRANCH  15  21
ENDBRANCH  14  18
ENDBRANCH   1  14
TORSDOF 7
ENDMDL
MODEL 8
REMARK VINA RESULT:      -6.4      4.473      7.929
REMARK  Name = 
REMARK  7 active torsions:
REMARK  status: ('A' for Active; 'I' for Inactive)
REMARK    1  A    between atoms: N_1  and  C_2
REMARK    2  A    between atoms: C_2  and  C_3
REMARK    3  A    between atoms: C_6  and  O_7
REMARK    4  A    between atoms: O_7  and  C_8
REMARK    5  A    between atoms: C_11  and  S_12
REMARK    6  A    between atoms: S_12  and  C_15
REMARK    7  A    between atoms: C_15  and  C_16
REMARK                            x       y       z     vdW  Elec       q    Type
REMARK                         _______ _______ _______ _____ _____    ______ ____
ROOT
ATOM      1  C   UNL     1       1.483   9.220  18.974  0.00  0.00    +0.000 A 
ATOM      2  C   UNL     1       1.369   8.476  20.153  0.00  0.00    +0.000 A 
ATOM      3  C   UNL     1       1.960   7.218  20.253  0.00  0.00    +0.000 A 
ATOM      4  C   UNL     1       2.586   6.660  19.137  0.00  0.00    +0.000 A 
ATOM      5  C   UNL     1       2.637   7.356  17.929  0.00  0.00    +0.000 A 
ATOM      6  C   UNL     1       2.088   8.645  17.849  0.00  0.00    +0.000 A 
ENDROOT
BRANCH   4   7
ATOM      7  S   UNL     1       3.346   5.053  19.300  0.00  0.00    +0.000 S 
ATOM      8  O   UNL     1       3.057   4.566  20.636  0.00  0.00    +0.000 OA
ATOM      9  O   UNL     1       2.946   4.302  18.126  0.00  0.00    +0.000 OA
BRANCH   7  10
ATOM     10  C   UNL     1       5.095   5.409  19.200  0.00  0.00    +0.000 C 
BRANCH  10  11
ATOM     11  C   UNL     1       5.656   4.533  18.124  0.00  0.00    +0.000 C 
ATOM     12  C   UNL     1       5.961   5.002  16.725  0.00  0.00    +0.000 C 
ATOM     13  S   UNL     1       7.334   4.792  17.741  0.00  0.00    +0.000 S 
ENDBRANCH  10  11
ENDBRANCH   7  10
ENDBRANCH   4   7
BRANCH   1  14
ATOM     14  O   UNL     1       1.035  10.523  18.857  0.00  0.00    +0.000 OA
BRANCH  14  18
ATOM     15  C   UNL     1      -3.025  11.332  18.231  0.00  0.00    +0.000 A 
ATOM     16  C   UNL     1      -2.374  10.369  17.447  0.00  0.00    +0.000 A 
ATOM     17  C   UNL     1      -1.047  10.028  17.695  0.00  0.00    +0.000 A 
ATOM     18  C   UNL     1      -0.320  10.712  18.675  0.00  0.00    +0.000 A 
ATOM     19  C   UNL     1      -0.967  11.632  19.498  0.00  0.00    +0.000 A 
ATOM     20  C   UNL     1      -2.316  11.941  19.278  0.00  0.00    +0.000 A 
BRANCH  15  21
ATOM     21  C   UNL     1      -4.449  11.713  17.915  0.00  0.00    +0.000 C 
BRANCH  21  22
ATOM     22  N   UNL     1      -4.857  11.210  16.609  0.00  0.00    +0.000 NA
ATOM     23  H   UNL     1      -5.361  11.937  16.108  0.00  0.00    +0.000 HD
ATOM     24  H   UNL     1      -5.510  10.440  16.745  0.00  0.00    +0.000 HD
ENDBRANCH  21  22
ENDBRANCH  15  21
ENDBRANCH  14  18
ENDBRANCH   1  14
TORSDOF 7
ENDMDL
MODEL 9
REMARK VINA RESULT:      -6.3      2.981      3.665
REMARK  Name = 
REMARK  7 active torsions:
REMARK  status: ('A' for Active; 'I' for Inactive)
REMARK    1  A    between atoms: N_1  and  C_2
REMARK    2  A    between atoms: C_2  and  C_3
REMARK    3  A    between atoms: C_6  and  O_7
REMARK    4  A    between atoms: O_7  and  C_8
REMARK    5  A    between atoms: C_11  and  S_12
REMARK    6  A    between atoms: S_12  and  C_15
REMARK    7  A    between atoms: C_15  and  C_16
REMARK                            x       y       z     vdW  Elec       q    Type
REMARK                         _______ _______ _______ _____ _____    ______ ____
ROOT
ATOM      1  C   UNL     1       2.645   6.880  19.264  0.00  0.00    +0.000 A 
ATOM      2  C   UNL     1       2.502   7.642  18.099  0.00  0.00    +0.000 A 
ATOM      3  C   UNL     1       1.828   8.860  18.131  0.00  0.00    +0.000 A 
ATOM      4  C   UNL     1       1.210   9.275  19.313  0.00  0.00    +0.000 A 
ATOM      5  C   UNL     1       1.275   8.487  20.462  0.00  0.00    +0.000 A 
ATOM      6  C   UNL     1       2.002   7.287  20.439  0.00  0.00    +0.000 A 
ENDROOT
BRANCH   4   7
ATOM      7  S   UNL     1       0.366  10.848  19.327  0.00  0.00    +0.000 S 
ATOM      8  O   UNL     1      -0.443  10.899  20.531  0.00  0.00    +0.000 OA
ATOM      9  O   UNL     1       1.384  11.848  19.066  0.00  0.00    +0.000 OA
BRANCH   7  10
ATOM     10  C   UNL     1      -0.729  10.746  17.919  0.00  0.00    +0.000 C 
BRANCH  10  11
ATOM     11  C   UNL     1      -2.124  10.679  18.457  0.00  0.00    +0.000 C 
ATOM     12  C   UNL     1      -3.279  11.482  17.916  0.00  0.00    +0.000 C 
ATOM     13  S   UNL     1      -3.272   9.820  17.470  0.00  0.00    +0.000 S 
ENDBRANCH  10  11
ENDBRANCH   7  10
ENDBRANCH   4   7
BRANCH   1  14
ATOM     14  O   UNL     1       3.413   5.732  19.325  0.00  0.00    +0.000 OA
BRANCH  14  18
ATOM     15  C   UNL     1       5.627   4.919  15.866  0.00  0.00    +0.000 A 
ATOM     16  C   UNL     1       6.023   5.956  16.722  0.00  0.00    +0.000 A 
ATOM     17  C   UNL     1       5.348   6.187  17.918  0.00  0.00    +0.000 A 
ATOM     18  C   UNL     1       4.207   5.443  18.234  0.00  0.00    +0.000 A 
ATOM     19  C   UNL     1       3.834   4.374  17.420  0.00  0.00    +0.000 A 
ATOM     20  C   UNL     1       4.542   4.111  16.240  0.00  0.00    +0.000 A 
BRANCH  15  21
ATOM     21  C   UNL     1       6.348   4.715  14.558  0.00  0.00    +0.000 C 
BRANCH  21  22
ATOM     22  N   UNL     1       7.617   5.433  14.531  0.00  0.00    +0.000 NA
ATOM     23  H   UNL     1       8.096   5.305  15.419  0.00  0.00    +0.000 HD
ATOM     24  H   UNL     1       7.427   6.429  14.440  0.00  0.00    +0.000 HD
ENDBRANCH  21  22
ENDBRANCH  15  21
ENDBRANCH  14  18
ENDBRANCH   1  14
TORSDOF 7
ENDMDL
