MODEL 1
REMARK VINA RESULT:      -8.6      0.000      0.000
REMARK  Name = 
REMARK  7 active torsions:
REMARK  status: ('A' for Active; 'I' for Inactive)
REMARK    1  A    between atoms: C_2  and  O_3
REMARK    2  A    between atoms: C_2  and  C_4
REMARK    3  A    between atoms: C_8  and  C_9
REMARK    4  A    between atoms: N_11  and  C_12
REMARK    5  A    between atoms: C_19  and  C_20
REMARK    6  A    between atoms: C_20  and  O_22
REMARK    7  A    between atoms: N_23  and  O_24
REMARK                            x       y       z     vdW  Elec       q    Type
REMARK                         _______ _______ _______ _____ _____    ______ ____
ROOT
ATOM      1  C   UNL     1       1.548   9.213  18.640  0.00  0.00    +0.000 A 
ATOM      2  C   UNL     1       2.156   8.046  19.046  0.00  0.00    +0.000 A 
ATOM      3  N   UNL     1       3.002   7.710  18.012  0.00  0.00    +0.000 N 
ATOM      4  N   UNL     1       2.851   8.598  17.000  0.00  0.00    +0.000 NA
ATOM      5  N   UNL     1       1.999   9.538  17.389  0.00  0.00    +0.000 NA
ENDROOT
BRANCH   3   6
ATOM      6  C   UNL     1       3.805   6.554  17.887  0.00  0.00    +0.000 A 
ATOM      7  C   UNL     1       4.953   6.622  17.076  0.00  0.00    +0.000 A 
ATOM      8  C   UNL     1       5.489   5.459  16.519  0.00  0.00    +0.000 A 
ATOM      9  C   UNL     1       4.788   4.253  16.592  0.00  0.00    +0.000 A 
ATOM     10  C   UNL     1       3.587   4.258  17.332  0.00  0.00    +0.000 A 
ATOM     11  C   UNL     1       3.343   5.264  18.260  0.00  0.00    +0.000 A 
ATOM     12  C   UNL     1       3.573   4.426  19.490  0.00  0.00    +0.000 A 
ATOM     13  C   UNL     1       3.551   3.081  19.052  0.00  0.00    +0.000 A 
ATOM     14  N   UNL     1       2.852   3.214  17.869  0.00  0.00    +0.000 N 
BRANCH  13  15
ATOM     15  C   UNL     1       4.187   1.822  19.331  0.00  0.00    +0.000 C 
ATOM     16  O   UNL     1       4.886   1.608  20.308  0.00  0.00    +0.000 OA
BRANCH  15  17
ATOM     17  O   UNL     1       3.844   0.843  18.472  0.00  0.00    +0.000 OA
ATOM     18  H   UNL     1       3.012   1.007  17.998  0.00  0.00    +0.000 HD
ENDBRANCH  15  17
ENDBRANCH  13  15
BRANCH  14  19
ATOM     19  O   UNL     1       1.434   3.219  17.874  0.00  0.00    +0.000 OA
ATOM     20  H   UNL     1       1.243   2.263  17.861  0.00  0.00    +0.000 HD
ENDBRANCH  14  19
ENDBRANCH   3   6
BRANCH   1  25
ATOM     21  C   UNL     1      -0.457  10.584  21.512  0.00  0.00    +0.000 A 
ATOM     22  C   UNL     1      -1.346  11.431  20.848  0.00  0.00    +0.000 A 
ATOM     23  C   UNL     1      -1.249  11.604  19.471  0.00  0.00    +0.000 A 
ATOM     24  C   UNL     1      -0.278  10.906  18.749  0.00  0.00    +0.000 A 
ATOM     25  C   UNL     1       0.600  10.020  19.392  0.00  0.00    +0.000 A 
ATOM     26  C   UNL     1       0.512   9.877  20.787  0.00  0.00    +0.000 A 
BRANCH  21  28
ATOM     27  O   UNL     1       0.205   9.832  23.663  0.00  0.00    +0.000 OA
ATOM     28  C   UNL     1      -0.614  10.423  22.974  0.00  0.00    +0.000 C 
BRANCH  28  29
ATOM     29  O   UNL     1      -1.762  10.929  23.464  0.00  0.00    +0.000 OA
ATOM     30  H   UNL     1      -2.477  11.040  22.810  0.00  0.00    +0.000 HD
ENDBRANCH  28  29
ENDBRANCH  21  28
ENDBRANCH   1  25
TORSDOF 7
ENDMDL
MODEL 2
REMARK VINA RESULT:      -8.5      2.856      3.774
REMARK  Name = 
REMARK  7 active torsions:
REMARK  status: ('A' for Active; 'I' for Inactive)
REMARK    1  A    between atoms: C_2  and  O_3
REMARK    2  A    between atoms: C_2  and  C_4
REMARK    3  A    between atoms: C_8  and  C_9
REMARK    4  A    between atoms: N_11  and  C_12
REMARK    5  A    between atoms: C_19  and  C_20
REMARK    6  A    between atoms: C_20  and  O_22
REMARK    7  A    between atoms: N_23  and  O_24
REMARK                            x       y       z     vdW  Elec       q    Type
REMARK                         _______ _______ _______ _____ _____    ______ ____
ROOT
ATOM      1  C   UNL     1       1.196   8.685  19.945  0.00  0.00    +0.000 A 
ATOM      2  C   UNL     1       1.685   8.132  18.782  0.00  0.00    +0.000 A 
ATOM      3  N   UNL     1       2.207   6.915  19.162  0.00  0.00    +0.000 N 
ATOM      4  N   UNL     1       2.100   6.779  20.506  0.00  0.00    +0.000 NA
ATOM      5  N   UNL     1       1.451   7.832  20.985  0.00  0.00    +0.000 NA
ENDROOT
BRANCH   3   6
ATOM      6  C   UNL     1       2.901   5.980  18.362  0.00  0.00    +0.000 A 
ATOM      7  C   UNL     1       2.182   4.899  17.819  0.00  0.00    +0.000 A 
ATOM      8  C   UNL     1       2.843   3.722  17.465  0.00  0.00    +0.000 A 
ATOM      9  C   UNL     1       4.178   3.526  17.827  0.00  0.00    +0.000 A 
ATOM     10  C   UNL     1       4.831   4.603  18.464  0.00  0.00    +0.000 A 
ATOM     11  C   UNL     1       4.319   5.891  18.355  0.00  0.00    +0.000 A 
ATOM     12  C   UNL     1       5.358   6.412  17.399  0.00  0.00    +0.000 A 
ATOM     13  C   UNL     1       6.415   5.472  17.427  0.00  0.00    +0.000 A 
ATOM     14  N   UNL     1       6.180   4.864  18.643  0.00  0.00    +0.000 N 
BRANCH  13  15
ATOM     15  C   UNL     1       7.387   4.882  16.546  0.00  0.00    +0.000 C 
ATOM     16  O   UNL     1       7.532   5.196  15.375  0.00  0.00    +0.000 OA
BRANCH  15  17
ATOM     17  O   UNL     1       8.219   4.021  17.162  0.00  0.00    +0.000 OA
ATOM     18  H   UNL     1       9.160   4.190  16.992  0.00  0.00    +0.000 HD
ENDBRANCH  15  17
ENDBRANCH  13  15
BRANCH  14  19
ATOM     19  O   UNL     1       6.680   5.439  19.839  0.00  0.00    +0.000 OA
ATOM     20  H   UNL     1       7.608   5.143  19.815  0.00  0.00    +0.000 HD
ENDBRANCH  14  19
ENDBRANCH   3   6
BRANCH   1  25
ATOM     21  C   UNL     1      -1.178  11.526  19.280  0.00  0.00    +0.000 A 
ATOM     22  C   UNL     1      -0.767  12.458  20.234  0.00  0.00    +0.000 A 
ATOM     23  C   UNL     1       0.242  12.135  21.135  0.00  0.00    +0.000 A 
ATOM     24  C   UNL     1       0.863  10.886  21.067  0.00  0.00    +0.000 A 
ATOM     25  C   UNL     1       0.491   9.949  20.091  0.00  0.00    +0.000 A 
ATOM     26  C   UNL     1      -0.550  10.275  19.205  0.00  0.00    +0.000 A 
BRANCH  21  28
ATOM     27  O   UNL     1      -3.430  11.885  18.624  0.00  0.00    +0.000 OA
ATOM     28  C   UNL     1      -2.243  11.925  18.334  0.00  0.00    +0.000 C 
BRANCH  28  29
ATOM     29  O   UNL     1      -1.794  12.274  17.113  0.00  0.00    +0.000 OA
ATOM     30  H   UNL     1      -2.460  12.681  16.528  0.00  0.00    +0.000 HD
ENDBRANCH  28  29
ENDBRANCH  21  28
ENDBRANCH   1  25
TORSDOF 7
ENDMDL
MODEL 3
REMARK VINA RESULT:      -8.4      2.417      3.195
REMARK  Name = 
REMARK  7 active torsions:
REMARK  status: ('A' for Active; 'I' for Inactive)
REMARK    1  A    between atoms: C_2  and  O_3
REMARK    2  A    between atoms: C_2  and  C_4
REMARK    3  A    between atoms: C_8  and  C_9
REMARK    4  A    between atoms: N_11  and  C_12
REMARK    5  A    between atoms: C_19  and  C_20
REMARK    6  A    between atoms: C_20  and  O_22
REMARK    7  A    between atoms: N_23  and  O_24
REMARK                            x       y       z     vdW  Elec       q    Type
REMARK                         _______ _______ _______ _____ _____    ______ ____
ROOT
ATOM      1  C   UNL     1       1.326   8.784  20.098  0.00  0.00    +0.000 A 
ATOM      2  C   UNL     1       1.932   8.308  18.956  0.00  0.00    +0.000 A 
ATOM      3  N   UNL     1       2.165   6.975  19.210  0.00  0.00    +0.000 N 
ATOM      4  N   UNL     1       1.781   6.683  20.477  0.00  0.00    +0.000 NA
ATOM      5  N   UNL     1       1.234   7.768  21.009  0.00  0.00    +0.000 NA
ENDROOT
BRANCH   3   6
ATOM      6  C   UNL     1       2.837   6.039  18.392  0.00  0.00    +0.000 A 
ATOM      7  C   UNL     1       2.098   4.971  17.851  0.00  0.00    +0.000 A 
ATOM      8  C   UNL     1       2.741   3.790  17.477  0.00  0.00    +0.000 A 
ATOM      9  C   UNL     1       4.079   3.576  17.816  0.00  0.00    +0.000 A 
ATOM     10  C   UNL     1       4.753   4.640  18.453  0.00  0.00    +0.000 A 
ATOM     11  C   UNL     1       4.254   5.934  18.363  0.00  0.00    +0.000 A 
ATOM     12  C   UNL     1       5.284   6.453  17.396  0.00  0.00    +0.000 A 
ATOM     13  C   UNL     1       6.331   5.502  17.400  0.00  0.00    +0.000 A 
ATOM     14  N   UNL     1       6.107   4.886  18.614  0.00  0.00    +0.000 N 
BRANCH  13  15
ATOM     15  C   UNL     1       7.283   4.909  16.499  0.00  0.00    +0.000 C 
ATOM     16  O   UNL     1       7.405   5.222  15.325  0.00  0.00    +0.000 OA
BRANCH  15  17
ATOM     17  O   UNL     1       8.125   4.045  17.098  0.00  0.00    +0.000 OA
ATOM     18  H   UNL     1       8.947   3.889  16.606  0.00  0.00    +0.000 HD
ENDBRANCH  15  17
ENDBRANCH  13  15
BRANCH  14  19
ATOM     19  O   UNL     1       6.631   5.444  19.806  0.00  0.00    +0.000 OA
ATOM     20  H   UNL     1       5.894   5.292  20.425  0.00  0.00    +0.000 HD
ENDBRANCH  14  19
ENDBRANCH   3   6
BRANCH   1  25
ATOM     21  C   UNL     1      -0.458  11.678  21.707  0.00  0.00    +0.000 A 
ATOM     22  C   UNL     1      -0.316  12.666  20.732  0.00  0.00    +0.000 A 
ATOM     23  C   UNL     1       0.416  12.408  19.577  0.00  0.00    +0.000 A 
ATOM     24  C   UNL     1       0.987  11.148  19.383  0.00  0.00    +0.000 A 
ATOM     25  C   UNL     1       0.823  10.129  20.333  0.00  0.00    +0.000 A 
ATOM     26  C   UNL     1       0.108  10.411  21.509  0.00  0.00    +0.000 A 
BRANCH  21  28
ATOM     27  O   UNL     1      -2.002  11.187  23.440  0.00  0.00    +0.000 OA
ATOM     28  C   UNL     1      -1.260  11.999  22.908  0.00  0.00    +0.000 C 
BRANCH  28  29
ATOM     29  O   UNL     1      -1.147  13.277  23.320  0.00  0.00    +0.000 OA
ATOM     30  H   UNL     1      -0.518  13.821  22.811  0.00  0.00    +0.000 HD
ENDBRANCH  28  29
ENDBRANCH  21  28
ENDBRANCH   1  25
TORSDOF 7
ENDMDL
MODEL 4
REMARK VINA RESULT:      -8.4      2.401      3.176
REMARK  Name = 
REMARK  7 active torsions:
REMARK  status: ('A' for Active; 'I' for Inactive)
REMARK    1  A    between atoms: C_2  and  O_3
REMARK    2  A    between atoms: C_2  and  C_4
REMARK    3  A    between atoms: C_8  and  C_9
REMARK    4  A    between atoms: N_11  and  C_12
REMARK    5  A    between atoms: C_19  and  C_20
REMARK    6  A    between atoms: C_20  and  O_22
REMARK    7  A    between atoms: N_23  and  O_24
REMARK                            x       y       z     vdW  Elec       q    Type
REMARK                         _______ _______ _______ _____ _____    ______ ____
ROOT
ATOM      1  C   UNL     1       1.201   9.619  18.778  0.00  0.00    +0.000 A 
ATOM      2  C   UNL     1       1.715   8.432  19.251  0.00  0.00    +0.000 A 
ATOM      3  N   UNL     1       2.618   8.031  18.292  0.00  0.00    +0.000 N 
ATOM      4  N   UNL     1       2.591   8.904  17.255  0.00  0.00    +0.000 NA
ATOM      5  N   UNL     1       1.762   9.893  17.560  0.00  0.00    +0.000 NA
ENDROOT
BRANCH   3   6
ATOM      6  C   UNL     1       3.367   6.834  18.251  0.00  0.00    +0.000 A 
ATOM      7  C   UNL     1       3.098   5.842  19.212  0.00  0.00    +0.000 A 
ATOM      8  C   UNL     1       4.075   4.903  19.544  0.00  0.00    +0.000 A 
ATOM      9  C   UNL     1       5.386   5.053  19.084  0.00  0.00    +0.000 A 
ATOM     10  C   UNL     1       5.631   6.127  18.201  0.00  0.00    +0.000 A 
ATOM     11  C   UNL     1       4.578   6.721  17.516  0.00  0.00    +0.000 A 
ATOM     12  C   UNL     1       4.889   6.129  16.168  0.00  0.00    +0.000 A 
ATOM     13  C   UNL     1       6.206   5.621  16.263  0.00  0.00    +0.000 A 
ATOM     14  N   UNL     1       6.683   6.357  17.329  0.00  0.00    +0.000 N 
BRANCH  13  15
ATOM     15  C   UNL     1       7.000   4.521  15.784  0.00  0.00    +0.000 C 
ATOM     16  O   UNL     1       6.937   4.072  14.650  0.00  0.00    +0.000 OA
BRANCH  15  17
ATOM     17  O   UNL     1       7.920   4.095  16.670  0.00  0.00    +0.000 OA
ATOM     18  H   UNL     1       7.740   4.364  17.586  0.00  0.00    +0.000 HD
ENDBRANCH  15  17
ENDBRANCH  13  15
BRANCH  14  19
ATOM     19  O   UNL     1       7.215   7.654  17.121  0.00  0.00    +0.000 OA
ATOM     20  H   UNL     1       7.989   7.453  16.565  0.00  0.00    +0.000 HD
ENDBRANCH  14  19
ENDBRANCH   3   6
BRANCH   1  25
ATOM     21  C   UNL     1      -0.922  11.172  21.466  0.00  0.00    +0.000 A 
ATOM     22  C   UNL     1      -1.732  12.028  20.719  0.00  0.00    +0.000 A 
ATOM     23  C   UNL     1      -1.543  12.146  19.346  0.00  0.00    +0.000 A 
ATOM     24  C   UNL     1      -0.558  11.385  18.711  0.00  0.00    +0.000 A 
ATOM     25  C   UNL     1       0.241  10.490  19.439  0.00  0.00    +0.000 A 
ATOM     26  C   UNL     1       0.061  10.402  20.830  0.00  0.00    +0.000 A 
BRANCH  21  28
ATOM     27  O   UNL     1      -2.093  11.664  23.472  0.00  0.00    +0.000 OA
ATOM     28  C   UNL     1      -1.176  11.072  22.921  0.00  0.00    +0.000 C 
BRANCH  28  29
ATOM     29  O   UNL     1      -0.275  10.325  23.587  0.00  0.00    +0.000 OA
ATOM     30  H   UNL     1       0.548  10.789  23.830  0.00  0.00    +0.000 HD
ENDBRANCH  28  29
ENDBRANCH  21  28
ENDBRANCH   1  25
TORSDOF 7
ENDMDL
MODEL 5
REMARK VINA RESULT:      -8.4      2.474      3.331
REMARK  Name = 
REMARK  7 active torsions:
REMARK  status: ('A' for Active; 'I' for Inactive)
REMARK    1  A    between atoms: C_2  and  O_3
REMARK    2  A    between atoms: C_2  and  C_4
REMARK    3  A    between atoms: C_8  and  C_9
REMARK    4  A    between atoms: N_11  and  C_12
REMARK    5  A    between atoms: C_19  and  C_20
REMARK    6  A    between atoms: C_20  and  O_22
REMARK    7  A    between atoms: N_23  and  O_24
REMARK                            x       y       z     vdW  Elec       q    Type
REMARK                         _______ _______ _______ _____ _____    ______ ____
ROOT
ATOM      1  C   UNL     1       1.201   8.852  19.909  0.00  0.00    +0.000 A 
ATOM      2  C   UNL     1       1.699   7.568  19.882  0.00  0.00    +0.000 A 
ATOM      3  N   UNL     1       2.377   7.478  18.686  0.00  0.00    +0.000 N 
ATOM      4  N   UNL     1       2.228   8.634  17.995  0.00  0.00    +0.000 NA
ATOM      5  N   UNL     1       1.548   9.489  18.748  0.00  0.00    +0.000 NA
ENDROOT
BRANCH   3   6
ATOM      6  C   UNL     1       3.011   6.344  18.131  0.00  0.00    +0.000 A 
ATOM      7  C   UNL     1       2.217   5.234  17.787  0.00  0.00    +0.000 A 
ATOM      8  C   UNL     1       2.784   3.961  17.715  0.00  0.00    +0.000 A 
ATOM      9  C   UNL     1       4.085   3.739  18.174  0.00  0.00    +0.000 A 
ATOM     10  C   UNL     1       4.809   4.871  18.607  0.00  0.00    +0.000 A 
ATOM     11  C   UNL     1       4.415   6.144  18.212  0.00  0.00    +0.000 A 
ATOM     12  C   UNL     1       5.526   6.370  17.221  0.00  0.00    +0.000 A 
ATOM     13  C   UNL     1       6.495   5.376  17.492  0.00  0.00    +0.000 A 
ATOM     14  N   UNL     1       6.169   5.056  18.794  0.00  0.00    +0.000 N 
BRANCH  13  15
ATOM     15  C   UNL     1       7.439   4.540  16.799  0.00  0.00    +0.000 C 
ATOM     16  O   UNL     1       7.518   4.456  15.584  0.00  0.00    +0.000 OA
BRANCH  15  17
ATOM     17  O   UNL     1       8.323   3.936  17.616  0.00  0.00    +0.000 OA
ATOM     18  H   UNL     1       9.202   4.349  17.621  0.00  0.00    +0.000 HD
ENDBRANCH  15  17
ENDBRANCH  13  15
BRANCH  14  19
ATOM     19  O   UNL     1       6.680   5.826  19.869  0.00  0.00    +0.000 OA
ATOM     20  H   UNL     1       6.012   5.654  20.558  0.00  0.00    +0.000 HD
ENDBRANCH  14  19
ENDBRANCH   3   6
BRANCH   1  25
ATOM     21  C   UNL     1      -0.939  11.321  21.772  0.00  0.00    +0.000 A 
ATOM     22  C   UNL     1      -0.864  10.825  23.074  0.00  0.00    +0.000 A 
ATOM     23  C   UNL     1      -0.167   9.649  23.333  0.00  0.00    +0.000 A 
ATOM     24  C   UNL     1       0.480   8.979  22.292  0.00  0.00    +0.000 A 
ATOM     25  C   UNL     1       0.449   9.483  20.983  0.00  0.00    +0.000 A 
ATOM     26  C   UNL     1      -0.283  10.655  20.728  0.00  0.00    +0.000 A 
BRANCH  21  28
ATOM     27  O   UNL     1      -1.974  13.340  22.467  0.00  0.00    +0.000 OA
ATOM     28  C   UNL     1      -1.679  12.584  21.554  0.00  0.00    +0.000 C 
BRANCH  28  29
ATOM     29  O   UNL     1      -2.048  12.791  20.275  0.00  0.00    +0.000 OA
ATOM     30  H   UNL     1      -1.320  13.018  19.666  0.00  0.00    +0.000 HD
ENDBRANCH  28  29
ENDBRANCH  21  28
ENDBRANCH   1  25
TORSDOF 7
ENDMDL
MODEL 6
REMARK VINA RESULT:      -8.3      1.495      2.031
REMARK  Name = 
REMARK  7 active torsions:
REMARK  status: ('A' for Active; 'I' for Inactive)
REMARK    1  A    between atoms: C_2  and  O_3
REMARK    2  A    between atoms: C_2  and  C_4
REMARK    3  A    between atoms: C_8  and  C_9
REMARK    4  A    between atoms: N_11  and  C_12
REMARK    5  A    between atoms: C_19  and  C_20
REMARK    6  A    between atoms: C_20  and  O_22
REMARK    7  A    between atoms: N_23  and  O_24
REMARK                            x       y       z     vdW  Elec       q    Type
REMARK                         _______ _______ _______ _____ _____    ______ ____
ROOT
ATOM      1  C   UNL     1       1.446   9.188  18.802  0.00  0.00    +0.000 A 
ATOM      2  C   UNL     1       2.071   8.014  19.164  0.00  0.00    +0.000 A 
ATOM      3  N   UNL     1       2.902   7.716  18.107  0.00  0.00    +0.000 N 
ATOM      4  N   UNL     1       2.728   8.633  17.125  0.00  0.00    +0.000 NA
ATOM      5  N   UNL     1       1.875   9.553  17.555  0.00  0.00    +0.000 NA
ENDROOT
BRANCH   3   6
ATOM      6  C   UNL     1       3.714   6.572  17.936  0.00  0.00    +0.000 A 
ATOM      7  C   UNL     1       4.826   6.663  17.079  0.00  0.00    +0.000 A 
ATOM      8  C   UNL     1       5.352   5.514  16.487  0.00  0.00    +0.000 A 
ATOM      9  C   UNL     1       4.669   4.298  16.573  0.00  0.00    +0.000 A 
ATOM     10  C   UNL     1       3.499   4.280  17.362  0.00  0.00    +0.000 A 
ATOM     11  C   UNL     1       3.282   5.272  18.311  0.00  0.00    +0.000 A 
ATOM     12  C   UNL     1       3.571   4.423  19.521  0.00  0.00    +0.000 A 
ATOM     13  C   UNL     1       3.547   3.083  19.067  0.00  0.00    +0.000 A 
ATOM     14  N   UNL     1       2.798   3.221  17.916  0.00  0.00    +0.000 N 
BRANCH  13  15
ATOM     15  C   UNL     1       4.208   1.828  19.305  0.00  0.00    +0.000 C 
ATOM     16  O   UNL     1       4.943   1.609  20.255  0.00  0.00    +0.000 OA
BRANCH  15  17
ATOM     17  O   UNL     1       3.849   0.859  18.442  0.00  0.00    +0.000 OA
ATOM     18  H   UNL     1       4.533   0.184  18.299  0.00  0.00    +0.000 HD
ENDBRANCH  15  17
ENDBRANCH  13  15
BRANCH  14  19
ATOM     19  O   UNL     1       1.382   3.209  17.978  0.00  0.00    +0.000 OA
ATOM     20  H   UNL     1       1.152   3.555  17.097  0.00  0.00    +0.000 HD
ENDBRANCH  14  19
ENDBRANCH   3   6
BRANCH   1  25
ATOM     21  C   UNL     1      -1.494  11.352  19.706  0.00  0.00    +0.000 A 
ATOM     22  C   UNL     1      -1.238  11.618  21.051  0.00  0.00    +0.000 A 
ATOM     23  C   UNL     1      -0.140  11.039  21.680  0.00  0.00    +0.000 A 
ATOM     24  C   UNL     1       0.722  10.213  20.956  0.00  0.00    +0.000 A 
ATOM     25  C   UNL     1       0.503   9.964  19.592  0.00  0.00    +0.000 A 
ATOM     26  C   UNL     1      -0.625  10.529  18.975  0.00  0.00    +0.000 A 
BRANCH  21  28
ATOM     27  O   UNL     1      -3.106  11.664  17.993  0.00  0.00    +0.000 OA
ATOM     28  C   UNL     1      -2.665  12.005  19.080  0.00  0.00    +0.000 C 
BRANCH  28  29
ATOM     29  O   UNL     1      -3.158  13.043  19.784  0.00  0.00    +0.000 OA
ATOM     30  H   UNL     1      -4.122  13.021  19.933  0.00  0.00    +0.000 HD
ENDBRANCH  28  29
ENDBRANCH  21  28
ENDBRANCH   1  25
TORSDOF 7
ENDMDL
MODEL 7
REMARK VINA RESULT:      -8.3      1.490      2.126
REMARK  Name = 
REMARK  7 active torsions:
REMARK  status: ('A' for Active; 'I' for Inactive)
REMARK    1  A    between atoms: C_2  and  O_3
REMARK    2  A    between atoms: C_2  and  C_4
REMARK    3  A    between atoms: C_8  and  C_9
REMARK    4  A    between atoms: N_11  and  C_12
REMARK    5  A    between atoms: C_19  and  C_20
REMARK    6  A    between atoms: C_20  and  O_22
REMARK    7  A    between atoms: N_23  and  O_24
REMARK                            x       y       z     vdW  Elec       q    Type
REMARK                         _______ _______ _______ _____ _____    ______ ____
ROOT
ATOM      1  C   UNL     1       1.057   9.309  19.396  0.00  0.00    +0.000 A 
ATOM      2  C   UNL     1       1.821   8.196  19.672  0.00  0.00    +0.000 A 
ATOM      3  N   UNL     1       2.470   7.911  18.492  0.00  0.00    +0.000 N 
ATOM      4  N   UNL     1       2.056   8.773  17.531  0.00  0.00    +0.000 NA
ATOM      5  N   UNL     1       1.228   9.650  18.081  0.00  0.00    +0.000 NA
ENDROOT
BRANCH   3   6
ATOM      6  C   UNL     1       3.319   6.818  18.209  0.00  0.00    +0.000 A 
ATOM      7  C   UNL     1       4.414   7.026  17.348  0.00  0.00    +0.000 A 
ATOM      8  C   UNL     1       4.971   5.954  16.651  0.00  0.00    +0.000 A 
ATOM      9  C   UNL     1       4.335   4.710  16.638  0.00  0.00    +0.000 A 
ATOM     10  C   UNL     1       3.179   4.579  17.438  0.00  0.00    +0.000 A 
ATOM     11  C   UNL     1       2.942   5.474  18.474  0.00  0.00    +0.000 A 
ATOM     12  C   UNL     1       3.282   4.534  19.599  0.00  0.00    +0.000 A 
ATOM     13  C   UNL     1       3.299   3.239  19.029  0.00  0.00    +0.000 A 
ATOM     14  N   UNL     1       2.527   3.449  17.905  0.00  0.00    +0.000 N 
BRANCH  13  15
ATOM     15  C   UNL     1       4.009   1.994  19.147  0.00  0.00    +0.000 C 
ATOM     16  O   UNL     1       3.719   0.978  18.536  0.00  0.00    +0.000 OA
BRANCH  15  17
ATOM     17  O   UNL     1       5.114   2.075  19.913  0.00  0.00    +0.000 OA
ATOM     18  H   UNL     1       4.952   1.921  20.858  0.00  0.00    +0.000 HD
ENDBRANCH  15  17
ENDBRANCH  13  15
BRANCH  14  19
ATOM     19  O   UNL     1       1.113   3.378  17.985  0.00  0.00    +0.000 OA
ATOM     20  H   UNL     1       0.857   4.189  17.510  0.00  0.00    +0.000 HD
ENDBRANCH  14  19
ENDBRANCH   3   6
BRANCH   1  25
ATOM     21  C   UNL     1      -1.362  11.860  20.731  0.00  0.00    +0.000 A 
ATOM     22  C   UNL     1      -1.283  11.624  22.103  0.00  0.00    +0.000 A 
ATOM     23  C   UNL     1      -0.488  10.591  22.589  0.00  0.00    +0.000 A 
ATOM     24  C   UNL     1       0.252   9.806  21.702  0.00  0.00    +0.000 A 
ATOM     25  C   UNL     1       0.216  10.052  20.321  0.00  0.00    +0.000 A 
ATOM     26  C   UNL     1      -0.614  11.079  19.840  0.00  0.00    +0.000 A 
BRANCH  21  28
ATOM     27  O   UNL     1      -3.371  13.119  20.621  0.00  0.00    +0.000 OA
ATOM     28  C   UNL     1      -2.209  12.982  20.267  0.00  0.00    +0.000 C 
BRANCH  28  29
ATOM     29  O   UNL     1      -1.607  13.796  19.378  0.00  0.00    +0.000 OA
ATOM     30  H   UNL     1      -1.826  14.742  19.470  0.00  0.00    +0.000 HD
ENDBRANCH  28  29
ENDBRANCH  21  28
ENDBRANCH   1  25
TORSDOF 7
ENDMDL
MODEL 8
REMARK VINA RESULT:      -8.3      3.263      4.192
REMARK  Name = 
REMARK  7 active torsions:
REMARK  status: ('A' for Active; 'I' for Inactive)
REMARK    1  A    between atoms: C_2  and  O_3
REMARK    2  A    between atoms: C_2  and  C_4
REMARK    3  A    between atoms: C_8  and  C_9
REMARK    4  A    between atoms: N_11  and  C_12
REMARK    5  A    between atoms: C_19  and  C_20
REMARK    6  A    between atoms: C_20  and  O_22
REMARK    7  A    between atoms: N_23  and  O_24
REMARK                            x       y       z     vdW  Elec       q    Type
REMARK                         _______ _______ _______ _____ _____    ______ ____
ROOT
ATOM      1  C   UNL     1       1.408   9.054  19.221  0.00  0.00    +0.000 A 
ATOM      2  C   UNL     1       2.154   8.328  18.319  0.00  0.00    +0.000 A 
ATOM      3  N   UNL     1       2.558   7.210  19.014  0.00  0.00    +0.000 N 
ATOM      4  N   UNL     1       2.131   7.298  20.297  0.00  0.00    +0.000 NA
ATOM      5  N   UNL     1       1.398   8.396  20.421  0.00  0.00    +0.000 NA
ENDROOT
BRANCH   3   6
ATOM      6  C   UNL     1       3.413   6.175  18.573  0.00  0.00    +0.000 A 
ATOM      7  C   UNL     1       3.401   4.953  19.273  0.00  0.00    +0.000 A 
ATOM      8  C   UNL     1       4.510   4.108  19.228  0.00  0.00    +0.000 A 
ATOM      9  C   UNL     1       5.711   4.546  18.664  0.00  0.00    +0.000 A 
ATOM     10  C   UNL     1       5.703   5.824  18.063  0.00  0.00    +0.000 A 
ATOM     11  C   UNL     1       4.500   6.412  17.691  0.00  0.00    +0.000 A 
ATOM     12  C   UNL     1       4.658   6.209  16.207  0.00  0.00    +0.000 A 
ATOM     13  C   UNL     1       6.020   5.883  16.005  0.00  0.00    +0.000 A 
ATOM     14  N   UNL     1       6.577   6.401  17.156  0.00  0.00    +0.000 N 
BRANCH  13  15
ATOM     15  C   UNL     1       6.840   5.052  15.164  0.00  0.00    +0.000 C 
ATOM     16  O   UNL     1       7.884   5.417  14.647  0.00  0.00    +0.000 OA
BRANCH  15  17
ATOM     17  O   UNL     1       6.413   3.777  15.088  0.00  0.00    +0.000 OA
ATOM     18  H   UNL     1       6.701   3.311  14.286  0.00  0.00    +0.000 HD
ENDBRANCH  15  17
ENDBRANCH  13  15
BRANCH  14  19
ATOM     19  O   UNL     1       6.931   7.772  17.225  0.00  0.00    +0.000 OA
ATOM     20  H   UNL     1       7.300   7.916  16.334  0.00  0.00    +0.000 HD
ENDBRANCH  14  19
ENDBRANCH   3   6
BRANCH   1  25
ATOM     21  C   UNL     1      -1.212  11.482  18.042  0.00  0.00    +0.000 A 
ATOM     22  C   UNL     1      -0.605  12.704  18.331  0.00  0.00    +0.000 A 
ATOM     23  C   UNL     1       0.631  12.737  18.969  0.00  0.00    +0.000 A 
ATOM     24  C   UNL     1       1.277  11.542  19.295  0.00  0.00    +0.000 A 
ATOM     25  C   UNL     1       0.701  10.302  18.978  0.00  0.00    +0.000 A 
ATOM     26  C   UNL     1      -0.561  10.283  18.361  0.00  0.00    +0.000 A 
BRANCH  21  28
ATOM     27  O   UNL     1      -3.582  11.421  17.945  0.00  0.00    +0.000 OA
ATOM     28  C   UNL     1      -2.519  11.503  17.348  0.00  0.00    +0.000 C 
BRANCH  28  29
ATOM     29  O   UNL     1      -2.428  11.557  16.005  0.00  0.00    +0.000 OA
ATOM     30  H   UNL     1      -2.033  12.376  15.650  0.00  0.00    +0.000 HD
ENDBRANCH  28  29
ENDBRANCH  21  28
ENDBRANCH   1  25
TORSDOF 7
ENDMDL
MODEL 9
REMARK VINA RESULT:      -8.2      2.717      3.693
REMARK  Name = 
REMARK  7 active torsions:
REMARK  status: ('A' for Active; 'I' for Inactive)
REMARK    1  A    between atoms: C_2  and  O_3
REMARK    2  A    between atoms: C_2  and  C_4
REMARK    3  A    between atoms: C_8  and  C_9
REMARK    4  A    between atoms: N_11  and  C_12
REMARK    5  A    between atoms: C_19  and  C_20
REMARK    6  A    between atoms: C_20  and  O_22
REMARK    7  A    between atoms: N_23  and  O_24
REMARK                            x       y       z     vdW  Elec       q    Type
REMARK                         _______ _______ _______ _____ _____    ______ ____
ROOT
ATOM      1  C   UNL     1       1.413   8.665  19.799  0.00  0.00    +0.000 A 
ATOM      2  C   UNL     1       2.090   7.470  19.897  0.00  0.00    +0.000 A 
ATOM      3  N   UNL     1       2.735   7.329  18.689  0.00  0.00    +0.000 N 
ATOM      4  N   UNL     1       2.400   8.361  17.876  0.00  0.00    +0.000 NA
ATOM      5  N   UNL     1       1.628   9.198  18.557  0.00  0.00    +0.000 NA
ENDROOT
BRANCH   3   6
ATOM      6  C   UNL     1       3.508   6.236  18.238  0.00  0.00    +0.000 A 
ATOM      7  C   UNL     1       3.358   4.997  18.888  0.00  0.00    +0.000 A 
ATOM      8  C   UNL     1       4.386   4.054  18.850  0.00  0.00    +0.000 A 
ATOM      9  C   UNL     1       5.642   4.399  18.345  0.00  0.00    +0.000 A 
ATOM     10  C   UNL     1       5.774   5.692  17.795  0.00  0.00    +0.000 A 
ATOM     11  C   UNL     1       4.646   6.402  17.404  0.00  0.00    +0.000 A 
ATOM     12  C   UNL     1       4.842   6.239  15.920  0.00  0.00    +0.000 A 
ATOM     13  C   UNL     1       6.175   5.795  15.753  0.00  0.00    +0.000 A 
ATOM     14  N   UNL     1       6.732   6.218  16.943  0.00  0.00    +0.000 N 
BRANCH  13  15
ATOM     15  C   UNL     1       6.947   4.922  14.910  0.00  0.00    +0.000 C 
ATOM     16  O   UNL     1       7.931   5.272  14.278  0.00  0.00    +0.000 OA
BRANCH  15  17
ATOM     17  O   UNL     1       6.557   3.635  14.968  0.00  0.00    +0.000 OA
ATOM     18  H   UNL     1       6.508   3.277  15.869  0.00  0.00    +0.000 HD
ENDBRANCH  15  17
ENDBRANCH  13  15
BRANCH  14  19
ATOM     19  O   UNL     1       7.207   7.546  17.077  0.00  0.00    +0.000 OA
ATOM     20  H   UNL     1       8.010   7.405  17.613  0.00  0.00    +0.000 HD
ENDBRANCH  14  19
ENDBRANCH   3   6
BRANCH   1  25
ATOM     21  C   UNL     1      -0.905  11.096  21.492  0.00  0.00    +0.000 A 
ATOM     22  C   UNL     1      -0.803  10.694  22.824  0.00  0.00    +0.000 A 
ATOM     23  C   UNL     1      -0.027   9.589  23.161  0.00  0.00    +0.000 A 
ATOM     24  C   UNL     1       0.671   8.899  22.168  0.00  0.00    +0.000 A 
ATOM     25  C   UNL     1       0.612   9.312  20.828  0.00  0.00    +0.000 A 
ATOM     26  C   UNL     1      -0.198  10.410  20.495  0.00  0.00    +0.000 A 
BRANCH  21  28
ATOM     27  O   UNL     1      -2.355  12.890  22.048  0.00  0.00    +0.000 OA
ATOM     28  C   UNL     1      -1.729  12.287  21.189  0.00  0.00    +0.000 C 
BRANCH  28  29
ATOM     29  O   UNL     1      -1.776  12.606  19.881  0.00  0.00    +0.000 OA
ATOM     30  H   UNL     1      -1.492  13.514  19.666  0.00  0.00    +0.000 HD
ENDBRANCH  28  29
ENDBRANCH  21  28
ENDBRANCH   1  25
TORSDOF 7
ENDMDL
