MODEL 1
REMARK VINA RESULT:      -6.8      0.000      0.000
REMARK  Name = 
REMARK  1 active torsions:
REMARK  status: ('A' for Active; 'I' for Inactive)
REMARK    1  A    between atoms: C_5  and  C_6
REMARK                            x       y       z     vdW  Elec       q    Type
REMARK                         _______ _______ _______ _____ _____    ______ ____
ROOT
ATOM      1  C   UNL     1       3.354   3.600  17.953  0.00  0.00    +0.000 C 
ATOM      2  S   UNL     1       3.874   2.173  19.001  0.00  0.00    +0.000 S 
ATOM      3  C   UNL     1       3.075   2.832  20.522  0.00  0.00    +0.000 C 
ATOM      4  C   UNL     1       2.724   4.233  20.194  0.00  0.00    +0.000 A 
ATOM      5  N   UNL     1       2.318   5.237  20.934  0.00  0.00    +0.000 NA
ATOM      6  C   UNL     1       2.206   6.298  20.053  0.00  0.00    +0.000 A 
ATOM      7  C   UNL     1       1.837   7.627  20.303  0.00  0.00    +0.000 A 
ATOM      8  C   UNL     1       1.821   8.537  19.237  0.00  0.00    +0.000 A 
ATOM      9  C   UNL     1       2.154   8.131  17.945  0.00  0.00    +0.000 A 
ATOM     10  C   UNL     1       2.510   6.807  17.670  0.00  0.00    +0.000 A 
ATOM     11  C   UNL     1       2.536   5.917  18.751  0.00  0.00    +0.000 A 
ATOM     12  N   UNL     1       2.866   4.605  18.885  0.00  0.00    +0.000 N 
ENDROOT
BRANCH   1  17
ATOM     13 CL   UNL     1       7.948   5.294  14.405  0.00  0.00    +0.000 Cl
ATOM     14  C   UNL     1       6.616   4.881  15.410  0.00  0.00    +0.000 A 
ATOM     15  C   UNL     1       5.449   4.382  14.844  0.00  0.00    +0.000 A 
ATOM     16  C   UNL     1       4.380   4.016  15.664  0.00  0.00    +0.000 A 
ATOM     17  C   UNL     1       4.463   4.137  17.070  0.00  0.00    +0.000 A 
ATOM     18  C   UNL     1       5.649   4.666  17.612  0.00  0.00    +0.000 A 
ATOM     19 CL   UNL     1       5.887   4.841  19.316  0.00  0.00    +0.000 Cl
ATOM     20  C   UNL     1       6.720   5.031  16.790  0.00  0.00    +0.000 A 
ENDBRANCH   1  17
TORSDOF 1
ENDMDL
MODEL 2
REMARK VINA RESULT:      -6.6      5.507      8.026
REMARK  Name = 
REMARK  1 active torsions:
REMARK  status: ('A' for Active; 'I' for Inactive)
REMARK    1  A    between atoms: C_5  and  C_6
REMARK                            x       y       z     vdW  Elec       q    Type
REMARK                         _______ _______ _______ _____ _____    ______ ____
ROOT
ATOM      1  C   UNL     1      -0.400  11.210  20.245  0.00  0.00    +0.000 C 
ATOM      2  S   UNL     1      -1.330  11.440  21.822  0.00  0.00    +0.000 S 
ATOM      3  C   UNL     1      -0.338  10.192  22.741  0.00  0.00    +0.000 C 
ATOM      4  C   UNL     1       0.435   9.476  21.700  0.00  0.00    +0.000 A 
ATOM      5  N   UNL     1       1.152   8.378  21.732  0.00  0.00    +0.000 NA
ATOM      6  C   UNL     1       1.581   8.202  20.429  0.00  0.00    +0.000 A 
ATOM      7  C   UNL     1       2.358   7.172  19.878  0.00  0.00    +0.000 A 
ATOM      8  C   UNL     1       2.645   7.200  18.507  0.00  0.00    +0.000 A 
ATOM      9  C   UNL     1       2.179   8.237  17.699  0.00  0.00    +0.000 A 
ATOM     10  C   UNL     1       1.416   9.282  18.229  0.00  0.00    +0.000 A 
ATOM     11  C   UNL     1       1.126   9.228  19.599  0.00  0.00    +0.000 A 
ATOM     12  N   UNL     1       0.398  10.009  20.440  0.00  0.00    +0.000 N 
ENDROOT
BRANCH   1  17
ATOM     13 CL   UNL     1      -3.631  10.516  15.181  0.00  0.00    +0.000 Cl
ATOM     14  C   UNL     1      -2.769  10.749  16.651  0.00  0.00    +0.000 A 
ATOM     15  C   UNL     1      -2.825   9.783  17.647  0.00  0.00    +0.000 A 
ATOM     16  C   UNL     1      -2.098   9.958  18.827  0.00  0.00    +0.000 A 
ATOM     17  C   UNL     1      -1.295  11.104  19.026  0.00  0.00    +0.000 A 
ATOM     18  C   UNL     1      -1.277  12.076  18.008  0.00  0.00    +0.000 A 
ATOM     19 CL   UNL     1      -0.316  13.510  18.118  0.00  0.00    +0.000 Cl
ATOM     20  C   UNL     1      -2.005  11.898  16.827  0.00  0.00    +0.000 A 
ENDBRANCH   1  17
TORSDOF 1
ENDMDL
MODEL 3
REMARK VINA RESULT:      -6.5      1.936      2.770
REMARK  Name = 
REMARK  1 active torsions:
REMARK  status: ('A' for Active; 'I' for Inactive)
REMARK    1  A    between atoms: C_5  and  C_6
REMARK                            x       y       z     vdW  Elec       q    Type
REMARK                         _______ _______ _______ _____ _____    ______ ____
ROOT
ATOM      1  C   UNL     1       4.337   4.364  17.126  0.00  0.00    +0.000 C 
ATOM      2  S   UNL     1       4.802   2.589  16.938  0.00  0.00    +0.000 S 
ATOM      3  C   UNL     1       3.409   1.979  17.973  0.00  0.00    +0.000 C 
ATOM      4  C   UNL     1       2.863   3.188  18.632  0.00  0.00    +0.000 A 
ATOM      5  N   UNL     1       2.007   3.348  19.612  0.00  0.00    +0.000 NA
ATOM      6  C   UNL     1       1.945   4.717  19.802  0.00  0.00    +0.000 A 
ATOM      7  C   UNL     1       1.207   5.453  20.741  0.00  0.00    +0.000 A 
ATOM      8  C   UNL     1       1.331   6.849  20.755  0.00  0.00    +0.000 A 
ATOM      9  C   UNL     1       2.162   7.503  19.845  0.00  0.00    +0.000 A 
ATOM     10  C   UNL     1       2.895   6.790  18.891  0.00  0.00    +0.000 A 
ATOM     11  C   UNL     1       2.770   5.395  18.904  0.00  0.00    +0.000 A 
ATOM     12  N   UNL     1       3.341   4.390  18.187  0.00  0.00    +0.000 N 
ENDROOT
BRANCH   1  17
ATOM     13 CL   UNL     1       8.759   8.186  18.676  0.00  0.00    +0.000 Cl
ATOM     14  C   UNL     1       7.549   7.065  18.191  0.00  0.00    +0.000 A 
ATOM     15  C   UNL     1       7.353   5.899  18.920  0.00  0.00    +0.000 A 
ATOM     16  C   UNL     1       6.347   5.005  18.544  0.00  0.00    +0.000 A 
ATOM     17  C   UNL     1       5.515   5.268  17.432  0.00  0.00    +0.000 A 
ATOM     18  C   UNL     1       5.752   6.447  16.701  0.00  0.00    +0.000 A 
ATOM     19 CL   UNL     1       4.789   6.896  15.337  0.00  0.00    +0.000 Cl
ATOM     20  C   UNL     1       6.759   7.341  17.079  0.00  0.00    +0.000 A 
ENDBRANCH   1  17
TORSDOF 1
ENDMDL
MODEL 4
REMARK VINA RESULT:      -6.2      1.625      2.170
REMARK  Name = 
REMARK  1 active torsions:
REMARK  status: ('A' for Active; 'I' for Inactive)
REMARK    1  A    between atoms: C_5  and  C_6
REMARK                            x       y       z     vdW  Elec       q    Type
REMARK                         _______ _______ _______ _____ _____    ______ ____
ROOT
ATOM      1  C   UNL     1       4.043   3.937  18.548  0.00  0.00    +0.000 C 
ATOM      2  S   UNL     1       4.498   2.367  19.402  0.00  0.00    +0.000 S 
ATOM      3  C   UNL     1       3.166   2.514  20.663  0.00  0.00    +0.000 C 
ATOM      4  C   UNL     1       2.658   3.898  20.523  0.00  0.00    +0.000 A 
ATOM      5  N   UNL     1       1.858   4.623  21.267  0.00  0.00    +0.000 NA
ATOM      6  C   UNL     1       1.806   5.851  20.631  0.00  0.00    +0.000 A 
ATOM      7  C   UNL     1       1.122   7.018  21.003  0.00  0.00    +0.000 A 
ATOM      8  C   UNL     1       1.246   8.159  20.199  0.00  0.00    +0.000 A 
ATOM      9  C   UNL     1       2.024   8.139  19.042  0.00  0.00    +0.000 A 
ATOM     10  C   UNL     1       2.702   6.982  18.644  0.00  0.00    +0.000 A 
ATOM     11  C   UNL     1       2.579   5.857  19.469  0.00  0.00    +0.000 A 
ATOM     12  N   UNL     1       3.108   4.605  19.442  0.00  0.00    +0.000 N 
ENDROOT
BRANCH   1  17
ATOM     13 CL   UNL     1       8.526   7.810  17.337  0.00  0.00    +0.000 Cl
ATOM     14  C   UNL     1       7.298   6.654  17.671  0.00  0.00    +0.000 A 
ATOM     15  C   UNL     1       7.070   6.244  18.979  0.00  0.00    +0.000 A 
ATOM     16  C   UNL     1       6.050   5.329  19.252  0.00  0.00    +0.000 A 
ATOM     17  C   UNL     1       5.236   4.813  18.219  0.00  0.00    +0.000 A 
ATOM     18  C   UNL     1       5.506   5.230  16.902  0.00  0.00    +0.000 A 
ATOM     19 CL   UNL     1       4.568   4.692  15.552  0.00  0.00    +0.000 Cl
ATOM     20  C   UNL     1       6.527   6.147  16.630  0.00  0.00    +0.000 A 
ENDBRANCH   1  17
TORSDOF 1
ENDMDL
MODEL 5
REMARK VINA RESULT:      -6.1      7.685      9.571
REMARK  Name = 
REMARK  1 active torsions:
REMARK  status: ('A' for Active; 'I' for Inactive)
REMARK    1  A    between atoms: C_5  and  C_6
REMARK                            x       y       z     vdW  Elec       q    Type
REMARK                         _______ _______ _______ _____ _____    ______ ____
ROOT
ATOM      1  C   UNL     1      -2.120  12.973  20.445  0.00  0.00    +0.000 C 
ATOM      2  S   UNL     1      -3.582  13.799  21.209  0.00  0.00    +0.000 S 
ATOM      3  C   UNL     1      -3.211  13.180  22.902  0.00  0.00    +0.000 C 
ATOM      4  C   UNL     1      -2.169  12.146  22.711  0.00  0.00    +0.000 A 
ATOM      5  N   UNL     1      -1.664  11.242  23.517  0.00  0.00    +0.000 NA
ATOM      6  C   UNL     1      -0.761  10.543  22.738  0.00  0.00    +0.000 A 
ATOM      7  C   UNL     1       0.046   9.447  23.076  0.00  0.00    +0.000 A 
ATOM      8  C   UNL     1       0.873   8.887  22.093  0.00  0.00    +0.000 A 
ATOM      9  C   UNL     1       0.908   9.412  20.802  0.00  0.00    +0.000 A 
ATOM     10  C   UNL     1       0.123  10.514  20.446  0.00  0.00    +0.000 A 
ATOM     11  C   UNL     1      -0.709  11.050  21.438  0.00  0.00    +0.000 A 
ATOM     12  N   UNL     1      -1.621  12.057  21.460  0.00  0.00    +0.000 N 
ENDROOT
BRANCH   1  17
ATOM     13 CL   UNL     1      -3.219   9.729  15.463  0.00  0.00    +0.000 Cl
ATOM     14  C   UNL     1      -2.940  10.708  16.848  0.00  0.00    +0.000 A 
ATOM     15  C   UNL     1      -3.861  10.717  17.887  0.00  0.00    +0.000 A 
ATOM     16  C   UNL     1      -3.617  11.488  19.026  0.00  0.00    +0.000 A 
ATOM     17  C   UNL     1      -2.439  12.260  19.146  0.00  0.00    +0.000 A 
ATOM     18  C   UNL     1      -1.536  12.248  18.067  0.00  0.00    +0.000 A 
ATOM     19 CL   UNL     1      -0.048  13.129  18.099  0.00  0.00    +0.000 Cl
ATOM     20  C   UNL     1      -1.781  11.475  16.928  0.00  0.00    +0.000 A 
ENDBRANCH   1  17
TORSDOF 1
ENDMDL
MODEL 6
REMARK VINA RESULT:      -6.1      7.752      9.722
REMARK  Name = 
REMARK  1 active torsions:
REMARK  status: ('A' for Active; 'I' for Inactive)
REMARK    1  A    between atoms: C_5  and  C_6
REMARK                            x       y       z     vdW  Elec       q    Type
REMARK                         _______ _______ _______ _____ _____    ______ ____
ROOT
ATOM      1  C   UNL     1       1.073  12.438  20.714  0.00  0.00    +0.000 C 
ATOM      2  S   UNL     1       2.323  13.588  19.995  0.00  0.00    +0.000 S 
ATOM      3  C   UNL     1       2.054  14.886  21.271  0.00  0.00    +0.000 C 
ATOM      4  C   UNL     1       0.821  14.476  21.981  0.00  0.00    +0.000 A 
ATOM      5  N   UNL     1       0.050  15.098  22.840  0.00  0.00    +0.000 NA
ATOM      6  C   UNL     1      -0.974  14.205  23.101  0.00  0.00    +0.000 A 
ATOM      7  C   UNL     1      -2.097  14.355  23.928  0.00  0.00    +0.000 A 
ATOM      8  C   UNL     1      -3.021  13.304  24.011  0.00  0.00    +0.000 A 
ATOM      9  C   UNL     1      -2.828  12.123  23.295  0.00  0.00    +0.000 A 
ATOM     10  C   UNL     1      -1.708  11.946  22.476  0.00  0.00    +0.000 A 
ATOM     11  C   UNL     1      -0.804  13.013  22.394  0.00  0.00    +0.000 A 
ATOM     12  N   UNL     1       0.339  13.229  21.691  0.00  0.00    +0.000 N 
ENDROOT
BRANCH   1  17
ATOM     13 CL   UNL     1      -2.960  10.065  16.884  0.00  0.00    +0.000 Cl
ATOM     14  C   UNL     1      -1.762  10.730  17.922  0.00  0.00    +0.000 A 
ATOM     15  C   UNL     1      -1.539  12.101  17.933  0.00  0.00    +0.000 A 
ATOM     16  C   UNL     1      -0.588  12.644  18.801  0.00  0.00    +0.000 A 
ATOM     17  C   UNL     1       0.153  11.821  19.679  0.00  0.00    +0.000 A 
ATOM     18  C   UNL     1      -0.080  10.434  19.629  0.00  0.00    +0.000 A 
ATOM     19 CL   UNL     1       0.743   9.322  20.667  0.00  0.00    +0.000 Cl
ATOM     20  C   UNL     1      -1.032   9.892  18.760  0.00  0.00    +0.000 A 
ENDBRANCH   1  17
TORSDOF 1
ENDMDL
MODEL 7
REMARK VINA RESULT:      -6.1      8.604      9.905
REMARK  Name = 
REMARK  1 active torsions:
REMARK  status: ('A' for Active; 'I' for Inactive)
REMARK    1  A    between atoms: C_5  and  C_6
REMARK                            x       y       z     vdW  Elec       q    Type
REMARK                         _______ _______ _______ _____ _____    ______ ____
ROOT
ATOM      1  C   UNL     1      -1.976  12.288  20.685  0.00  0.00    +0.000 C 
ATOM      2  S   UNL     1      -2.750  13.405  21.933  0.00  0.00    +0.000 S 
ATOM      3  C   UNL     1      -4.445  13.214  21.244  0.00  0.00    +0.000 C 
ATOM      4  C   UNL     1      -4.254  12.550  19.935  0.00  0.00    +0.000 A 
ATOM      5  N   UNL     1      -5.065  12.337  18.926  0.00  0.00    +0.000 NA
ATOM      6  C   UNL     1      -4.282  11.711  17.973  0.00  0.00    +0.000 A 
ATOM      7  C   UNL     1      -4.624  11.280  16.683  0.00  0.00    +0.000 A 
ATOM      8  C   UNL     1      -3.637  10.687  15.884  0.00  0.00    +0.000 A 
ATOM      9  C   UNL     1      -2.338  10.515  16.361  0.00  0.00    +0.000 A 
ATOM     10  C   UNL     1      -1.978  10.924  17.649  0.00  0.00    +0.000 A 
ATOM     11  C   UNL     1      -2.975  11.529  18.427  0.00  0.00    +0.000 A 
ATOM     12  N   UNL     1      -2.996  12.081  19.669  0.00  0.00    +0.000 N 
ENDROOT
BRANCH   1  17
ATOM     13 CL   UNL     1       2.972  14.368  17.901  0.00  0.00    +0.000 Cl
ATOM     14  C   UNL     1       1.592  13.802  18.756  0.00  0.00    +0.000 A 
ATOM     15  C   UNL     1       0.475  14.617  18.885  0.00  0.00    +0.000 A 
ATOM     16  C   UNL     1      -0.658  14.142  19.551  0.00  0.00    +0.000 A 
ATOM     17  C   UNL     1      -0.692  12.839  20.096  0.00  0.00    +0.000 A 
ATOM     18  C   UNL     1       0.463  12.045  19.968  0.00  0.00    +0.000 A 
ATOM     19 CL   UNL     1       0.541  10.425  20.568  0.00  0.00    +0.000 Cl
ATOM     20  C   UNL     1       1.596  12.521  19.300  0.00  0.00    +0.000 A 
ENDBRANCH   1  17
TORSDOF 1
ENDMDL
MODEL 8
REMARK VINA RESULT:      -6.0     10.074     11.198
REMARK  Name = 
REMARK  1 active torsions:
REMARK  status: ('A' for Active; 'I' for Inactive)
REMARK    1  A    between atoms: C_5  and  C_6
REMARK                            x       y       z     vdW  Elec       q    Type
REMARK                         _______ _______ _______ _____ _____    ______ ____
ROOT
ATOM      1  C   UNL     1      10.721  14.598  18.888  0.00  0.00    +0.000 C 
ATOM      2  S   UNL     1      10.699  15.747  17.445  0.00  0.00    +0.000 S 
ATOM      3  C   UNL     1      10.021  17.158  18.413  0.00  0.00    +0.000 C 
ATOM      4  C   UNL     1       9.582  16.565  19.698  0.00  0.00    +0.000 A 
ATOM      5  N   UNL     1       8.860  17.036  20.686  0.00  0.00    +0.000 NA
ATOM      6  C   UNL     1       8.758  15.984  21.578  0.00  0.00    +0.000 A 
ATOM      7  C   UNL     1       8.074  15.916  22.800  0.00  0.00    +0.000 A 
ATOM      8  C   UNL     1       8.098  14.716  23.523  0.00  0.00    +0.000 A 
ATOM      9  C   UNL     1       8.797  13.607  23.046  0.00  0.00    +0.000 A 
ATOM     10  C   UNL     1       9.499  13.657  21.838  0.00  0.00    +0.000 A 
ATOM     11  C   UNL     1       9.450  14.861  21.123  0.00  0.00    +0.000 A 
ATOM     12  N   UNL     1       9.950  15.267  19.925  0.00  0.00    +0.000 N 
ENDROOT
BRANCH   1  17
ATOM     13 CL   UNL     1       8.237   9.156  18.008  0.00  0.00    +0.000 Cl
ATOM     14  C   UNL     1       8.981  10.695  18.196  0.00  0.00    +0.000 A 
ATOM     15  C   UNL     1       8.363  11.830  17.687  0.00  0.00    +0.000 A 
ATOM     16  C   UNL     1       8.952  13.083  17.870  0.00  0.00    +0.000 A 
ATOM     17  C   UNL     1      10.171  13.221  18.572  0.00  0.00    +0.000 A 
ATOM     18  C   UNL     1      10.784  12.050  19.056  0.00  0.00    +0.000 A 
ATOM     19 CL   UNL     1      12.263  12.086  19.952  0.00  0.00    +0.000 Cl
ATOM     20  C   UNL     1      10.192  10.797  18.873  0.00  0.00    +0.000 A 
ENDBRANCH   1  17
TORSDOF 1
ENDMDL
MODEL 9
REMARK VINA RESULT:      -6.0      2.989      5.848
REMARK  Name = 
REMARK  1 active torsions:
REMARK  status: ('A' for Active; 'I' for Inactive)
REMARK    1  A    between atoms: C_5  and  C_6
REMARK                            x       y       z     vdW  Elec       q    Type
REMARK                         _______ _______ _______ _____ _____    ______ ____
ROOT
ATOM      1  C   UNL     1       3.303   6.647  17.603  0.00  0.00    +0.000 C 
ATOM      2  S   UNL     1       4.998   7.337  17.366  0.00  0.00    +0.000 S 
ATOM      3  C   UNL     1       5.762   5.694  17.040  0.00  0.00    +0.000 C 
ATOM      4  C   UNL     1       4.727   4.708  17.427  0.00  0.00    +0.000 A 
ATOM      5  N   UNL     1       4.767   3.408  17.595  0.00  0.00    +0.000 NA
ATOM      6  C   UNL     1       3.491   3.068  18.006  0.00  0.00    +0.000 A 
ATOM      7  C   UNL     1       2.973   1.813  18.356  0.00  0.00    +0.000 A 
ATOM      8  C   UNL     1       1.637   1.725  18.771  0.00  0.00    +0.000 A 
ATOM      9  C   UNL     1       0.828   2.859  18.826  0.00  0.00    +0.000 A 
ATOM     10  C   UNL     1       1.319   4.118  18.466  0.00  0.00    +0.000 A 
ATOM     11  C   UNL     1       2.661   4.189  18.070  0.00  0.00    +0.000 A 
ATOM     12  N   UNL     1       3.484   5.207  17.704  0.00  0.00    +0.000 N 
ENDROOT
BRANCH   1  17
ATOM     13 CL   UNL     1       0.043   8.672  22.275  0.00  0.00    +0.000 Cl
ATOM     14  C   UNL     1       1.029   8.129  20.976  0.00  0.00    +0.000 A 
ATOM     15  C   UNL     1       1.652   6.890  21.050  0.00  0.00    +0.000 A 
ATOM     16  C   UNL     1       2.426   6.436  19.979  0.00  0.00    +0.000 A 
ATOM     17  C   UNL     1       2.584   7.215  18.811  0.00  0.00    +0.000 A 
ATOM     18  C   UNL     1       1.958   8.475  18.774  0.00  0.00    +0.000 A 
ATOM     19 CL   UNL     1       2.053   9.513  17.394  0.00  0.00    +0.000 Cl
ATOM     20  C   UNL     1       1.183   8.928  19.847  0.00  0.00    +0.000 A 
ENDBRANCH   1  17
TORSDOF 1
ENDMDL
