MODEL 1
REMARK VINA RESULT:      -7.7      0.000      0.000
REMARK  Name = 
REMARK  5 active torsions:
REMARK  status: ('A' for Active; 'I' for Inactive)
REMARK    1  A    between atoms: C_1  and  O_2
REMARK    2  A    between atoms: O_2  and  C_3
REMARK    3  A    between atoms: C_8  and  N_9
REMARK    4  A    between atoms: C_13  and  C_14
REMARK    5  A    between atoms: C_17  and  C_18
REMARK                            x       y       z     vdW  Elec       q    Type
REMARK                         _______ _______ _______ _____ _____    ______ ____
ROOT
ATOM      1  N   UNL     1       1.301   9.214  18.937  0.00  0.00    +0.000 N 
ATOM      2  C   UNL     1       2.160   9.058  17.873  0.00  0.00    +0.000 A 
ATOM      3  C   UNL     1       2.850   7.906  18.105  0.00  0.00    +0.000 A 
ATOM      4  N   UNL     1       3.822   7.384  17.336  0.00  0.00    +0.000 NA
ATOM      5  C   UNL     1       4.282   6.222  17.883  0.00  0.00    +0.000 A 
ATOM      6  N   UNL     1       3.882   5.591  19.039  0.00  0.00    +0.000 NA
ATOM      7  C   UNL     1       2.879   6.123  19.786  0.00  0.00    +0.000 A 
ATOM      8  N   UNL     1       2.459   5.458  20.929  0.00  0.00    +0.000 N 
ATOM      9  C   UNL     1       2.345   7.348  19.312  0.00  0.00    +0.000 A 
ATOM     10  N   UNL     1       1.391   8.155  19.811  0.00  0.00    +0.000 NA
ATOM     11  H   UNL     1       3.157   4.828  21.301  0.00  0.00    +0.000 HD
ATOM     12  H   UNL     1       1.940   6.037  21.579  0.00  0.00    +0.000 HD
ENDROOT
BRANCH   1  18
ATOM     13  C   UNL     1      -0.792  10.538  18.503  0.00  0.00    +0.000 A 
ATOM     14  C   UNL     1      -1.629  11.598  18.901  0.00  0.00    +0.000 A 
ATOM     15  C   UNL     1      -1.281  12.437  19.959  0.00  0.00    +0.000 A 
ATOM     16  C   UNL     1      -0.101  12.220  20.650  0.00  0.00    +0.000 A 
ATOM     17  C   UNL     1       0.723  11.150  20.296  0.00  0.00    +0.000 A 
ATOM     18  C   UNL     1       0.391  10.287  19.228  0.00  0.00    +0.000 A 
BRANCH  13  20
ATOM     19  C   UNL     1      -2.249  10.158  16.668  0.00  0.00    +0.000 C 
ATOM     20  O   UNL     1      -1.139   9.729  17.455  0.00  0.00    +0.000 OA
ENDBRANCH  13  20
ENDBRANCH   1  18
BRANCH   5  21
ATOM     21  C   UNL     1       5.325   5.512  17.147  0.00  0.00    +0.000 A 
ATOM     22  C   UNL     1       6.590   5.071  17.493  0.00  0.00    +0.000 A 
ATOM     23  C   UNL     1       7.118   4.402  16.364  0.00  0.00    +0.000 A 
ATOM     24  C   UNL     1       6.151   4.478  15.386  0.00  0.00    +0.000 A 
ATOM     25  C   UNL     1       6.073   3.979  13.999  0.00  0.00    +0.000 C 
ATOM     26  O   UNL     1       5.064   5.156  15.850  0.00  0.00    +0.000 OA
ENDBRANCH   5  21
TORSDOF 3
ENDMDL
MODEL 2
REMARK VINA RESULT:      -7.6      1.492      1.816
REMARK  Name = 
REMARK  5 active torsions:
REMARK  status: ('A' for Active; 'I' for Inactive)
REMARK    1  A    between atoms: C_1  and  O_2
REMARK    2  A    between atoms: O_2  and  C_3
REMARK    3  A    between atoms: C_8  and  N_9
REMARK    4  A    between atoms: C_13  and  C_14
REMARK    5  A    between atoms: C_17  and  C_18
REMARK                            x       y       z     vdW  Elec       q    Type
REMARK                         _______ _______ _______ _____ _____    ______ ____
ROOT
ATOM      1  N   UNL     1       1.902   7.945  19.653  0.00  0.00    +0.000 N 
ATOM      2  C   UNL     1       2.595   8.196  18.491  0.00  0.00    +0.000 A 
ATOM      3  C   UNL     1       3.278   7.054  18.199  0.00  0.00    +0.000 A 
ATOM      4  N   UNL     1       4.115   6.861  17.164  0.00  0.00    +0.000 NA
ATOM      5  C   UNL     1       4.616   5.593  17.194  0.00  0.00    +0.000 A 
ATOM      6  N   UNL     1       4.368   4.584  18.097  0.00  0.00    +0.000 NA
ATOM      7  C   UNL     1       3.498   4.793  19.120  0.00  0.00    +0.000 A 
ATOM      8  N   UNL     1       3.228   3.757  20.002  0.00  0.00    +0.000 N 
ATOM      9  C   UNL     1       2.937   6.093  19.191  0.00  0.00    +0.000 A 
ATOM     10  N   UNL     1       2.086   6.648  20.075  0.00  0.00    +0.000 NA
ATOM     11  H   UNL     1       3.953   3.053  20.023  0.00  0.00    +0.000 HD
ATOM     12  H   UNL     1       2.824   4.056  20.882  0.00  0.00    +0.000 HD
ENDROOT
BRANCH   1  18
ATOM     13  C   UNL     1       0.230   9.808  19.881  0.00  0.00    +0.000 A 
ATOM     14  C   UNL     1      -0.566  10.590  20.739  0.00  0.00    +0.000 A 
ATOM     15  C   UNL     1      -0.493  10.446  22.125  0.00  0.00    +0.000 A 
ATOM     16  C   UNL     1       0.364   9.507  22.674  0.00  0.00    +0.000 A 
ATOM     17  C   UNL     1       1.133   8.696  21.838  0.00  0.00    +0.000 A 
ATOM     18  C   UNL     1       1.074   8.824  20.432  0.00  0.00    +0.000 A 
BRANCH  13  20
ATOM     19  C   UNL     1      -1.130  10.278  17.993  0.00  0.00    +0.000 C 
ATOM     20  O   UNL     1       0.157   9.967  18.523  0.00  0.00    +0.000 OA
ENDBRANCH  13  20
ENDBRANCH   1  18
BRANCH   5  21
ATOM     21  C   UNL     1       5.522   5.214  16.112  0.00  0.00    +0.000 A 
ATOM     22  C   UNL     1       6.884   5.373  15.923  0.00  0.00    +0.000 A 
ATOM     23  C   UNL     1       7.205   4.755  14.691  0.00  0.00    +0.000 A 
ATOM     24  C   UNL     1       6.021   4.263  14.189  0.00  0.00    +0.000 A 
ATOM     25  C   UNL     1       5.675   3.515  12.964  0.00  0.00    +0.000 C 
ATOM     26  O   UNL     1       4.995   4.542  15.040  0.00  0.00    +0.000 OA
ENDBRANCH   5  21
TORSDOF 3
ENDMDL
MODEL 3
REMARK VINA RESULT:      -7.6      1.250      1.998
REMARK  Name = 
REMARK  5 active torsions:
REMARK  status: ('A' for Active; 'I' for Inactive)
REMARK    1  A    between atoms: C_1  and  O_2
REMARK    2  A    between atoms: O_2  and  C_3
REMARK    3  A    between atoms: C_8  and  N_9
REMARK    4  A    between atoms: C_13  and  C_14
REMARK    5  A    between atoms: C_17  and  C_18
REMARK                            x       y       z     vdW  Elec       q    Type
REMARK                         _______ _______ _______ _____ _____    ______ ____
ROOT
ATOM      1  N   UNL     1       1.301   8.980  19.202  0.00  0.00    +0.000 N 
ATOM      2  C   UNL     1       2.153   8.897  18.125  0.00  0.00    +0.000 A 
ATOM      3  C   UNL     1       2.861   7.744  18.286  0.00  0.00    +0.000 A 
ATOM      4  N   UNL     1       3.834   7.279  17.482  0.00  0.00    +0.000 NA
ATOM      5  C   UNL     1       4.315   6.096  17.959  0.00  0.00    +0.000 A 
ATOM      6  N   UNL     1       3.932   5.395  19.080  0.00  0.00    +0.000 NA
ATOM      7  C   UNL     1       2.929   5.869  19.864  0.00  0.00    +0.000 A 
ATOM      8  N   UNL     1       2.528   5.135  20.970  0.00  0.00    +0.000 N 
ATOM      9  C   UNL     1       2.375   7.111  19.464  0.00  0.00    +0.000 A 
ATOM     10  N   UNL     1       1.413   7.875  20.015  0.00  0.00    +0.000 NA
ATOM     11  H   UNL     1       3.237   4.495  21.301  0.00  0.00    +0.000 HD
ATOM     12  H   UNL     1       2.006   5.670  21.656  0.00  0.00    +0.000 HD
ENDROOT
BRANCH   1  18
ATOM     13  C   UNL     1       0.263  10.564  20.856  0.00  0.00    +0.000 A 
ATOM     14  C   UNL     1      -0.651  11.610  21.084  0.00  0.00    +0.000 A 
ATOM     15  C   UNL     1      -1.482  12.080  20.067  0.00  0.00    +0.000 A 
ATOM     16  C   UNL     1      -1.401  11.524  18.801  0.00  0.00    +0.000 A 
ATOM     17  C   UNL     1      -0.473  10.513  18.545  0.00  0.00    +0.000 A 
ATOM     18  C   UNL     1       0.379  10.023  19.560  0.00  0.00    +0.000 A 
BRANCH  13  20
ATOM     19  C   UNL     1       0.398   9.525  22.986  0.00  0.00    +0.000 C 
ATOM     20  O   UNL     1       1.065  10.104  21.866  0.00  0.00    +0.000 OA
ENDBRANCH  13  20
ENDBRANCH   1  18
BRANCH   5  21
ATOM     21  C   UNL     1       5.361   5.443  17.176  0.00  0.00    +0.000 A 
ATOM     22  C   UNL     1       6.655   5.051  17.471  0.00  0.00    +0.000 A 
ATOM     23  C   UNL     1       7.171   4.423  16.314  0.00  0.00    +0.000 A 
ATOM     24  C   UNL     1       6.170   4.474  15.370  0.00  0.00    +0.000 A 
ATOM     25  C   UNL     1       6.066   3.994  13.978  0.00  0.00    +0.000 C 
ATOM     26  O   UNL     1       5.071   5.097  15.882  0.00  0.00    +0.000 OA
ENDBRANCH   5  21
TORSDOF 3
ENDMDL
MODEL 4
REMARK VINA RESULT:      -7.4      1.235      1.794
REMARK  Name = 
REMARK  5 active torsions:
REMARK  status: ('A' for Active; 'I' for Inactive)
REMARK    1  A    between atoms: C_1  and  O_2
REMARK    2  A    between atoms: O_2  and  C_3
REMARK    3  A    between atoms: C_8  and  N_9
REMARK    4  A    between atoms: C_13  and  C_14
REMARK    5  A    between atoms: C_17  and  C_18
REMARK                            x       y       z     vdW  Elec       q    Type
REMARK                         _______ _______ _______ _____ _____    ______ ____
ROOT
ATOM      1  N   UNL     1       1.206   9.449  18.687  0.00  0.00    +0.000 N 
ATOM      2  C   UNL     1       2.112   9.225  17.676  0.00  0.00    +0.000 A 
ATOM      3  C   UNL     1       2.774   8.080  18.003  0.00  0.00    +0.000 A 
ATOM      4  N   UNL     1       3.773   7.505  17.311  0.00  0.00    +0.000 NA
ATOM      5  C   UNL     1       4.191   6.370  17.943  0.00  0.00    +0.000 A 
ATOM      6  N   UNL     1       3.728   5.809  19.111  0.00  0.00    +0.000 NA
ATOM      7  C   UNL     1       2.699   6.392  19.779  0.00  0.00    +0.000 A 
ATOM      8  N   UNL     1       2.217   5.796  20.935  0.00  0.00    +0.000 N 
ATOM      9  C   UNL     1       2.205   7.595  19.214  0.00  0.00    +0.000 A 
ATOM     10  N   UNL     1       1.239   8.439  19.622  0.00  0.00    +0.000 NA
ATOM     11  H   UNL     1       2.887   5.180  21.374  0.00  0.00    +0.000 HD
ATOM     12  H   UNL     1       1.676   6.417  21.527  0.00  0.00    +0.000 HD
ENDROOT
BRANCH   1  18
ATOM     13  C   UNL     1       0.704  11.869  19.148  0.00  0.00    +0.000 A 
ATOM     14  C   UNL     1      -0.273  12.874  19.277  0.00  0.00    +0.000 A 
ATOM     15  C   UNL     1      -1.633  12.576  19.197  0.00  0.00    +0.000 A 
ATOM     16  C   UNL     1      -2.039  11.272  18.969  0.00  0.00    +0.000 A 
ATOM     17  C   UNL     1      -1.085  10.268  18.799  0.00  0.00    +0.000 A 
ATOM     18  C   UNL     1       0.298  10.547  18.875  0.00  0.00    +0.000 A 
BRANCH  13  20
ATOM     19  C   UNL     1       2.547  13.071  18.257  0.00  0.00    +0.000 C 
ATOM     20  O   UNL     1       2.035  12.173  19.240  0.00  0.00    +0.000 OA
ENDBRANCH  13  20
ENDBRANCH   1  18
BRANCH   5  21
ATOM     21  C   UNL     1       5.258   5.609  17.297  0.00  0.00    +0.000 A 
ATOM     22  C   UNL     1       6.486   5.147  17.736  0.00  0.00    +0.000 A 
ATOM     23  C   UNL     1       7.064   4.426  16.665  0.00  0.00    +0.000 A 
ATOM     24  C   UNL     1       6.163   4.495  15.626  0.00  0.00    +0.000 A 
ATOM     25  C   UNL     1       6.157   3.951  14.253  0.00  0.00    +0.000 C 
ATOM     26  O   UNL     1       5.068   5.216  15.998  0.00  0.00    +0.000 OA
ENDBRANCH   5  21
TORSDOF 3
ENDMDL
MODEL 5
REMARK VINA RESULT:      -7.3      2.499      7.822
REMARK  Name = 
REMARK  5 active torsions:
REMARK  status: ('A' for Active; 'I' for Inactive)
REMARK    1  A    between atoms: C_1  and  O_2
REMARK    2  A    between atoms: O_2  and  C_3
REMARK    3  A    between atoms: C_8  and  N_9
REMARK    4  A    between atoms: C_13  and  C_14
REMARK    5  A    between atoms: C_17  and  C_18
REMARK                            x       y       z     vdW  Elec       q    Type
REMARK                         _______ _______ _______ _____ _____    ______ ____
ROOT
ATOM      1  N   UNL     1       2.444   6.691  18.764  0.00  0.00    +0.000 N 
ATOM      2  C   UNL     1       2.365   7.779  17.925  0.00  0.00    +0.000 A 
ATOM      3  C   UNL     1       1.847   8.797  18.669  0.00  0.00    +0.000 A 
ATOM      4  N   UNL     1       1.566  10.041  18.242  0.00  0.00    +0.000 NA
ATOM      5  C   UNL     1       1.060  10.787  19.266  0.00  0.00    +0.000 A 
ATOM      6  N   UNL     1       0.834  10.422  20.573  0.00  0.00    +0.000 NA
ATOM      7  C   UNL     1       1.150   9.169  20.990  0.00  0.00    +0.000 A 
ATOM      8  N   UNL     1       0.952   8.825  22.319  0.00  0.00    +0.000 N 
ATOM      9  C   UNL     1       1.665   8.303  19.991  0.00  0.00    +0.000 A 
ATOM     10  N   UNL     1       2.041   7.012  20.039  0.00  0.00    +0.000 NA
ATOM     11  H   UNL     1       0.271   9.410  22.783  0.00  0.00    +0.000 HD
ATOM     12  H   UNL     1       0.922   7.826  22.489  0.00  0.00    +0.000 HD
ENDROOT
BRANCH   1  18
ATOM     13  C   UNL     1       4.118   4.816  18.828  0.00  0.00    +0.000 A 
ATOM     14  C   UNL     1       4.404   3.470  18.530  0.00  0.00    +0.000 A 
ATOM     15  C   UNL     1       3.489   2.670  17.846  0.00  0.00    +0.000 A 
ATOM     16  C   UNL     1       2.266   3.196  17.464  0.00  0.00    +0.000 A 
ATOM     17  C   UNL     1       1.948   4.517  17.785  0.00  0.00    +0.000 A 
ATOM     18  C   UNL     1       2.859   5.345  18.478  0.00  0.00    +0.000 A 
BRANCH  13  20
ATOM     19  C   UNL     1       6.393   5.435  19.102  0.00  0.00    +0.000 C 
ATOM     20  O   UNL     1       5.030   5.594  19.489  0.00  0.00    +0.000 OA
ENDBRANCH  13  20
ENDBRANCH   1  18
BRANCH   5  21
ATOM     21  C   UNL     1       0.731  12.180  18.970  0.00  0.00    +0.000 A 
ATOM     22  C   UNL     1      -0.459  12.831  18.701  0.00  0.00    +0.000 A 
ATOM     23  C   UNL     1      -0.152  14.202  18.537  0.00  0.00    +0.000 A 
ATOM     24  C   UNL     1       1.210  14.313  18.703  0.00  0.00    +0.000 A 
ATOM     25  C   UNL     1       2.144  15.456  18.667  0.00  0.00    +0.000 C 
ATOM     26  O   UNL     1       1.755  13.091  18.959  0.00  0.00    +0.000 OA
ENDBRANCH   5  21
TORSDOF 3
ENDMDL
MODEL 6
REMARK VINA RESULT:      -7.2      1.710      7.921
REMARK  Name = 
REMARK  5 active torsions:
REMARK  status: ('A' for Active; 'I' for Inactive)
REMARK    1  A    between atoms: C_1  and  O_2
REMARK    2  A    between atoms: O_2  and  C_3
REMARK    3  A    between atoms: C_8  and  N_9
REMARK    4  A    between atoms: C_13  and  C_14
REMARK    5  A    between atoms: C_17  and  C_18
REMARK                            x       y       z     vdW  Elec       q    Type
REMARK                         _______ _______ _______ _____ _____    ______ ____
ROOT
ATOM      1  N   UNL     1       4.316   5.951  17.614  0.00  0.00    +0.000 N 
ATOM      2  C   UNL     1       3.800   7.222  17.722  0.00  0.00    +0.000 A 
ATOM      3  C   UNL     1       2.950   7.199  18.788  0.00  0.00    +0.000 A 
ATOM      4  N   UNL     1       2.199   8.220  19.237  0.00  0.00    +0.000 NA
ATOM      5  C   UNL     1       1.473   7.828  20.323  0.00  0.00    +0.000 A 
ATOM      6  N   UNL     1       1.441   6.601  20.946  0.00  0.00    +0.000 NA
ATOM      7  C   UNL     1       2.228   5.591  20.491  0.00  0.00    +0.000 A 
ATOM      8  N   UNL     1       2.215   4.371  21.150  0.00  0.00    +0.000 N 
ATOM      9  C   UNL     1       3.009   5.892  19.346  0.00  0.00    +0.000 A 
ATOM     10  N   UNL     1       3.856   5.136  18.623  0.00  0.00    +0.000 NA
ATOM     11  H   UNL     1       1.374   4.220  21.690  0.00  0.00    +0.000 HD
ATOM     12  H   UNL     1       2.578   3.599  20.602  0.00  0.00    +0.000 HD
ENDROOT
BRANCH   1  18
ATOM     13  C   UNL     1       6.614   5.528  16.686  0.00  0.00    +0.000 A 
ATOM     14  C   UNL     1       7.396   4.925  15.682  0.00  0.00    +0.000 A 
ATOM     15  C   UNL     1       6.806   4.261  14.606  0.00  0.00    +0.000 A 
ATOM     16  C   UNL     1       5.426   4.175  14.524  0.00  0.00    +0.000 A 
ATOM     17  C   UNL     1       4.635   4.733  15.530  0.00  0.00    +0.000 A 
ATOM     18  C   UNL     1       5.211   5.409  16.629  0.00  0.00    +0.000 A 
BRANCH  13  20
ATOM     19  C   UNL     1       7.580   7.542  17.490  0.00  0.00    +0.000 C 
ATOM     20  O   UNL     1       7.205   6.187  17.730  0.00  0.00    +0.000 OA
ENDBRANCH  13  20
ENDBRANCH   1  18
BRANCH   5  21
ATOM     21  C   UNL     1       0.623   8.837  20.951  0.00  0.00    +0.000 A 
ATOM     22  C   UNL     1       0.179   9.022  22.248  0.00  0.00    +0.000 A 
ATOM     23  C   UNL     1      -0.585  10.212  22.258  0.00  0.00    +0.000 A 
ATOM     24  C   UNL     1      -0.576  10.685  20.965  0.00  0.00    +0.000 A 
ATOM     25  C   UNL     1      -1.168  11.872  20.317  0.00  0.00    +0.000 C 
ATOM     26  O   UNL     1       0.148   9.854  20.164  0.00  0.00    +0.000 OA
ENDBRANCH   5  21
TORSDOF 3
ENDMDL
MODEL 7
REMARK VINA RESULT:      -7.2      1.691      8.037
REMARK  Name = 
REMARK  5 active torsions:
REMARK  status: ('A' for Active; 'I' for Inactive)
REMARK    1  A    between atoms: C_1  and  O_2
REMARK    2  A    between atoms: O_2  and  C_3
REMARK    3  A    between atoms: C_8  and  N_9
REMARK    4  A    between atoms: C_13  and  C_14
REMARK    5  A    between atoms: C_17  and  C_18
REMARK                            x       y       z     vdW  Elec       q    Type
REMARK                         _______ _______ _______ _____ _____    ______ ____
ROOT
ATOM      1  N   UNL     1       4.258   6.216  17.446  0.00  0.00    +0.000 N 
ATOM      2  C   UNL     1       3.703   7.470  17.334  0.00  0.00    +0.000 A 
ATOM      3  C   UNL     1       2.864   7.612  18.399  0.00  0.00    +0.000 A 
ATOM      4  N   UNL     1       2.085   8.674  18.672  0.00  0.00    +0.000 NA
ATOM      5  C   UNL     1       1.382   8.460  19.821  0.00  0.00    +0.000 A 
ATOM      6  N   UNL     1       1.394   7.363  20.652  0.00  0.00    +0.000 NA
ATOM      7  C   UNL     1       2.209   6.312  20.372  0.00  0.00    +0.000 A 
ATOM      8  N   UNL     1       2.240   5.229  21.237  0.00  0.00    +0.000 N 
ATOM      9  C   UNL     1       2.970   6.428  19.180  0.00  0.00    +0.000 A 
ATOM     10  N   UNL     1       3.833   5.580  18.590  0.00  0.00    +0.000 NA
ATOM     11  H   UNL     1       1.410   5.152  21.808  0.00  0.00    +0.000 HD
ATOM     12  H   UNL     1       2.622   4.383  20.829  0.00  0.00    +0.000 HD
ENDROOT
BRANCH   1  18
ATOM     13  C   UNL     1       6.483   5.948  16.306  0.00  0.00    +0.000 A 
ATOM     14  C   UNL     1       7.290   5.180  15.446  0.00  0.00    +0.000 A 
ATOM     15  C   UNL     1       6.788   4.052  14.797  0.00  0.00    +0.000 A 
ATOM     16  C   UNL     1       5.477   3.662  15.012  0.00  0.00    +0.000 A 
ATOM     17  C   UNL     1       4.672   4.388  15.892  0.00  0.00    +0.000 A 
ATOM     18  C   UNL     1       5.160   5.533  16.559  0.00  0.00    +0.000 A 
BRANCH  13  20
ATOM     19  C   UNL     1       7.754   6.831  18.106  0.00  0.00    +0.000 C 
ATOM     20  O   UNL     1       6.984   7.060  16.927  0.00  0.00    +0.000 OA
ENDBRANCH  13  20
ENDBRANCH   1  18
BRANCH   5  21
ATOM     21  C   UNL     1       0.507   9.540  20.272  0.00  0.00    +0.000 A 
ATOM     22  C   UNL     1      -0.121  10.582  19.614  0.00  0.00    +0.000 A 
ATOM     23  C   UNL     1      -0.880  11.283  20.580  0.00  0.00    +0.000 A 
ATOM     24  C   UNL     1      -0.667  10.638  21.778  0.00  0.00    +0.000 A 
ATOM     25  C   UNL     1      -1.167  10.858  23.149  0.00  0.00    +0.000 C 
ATOM     26  O   UNL     1       0.179   9.584  21.602  0.00  0.00    +0.000 OA
ENDBRANCH   5  21
TORSDOF 3
ENDMDL
MODEL 8
REMARK VINA RESULT:      -7.1      1.303      1.492
REMARK  Name = 
REMARK  5 active torsions:
REMARK  status: ('A' for Active; 'I' for Inactive)
REMARK    1  A    between atoms: C_1  and  O_2
REMARK    2  A    between atoms: O_2  and  C_3
REMARK    3  A    between atoms: C_8  and  N_9
REMARK    4  A    between atoms: C_13  and  C_14
REMARK    5  A    between atoms: C_17  and  C_18
REMARK                            x       y       z     vdW  Elec       q    Type
REMARK                         _______ _______ _______ _____ _____    ______ ____
ROOT
ATOM      1  N   UNL     1       1.345   8.339  20.177  0.00  0.00    +0.000 N 
ATOM      2  C   UNL     1       2.161   8.442  19.073  0.00  0.00    +0.000 A 
ATOM      3  C   UNL     1       2.803   7.245  18.960  0.00  0.00    +0.000 A 
ATOM      4  N   UNL     1       3.724   6.912  18.039  0.00  0.00    +0.000 NA
ATOM      5  C   UNL     1       4.146   5.631  18.237  0.00  0.00    +0.000 A 
ATOM      6  N   UNL     1       3.754   4.729  19.199  0.00  0.00    +0.000 NA
ATOM      7  C   UNL     1       2.802   5.077  20.104  0.00  0.00    +0.000 A 
ATOM      8  N   UNL     1       2.388   4.147  21.046  0.00  0.00    +0.000 N 
ATOM      9  C   UNL     1       2.312   6.404  19.997  0.00  0.00    +0.000 A 
ATOM     10  N   UNL     1       1.412   7.082  20.733  0.00  0.00    +0.000 NA
ATOM     11  H   UNL     1       3.067   3.415  21.206  0.00  0.00    +0.000 HD
ATOM     12  H   UNL     1       1.918   4.550  21.849  0.00  0.00    +0.000 HD
ENDROOT
BRANCH   1  18
ATOM     13  C   UNL     1      -0.172  10.341  20.065  0.00  0.00    +0.000 A 
ATOM     14  C   UNL     1      -1.008  11.236  20.758  0.00  0.00    +0.000 A 
ATOM     15  C   UNL     1      -1.143  11.174  22.145  0.00  0.00    +0.000 A 
ATOM     16  C   UNL     1      -0.458  10.206  22.860  0.00  0.00    +0.000 A 
ATOM     17  C   UNL     1       0.346   9.284  22.186  0.00  0.00    +0.000 A 
ATOM     18  C   UNL     1       0.496   9.328  20.782  0.00  0.00    +0.000 A 
BRANCH  13  20
ATOM     19  C   UNL     1      -1.236  10.261  17.944  0.00  0.00    +0.000 C 
ATOM     20  O   UNL     1      -0.040  10.420  18.704  0.00  0.00    +0.000 OA
ENDBRANCH  13  20
ENDBRANCH   1  18
BRANCH   5  21
ATOM     21  C   UNL     1       5.131   5.105  17.293  0.00  0.00    +0.000 A 
ATOM     22  C   UNL     1       6.455   4.730  17.424  0.00  0.00    +0.000 A 
ATOM     23  C   UNL     1       6.876   4.251  16.161  0.00  0.00    +0.000 A 
ATOM     24  C   UNL     1       5.789   4.370  15.324  0.00  0.00    +0.000 A 
ATOM     25  C   UNL     1       5.567   4.043  13.902  0.00  0.00    +0.000 C 
ATOM     26  O   UNL     1       4.728   4.894  16.000  0.00  0.00    +0.000 OA
ENDBRANCH   5  21
TORSDOF 3
ENDMDL
MODEL 9
REMARK VINA RESULT:      -7.1      2.254      8.200
REMARK  Name = 
REMARK  5 active torsions:
REMARK  status: ('A' for Active; 'I' for Inactive)
REMARK    1  A    between atoms: C_1  and  O_2
REMARK    2  A    between atoms: O_2  and  C_3
REMARK    3  A    between atoms: C_8  and  N_9
REMARK    4  A    between atoms: C_13  and  C_14
REMARK    5  A    between atoms: C_17  and  C_18
REMARK                            x       y       z     vdW  Elec       q    Type
REMARK                         _______ _______ _______ _____ _____    ______ ____
ROOT
ATOM      1  N   UNL     1       3.254   6.783  18.016  0.00  0.00    +0.000 N 
ATOM      2  C   UNL     1       2.564   6.628  19.197  0.00  0.00    +0.000 A 
ATOM      3  C   UNL     1       2.013   7.843  19.479  0.00  0.00    +0.000 A 
ATOM      4  N   UNL     1       1.281   8.160  20.561  0.00  0.00    +0.000 NA
ATOM      5  C   UNL     1       0.898   9.468  20.504  0.00  0.00    +0.000 A 
ATOM      6  N   UNL     1       1.164  10.406  19.533  0.00  0.00    +0.000 NA
ATOM      7  C   UNL     1       1.884  10.056  18.435  0.00  0.00    +0.000 A 
ATOM      8  N   UNL     1       2.113  11.001  17.445  0.00  0.00    +0.000 N 
ATOM      9  C   UNL     1       2.349   8.717  18.409  0.00  0.00    +0.000 A 
ATOM     10  N   UNL     1       3.105   8.055  17.513  0.00  0.00    +0.000 NA
ATOM     11  H   UNL     1       2.032  11.952  17.777  0.00  0.00    +0.000 HD
ATOM     12  H   UNL     1       2.882  10.773  16.825  0.00  0.00    +0.000 HD
ENDROOT
BRANCH   1  18
ATOM     13  C   UNL     1       4.050   4.448  17.535  0.00  0.00    +0.000 A 
ATOM     14  C   UNL     1       4.864   3.610  16.748  0.00  0.00    +0.000 A 
ATOM     15  C   UNL     1       5.726   4.135  15.785  0.00  0.00    +0.000 A 
ATOM     16  C   UNL     1       5.775   5.504  15.579  0.00  0.00    +0.000 A 
ATOM     17  C   UNL     1       4.947   6.347  16.322  0.00  0.00    +0.000 A 
ATOM     18  C   UNL     1       4.067   5.837  17.302  0.00  0.00    +0.000 A 
BRANCH  13  20
ATOM     19  C   UNL     1       3.743   2.839  19.253  0.00  0.00    +0.000 C 
ATOM     20  O   UNL     1       3.218   3.920  18.485  0.00  0.00    +0.000 OA
ENDBRANCH  13  20
ENDBRANCH   1  18
BRANCH   5  21
ATOM     21  C   UNL     1       0.065   9.962  21.598  0.00  0.00    +0.000 A 
ATOM     22  C   UNL     1      -0.435   9.371  22.744  0.00  0.00    +0.000 A 
ATOM     23  C   UNL     1      -1.144  10.371  23.450  0.00  0.00    +0.000 A 
ATOM     24  C   UNL     1      -1.048  11.517  22.692  0.00  0.00    +0.000 A 
ATOM     25  C   UNL     1      -1.552  12.893  22.870  0.00  0.00    +0.000 C 
ATOM     26  O   UNL     1      -0.322  11.276  21.564  0.00  0.00    +0.000 OA
ENDBRANCH   5  21
TORSDOF 3
ENDMDL
