MODEL 1
REMARK VINA RESULT:      -6.5      0.000      0.000
REMARK  Name = 
REMARK  4 active torsions:
REMARK  status: ('A' for Active; 'I' for Inactive)
REMARK    1  A    between atoms: C_1  and  C_2
REMARK    2  A    between atoms: C_16  and  C_17
REMARK    3  A    between atoms: C_17  and  O_18
REMARK    4  A    between atoms: C_23  and  C_24
REMARK                            x       y       z     vdW  Elec       q    Type
REMARK                         _______ _______ _______ _____ _____    ______ ____
ROOT
ATOM      1  C   UNL     1      -0.973  15.053  21.688  0.00  0.00    +0.000 C 
ATOM      2  C   UNL     1      -0.105  13.954  22.293  0.00  0.00    +0.000 C 
ATOM      3  C   UNL     1      -0.741  12.552  22.225  0.00  0.00    +0.000 C 
ATOM      4  N   UNL     1      -0.530  11.932  20.920  0.00  0.00    +0.000 N 
ATOM      5  C   UNL     1      -1.542  11.892  19.994  0.00  0.00    +0.000 A 
ATOM      6  N   UNL     1      -2.765  12.309  20.371  0.00  0.00    +0.000 NA
ATOM      7  C   UNL     1      -3.830  12.247  19.538  0.00  0.00    +0.000 A 
ATOM      8  N   UNL     1      -5.097  12.579  20.001  0.00  0.00    +0.000 N 
ATOM      9  C   UNL     1      -5.259  12.613  21.463  0.00  0.00    +0.000 C 
ATOM     10  C   UNL     1      -6.767  12.583  21.769  0.00  0.00    +0.000 C 
ATOM     11  O   UNL     1      -7.458  13.681  21.141  0.00  0.00    +0.000 OA
ATOM     12  C   UNL     1      -7.254  13.662  19.715  0.00  0.00    +0.000 C 
ATOM     13  C   UNL     1      -5.756  13.731  19.363  0.00  0.00    +0.000 C 
ATOM     14  C   UNL     1      -3.610  11.687  18.273  0.00  0.00    +0.000 A 
ATOM     15  S   UNL     1      -4.711  11.358  16.985  0.00  0.00    +0.000 S 
ATOM     16  C   UNL     1      -3.498  10.666  16.005  0.00  0.00    +0.000 A 
ATOM     17  C   UNL     1      -2.282  10.647  16.657  0.00  0.00    +0.000 A 
ATOM     18  C   UNL     1      -2.336  11.250  17.950  0.00  0.00    +0.000 A 
ATOM     19  N   UNL     1      -1.288  11.372  18.791  0.00  0.00    +0.000 NA
ATOM     20  C   UNL     1       0.864  11.904  20.487  0.00  0.00    +0.000 C 
ATOM     21  C   UNL     1       1.506  13.305  20.566  0.00  0.00    +0.000 C 
ATOM     22  C   UNL     1       1.213  14.180  19.352  0.00  0.00    +0.000 C 
ATOM     23  O   UNL     1       1.246  13.995  21.801  0.00  0.00    +0.000 OA
ENDROOT
BRANCH  16  24
ATOM     24  C   UNL     1      -3.834  10.157  14.643  0.00  0.00    +0.000 C 
BRANCH  24  25
ATOM     25  O   UNL     1      -2.612  10.011  13.932  0.00  0.00    +0.000 OA
ATOM     26  H   UNL     1      -1.894  10.102  14.582  0.00  0.00    +0.000 HD
ENDBRANCH  24  25
ENDBRANCH  16  24
TORSDOF 2
ENDMDL
MODEL 2
REMARK VINA RESULT:      -6.4      9.309     11.702
REMARK  Name = 
REMARK  4 active torsions:
REMARK  status: ('A' for Active; 'I' for Inactive)
REMARK    1  A    between atoms: C_1  and  C_2
REMARK    2  A    between atoms: C_16  and  C_17
REMARK    3  A    between atoms: C_17  and  O_18
REMARK    4  A    between atoms: C_23  and  C_24
REMARK                            x       y       z     vdW  Elec       q    Type
REMARK                         _______ _______ _______ _____ _____    ______ ____
ROOT
ATOM      1  C   UNL     1       8.393  13.193  17.525  0.00  0.00    +0.000 C 
ATOM      2  C   UNL     1       9.890  13.256  17.809  0.00  0.00    +0.000 C 
ATOM      3  C   UNL     1      10.240  13.937  19.146  0.00  0.00    +0.000 C 
ATOM      4  N   UNL     1      10.116  13.012  20.267  0.00  0.00    +0.000 N 
ATOM      5  C   UNL     1       9.024  13.062  21.098  0.00  0.00    +0.000 A 
ATOM      6  N   UNL     1       8.150  14.073  20.937  0.00  0.00    +0.000 NA
ATOM      7  C   UNL     1       7.080  14.231  21.751  0.00  0.00    +0.000 A 
ATOM      8  N   UNL     1       6.266  15.349  21.624  0.00  0.00    +0.000 N 
ATOM      9  C   UNL     1       6.835  16.475  20.867  0.00  0.00    +0.000 C 
ATOM     10  C   UNL     1       5.993  17.724  21.183  0.00  0.00    +0.000 C 
ATOM     11  O   UNL     1       4.604  17.525  20.858  0.00  0.00    +0.000 OA
ATOM     12  C   UNL     1       4.072  16.392  21.571  0.00  0.00    +0.000 C 
ATOM     13  C   UNL     1       4.862  15.109  21.252  0.00  0.00    +0.000 C 
ATOM     14  C   UNL     1       6.947  13.313  22.801  0.00  0.00    +0.000 A 
ATOM     15  S   UNL     1       5.790  13.233  24.080  0.00  0.00    +0.000 S 
ATOM     16  C   UNL     1       6.529  11.865  24.783  0.00  0.00    +0.000 A 
ATOM     17  C   UNL     1       7.659  11.495  24.083  0.00  0.00    +0.000 A 
ATOM     18  C   UNL     1       7.892  12.309  22.934  0.00  0.00    +0.000 A 
ATOM     19  N   UNL     1       8.920  12.157  22.073  0.00  0.00    +0.000 NA
ATOM     20  C   UNL     1      10.854  11.763  20.099  0.00  0.00    +0.000 C 
ATOM     21  C   UNL     1      10.513  11.085  18.757  0.00  0.00    +0.000 C 
ATOM     22  C   UNL     1       9.237  10.251  18.800  0.00  0.00    +0.000 C 
ATOM     23  O   UNL     1      10.531  11.980  17.631  0.00  0.00    +0.000 OA
ENDROOT
BRANCH  16  24
ATOM     24  C   UNL     1       5.950  11.249  26.013  0.00  0.00    +0.000 C 
BRANCH  24  25
ATOM     25  O   UNL     1       4.879  10.410  25.602  0.00  0.00    +0.000 OA
ATOM     26  H   UNL     1       5.267   9.700  25.062  0.00  0.00    +0.000 HD
ENDBRANCH  24  25
ENDBRANCH  16  24
TORSDOF 2
ENDMDL
MODEL 3
REMARK VINA RESULT:      -6.2      1.436      5.554
REMARK  Name = 
REMARK  4 active torsions:
REMARK  status: ('A' for Active; 'I' for Inactive)
REMARK    1  A    between atoms: C_1  and  C_2
REMARK    2  A    between atoms: C_16  and  C_17
REMARK    3  A    between atoms: C_17  and  O_18
REMARK    4  A    between atoms: C_23  and  C_24
REMARK                            x       y       z     vdW  Elec       q    Type
REMARK                         _______ _______ _______ _____ _____    ______ ____
ROOT
ATOM      1  C   UNL     1      -5.280  12.632  23.509  0.00  0.00    +0.000 C 
ATOM      2  C   UNL     1      -6.103  13.834  23.055  0.00  0.00    +0.000 C 
ATOM      3  C   UNL     1      -5.497  14.581  21.851  0.00  0.00    +0.000 C 
ATOM      4  N   UNL     1      -5.840  13.931  20.590  0.00  0.00    +0.000 N 
ATOM      5  C   UNL     1      -4.921  13.151  19.933  0.00  0.00    +0.000 A 
ATOM      6  N   UNL     1      -3.662  13.118  20.407  0.00  0.00    +0.000 NA
ATOM      7  C   UNL     1      -2.682  12.422  19.785  0.00  0.00    +0.000 A 
ATOM      8  N   UNL     1      -1.372  12.504  20.240  0.00  0.00    +0.000 N 
ATOM      9  C   UNL     1      -1.071  13.636  21.132  0.00  0.00    +0.000 C 
ATOM     10  C   UNL     1       0.458  13.795  21.187  0.00  0.00    +0.000 C 
ATOM     11  O   UNL     1       1.103  12.588  21.639  0.00  0.00    +0.000 OA
ATOM     12  C   UNL     1       0.764  11.479  20.784  0.00  0.00    +0.000 C 
ATOM     13  C   UNL     1      -0.760  11.258  20.732  0.00  0.00    +0.000 C 
ATOM     14  C   UNL     1      -3.030  11.768  18.597  0.00  0.00    +0.000 A 
ATOM     15  S   UNL     1      -2.061  10.868  17.486  0.00  0.00    +0.000 S 
ATOM     16  C   UNL     1      -3.372  10.587  16.431  0.00  0.00    +0.000 A 
ATOM     17  C   UNL     1      -4.520  11.199  16.891  0.00  0.00    +0.000 A 
ATOM     18  C   UNL     1      -4.335  11.859  18.142  0.00  0.00    +0.000 A 
ATOM     19  N   UNL     1      -5.297  12.525  18.816  0.00  0.00    +0.000 NA
ATOM     20  C   UNL     1      -7.269  13.698  20.405  0.00  0.00    +0.000 C 
ATOM     21  C   UNL     1      -7.880  12.959  21.613  0.00  0.00    +0.000 C 
ATOM     22  C   UNL     1      -7.691  11.447  21.564  0.00  0.00    +0.000 C 
ATOM     23  O   UNL     1      -7.494  13.508  22.886  0.00  0.00    +0.000 OA
ENDROOT
BRANCH  16  24
ATOM     24  C   UNL     1      -3.174   9.789  15.186  0.00  0.00    +0.000 C 
BRANCH  24  25
ATOM     25  O   UNL     1      -4.328   9.975  14.376  0.00  0.00    +0.000 OA
ATOM     26  H   UNL     1      -4.016  10.288  13.509  0.00  0.00    +0.000 HD
ENDBRANCH  24  25
ENDBRANCH  16  24
TORSDOF 2
ENDMDL
MODEL 4
REMARK VINA RESULT:      -6.0     10.283     12.023
REMARK  Name = 
REMARK  4 active torsions:
REMARK  status: ('A' for Active; 'I' for Inactive)
REMARK    1  A    between atoms: C_1  and  C_2
REMARK    2  A    between atoms: C_16  and  C_17
REMARK    3  A    between atoms: C_17  and  O_18
REMARK    4  A    between atoms: C_23  and  C_24
REMARK                            x       y       z     vdW  Elec       q    Type
REMARK                         _______ _______ _______ _____ _____    ______ ____
ROOT
ATOM      1  C   UNL     1       6.581  15.408  24.806  0.00  0.00    +0.000 C 
ATOM      2  C   UNL     1       5.689  14.179  24.949  0.00  0.00    +0.000 C 
ATOM      3  C   UNL     1       5.440  13.435  23.623  0.00  0.00    +0.000 C 
ATOM      4  N   UNL     1       6.543  12.536  23.300  0.00  0.00    +0.000 N 
ATOM      5  C   UNL     1       7.475  12.885  22.353  0.00  0.00    +0.000 A 
ATOM      6  N   UNL     1       7.264  14.005  21.638  0.00  0.00    +0.000 NA
ATOM      7  C   UNL     1       8.102  14.389  20.646  0.00  0.00    +0.000 A 
ATOM      8  N   UNL     1       7.790  15.488  19.856  0.00  0.00    +0.000 N 
ATOM      9  C   UNL     1       6.389  15.934  19.901  0.00  0.00    +0.000 C 
ATOM     10  C   UNL     1       6.151  16.855  18.691  0.00  0.00    +0.000 C 
ATOM     11  O   UNL     1       7.057  17.975  18.689  0.00  0.00    +0.000 OA
ATOM     12  C   UNL     1       8.425  17.523  18.690  0.00  0.00    +0.000 C 
ATOM     13  C   UNL     1       8.718  16.630  19.910  0.00  0.00    +0.000 C 
ATOM     14  C   UNL     1       9.181  13.540  20.369  0.00  0.00    +0.000 A 
ATOM     15  S   UNL     1      10.396  13.633  19.146  0.00  0.00    +0.000 S 
ATOM     16  C   UNL     1      11.124  12.168  19.631  0.00  0.00    +0.000 A 
ATOM     17  C   UNL     1      10.435  11.594  20.680  0.00  0.00    +0.000 A 
ATOM     18  C   UNL     1       9.333  12.386  21.121  0.00  0.00    +0.000 A 
ATOM     19  N   UNL     1       8.502  12.061  22.134  0.00  0.00    +0.000 NA
ATOM     20  C   UNL     1       6.896  11.609  24.370  0.00  0.00    +0.000 C 
ATOM     21  C   UNL     1       7.134  12.351  25.702  0.00  0.00    +0.000 C 
ATOM     22  C   UNL     1       8.536  12.935  25.833  0.00  0.00    +0.000 C 
ATOM     23  O   UNL     1       6.117  13.318  26.019  0.00  0.00    +0.000 OA
ENDROOT
BRANCH  16  24
ATOM     24  C   UNL     1      12.333  11.660  18.920  0.00  0.00    +0.000 C 
BRANCH  24  25
ATOM     25  O   UNL     1      12.048  11.688  17.527  0.00  0.00    +0.000 OA
ATOM     26  H   UNL     1      12.736  12.235  17.110  0.00  0.00    +0.000 HD
ENDBRANCH  24  25
ENDBRANCH  16  24
TORSDOF 2
ENDMDL
MODEL 5
REMARK VINA RESULT:      -5.9     10.218     12.412
REMARK  Name = 
REMARK  4 active torsions:
REMARK  status: ('A' for Active; 'I' for Inactive)
REMARK    1  A    between atoms: C_1  and  C_2
REMARK    2  A    between atoms: C_16  and  C_17
REMARK    3  A    between atoms: C_17  and  O_18
REMARK    4  A    between atoms: C_23  and  C_24
REMARK                            x       y       z     vdW  Elec       q    Type
REMARK                         _______ _______ _______ _____ _____    ______ ____
ROOT
ATOM      1  C   UNL     1      10.127  14.028  17.243  0.00  0.00    +0.000 C 
ATOM      2  C   UNL     1      11.511  13.959  17.880  0.00  0.00    +0.000 C 
ATOM      3  C   UNL     1      11.556  14.491  19.325  0.00  0.00    +0.000 C 
ATOM      4  N   UNL     1      11.119  13.480  20.282  0.00  0.00    +0.000 N 
ATOM      5  C   UNL     1       9.862  13.534  20.830  0.00  0.00    +0.000 A 
ATOM      6  N   UNL     1       9.102  14.614  20.572  0.00  0.00    +0.000 NA
ATOM      7  C   UNL     1       7.875  14.774  21.120  0.00  0.00    +0.000 A 
ATOM      8  N   UNL     1       7.169  15.954  20.920  0.00  0.00    +0.000 N 
ATOM      9  C   UNL     1       7.958  17.100  20.442  0.00  0.00    +0.000 C 
ATOM     10  C   UNL     1       7.125  18.373  20.676  0.00  0.00    +0.000 C 
ATOM     11  O   UNL     1       5.849  18.303  20.012  0.00  0.00    +0.000 OA
ATOM     12  C   UNL     1       5.106  17.151  20.456  0.00  0.00    +0.000 C 
ATOM     13  C   UNL     1       5.889  15.849  20.202  0.00  0.00    +0.000 C 
ATOM     14  C   UNL     1       7.446  13.778  22.007  0.00  0.00    +0.000 A 
ATOM     15  S   UNL     1       6.011  13.666  22.959  0.00  0.00    +0.000 S 
ATOM     16  C   UNL     1       6.490  12.191  23.672  0.00  0.00    +0.000 A 
ATOM     17  C   UNL     1       7.738  11.807  23.226  0.00  0.00    +0.000 A 
ATOM     18  C   UNL     1       8.282  12.702  22.256  0.00  0.00    +0.000 A 
ATOM     19  N   UNL     1       9.480  12.554  21.653  0.00  0.00    +0.000 NA
ATOM     20  C   UNL     1      11.816  12.203  20.166  0.00  0.00    +0.000 C 
ATOM     21  C   UNL     1      11.781  11.673  18.718  0.00  0.00    +0.000 C 
ATOM     22  C   UNL     1      10.495  10.931  18.370  0.00  0.00    +0.000 C 
ATOM     23  O   UNL     1      12.115  12.662  17.728  0.00  0.00    +0.000 OA
ENDROOT
BRANCH  16  24
ATOM     24  C   UNL     1       5.601  11.511  24.657  0.00  0.00    +0.000 C 
BRANCH  24  25
ATOM     25  O   UNL     1       6.422  10.677  25.464  0.00  0.00    +0.000 OA
ATOM     26  H   UNL     1       7.136  10.345  24.891  0.00  0.00    +0.000 HD
ENDBRANCH  24  25
ENDBRANCH  16  24
TORSDOF 2
ENDMDL
MODEL 6
REMARK VINA RESULT:      -5.9      7.998     10.315
REMARK  Name = 
REMARK  4 active torsions:
REMARK  status: ('A' for Active; 'I' for Inactive)
REMARK    1  A    between atoms: C_1  and  C_2
REMARK    2  A    between atoms: C_16  and  C_17
REMARK    3  A    between atoms: C_17  and  O_18
REMARK    4  A    between atoms: C_23  and  C_24
REMARK                            x       y       z     vdW  Elec       q    Type
REMARK                         _______ _______ _______ _____ _____    ______ ____
ROOT
ATOM      1  C   UNL     1       7.002   4.342  18.073  0.00  0.00    +0.000 C 
ATOM      2  C   UNL     1       6.825   4.554  16.573  0.00  0.00    +0.000 C 
ATOM      3  C   UNL     1       5.354   4.654  16.129  0.00  0.00    +0.000 C 
ATOM      4  N   UNL     1       4.823   5.998  16.332  0.00  0.00    +0.000 N 
ATOM      5  C   UNL     1       4.002   6.273  17.397  0.00  0.00    +0.000 A 
ATOM      6  N   UNL     1       3.589   5.245  18.161  0.00  0.00    +0.000 NA
ATOM      7  C   UNL     1       2.731   5.421  19.193  0.00  0.00    +0.000 A 
ATOM      8  N   UNL     1       2.239   4.322  19.886  0.00  0.00    +0.000 N 
ATOM      9  C   UNL     1       2.384   3.021  19.213  0.00  0.00    +0.000 C 
ATOM     10  C   UNL     1       1.441   2.025  19.911  0.00  0.00    +0.000 C 
ATOM     11  O   UNL     1       1.726   1.920  21.319  0.00  0.00    +0.000 OA
ATOM     12  C   UNL     1       1.625   3.208  21.957  0.00  0.00    +0.000 C 
ATOM     13  C   UNL     1       2.584   4.227  21.314  0.00  0.00    +0.000 C 
ATOM     14  C   UNL     1       2.259   6.722  19.406  0.00  0.00    +0.000 A 
ATOM     15  S   UNL     1       1.107   7.326  20.542  0.00  0.00    +0.000 S 
ATOM     16  C   UNL     1       1.215   8.919  19.942  0.00  0.00    +0.000 A 
ATOM     17  C   UNL     1       2.081   8.989  18.870  0.00  0.00    +0.000 A 
ATOM     18  C   UNL     1       2.698   7.736  18.571  0.00  0.00    +0.000 A 
ATOM     19  N   UNL     1       3.591   7.530  17.581  0.00  0.00    +0.000 NA
ATOM     20  C   UNL     1       5.630   7.058  15.735  0.00  0.00    +0.000 C 
ATOM     21  C   UNL     1       7.107   6.954  16.169  0.00  0.00    +0.000 C 
ATOM     22  C   UNL     1       7.391   7.590  17.525  0.00  0.00    +0.000 C 
ATOM     23  O   UNL     1       7.648   5.624  16.075  0.00  0.00    +0.000 OA
ENDROOT
BRANCH  16  24
ATOM     24  C   UNL     1       0.409  10.010  20.561  0.00  0.00    +0.000 C 
BRANCH  24  25
ATOM     25  O   UNL     1       1.132  10.483  21.690  0.00  0.00    +0.000 OA
ATOM     26  H   UNL     1       1.066  11.454  21.681  0.00  0.00    +0.000 HD
ENDBRANCH  24  25
ENDBRANCH  16  24
TORSDOF 2
ENDMDL
MODEL 7
REMARK VINA RESULT:      -5.6      3.161      5.928
REMARK  Name = 
REMARK  4 active torsions:
REMARK  status: ('A' for Active; 'I' for Inactive)
REMARK    1  A    between atoms: C_1  and  C_2
REMARK    2  A    between atoms: C_16  and  C_17
REMARK    3  A    between atoms: C_17  and  O_18
REMARK    4  A    between atoms: C_23  and  C_24
REMARK                            x       y       z     vdW  Elec       q    Type
REMARK                         _______ _______ _______ _____ _____    ______ ____
ROOT
ATOM      1  C   UNL     1      -2.503  15.570  23.316  0.00  0.00    +0.000 C 
ATOM      2  C   UNL     1      -3.886  15.415  22.692  0.00  0.00    +0.000 C 
ATOM      3  C   UNL     1      -3.858  15.184  21.169  0.00  0.00    +0.000 C 
ATOM      4  N   UNL     1      -3.608  13.784  20.845  0.00  0.00    +0.000 N 
ATOM      5  C   UNL     1      -2.366  13.373  20.429  0.00  0.00    +0.000 A 
ATOM      6  N   UNL     1      -1.432  14.313  20.194  0.00  0.00    +0.000 NA
ATOM      7  C   UNL     1      -0.202  13.998  19.725  0.00  0.00    +0.000 A 
ATOM      8  N   UNL     1       0.694  15.005  19.387  0.00  0.00    +0.000 N 
ATOM      9  C   UNL     1       0.115  16.345  19.203  0.00  0.00    +0.000 C 
ATOM     10  C   UNL     1       1.148  17.202  18.450  0.00  0.00    +0.000 C 
ATOM     11  O   UNL     1       2.402  17.267  19.156  0.00  0.00    +0.000 OA
ATOM     12  C   UNL     1       2.935  15.945  19.370  0.00  0.00    +0.000 C 
ATOM     13  C   UNL     1       1.947  15.064  20.158  0.00  0.00    +0.000 C 
ATOM     14  C   UNL     1       0.043  12.646  19.454  0.00  0.00    +0.000 A 
ATOM     15  S   UNL     1       1.428  11.871  18.777  0.00  0.00    +0.000 S 
ATOM     16  C   UNL     1       0.699  10.329  18.821  0.00  0.00    +0.000 A 
ATOM     17  C   UNL     1      -0.591  10.403  19.306  0.00  0.00    +0.000 A 
ATOM     18  C   UNL     1      -0.966  11.726  19.690  0.00  0.00    +0.000 A 
ATOM     19  N   UNL     1      -2.165  12.073  20.203  0.00  0.00    +0.000 NA
ATOM     20  C   UNL     1      -4.509  12.844  21.506  0.00  0.00    +0.000 C 
ATOM     21  C   UNL     1      -4.547  13.081  23.030  0.00  0.00    +0.000 C 
ATOM     22  C   UNL     1      -3.401  12.412  23.781  0.00  0.00    +0.000 C 
ATOM     23  O   UNL     1      -4.698  14.462  23.402  0.00  0.00    +0.000 OA
ENDROOT
BRANCH  16  24
ATOM     24  C   UNL     1       1.449   9.130  18.346  0.00  0.00    +0.000 C 
BRANCH  24  25
ATOM     25  O   UNL     1       2.202   9.526  17.208  0.00  0.00    +0.000 OA
ATOM     26  H   UNL     1       1.563   9.809  16.531  0.00  0.00    +0.000 HD
ENDBRANCH  24  25
ENDBRANCH  16  24
TORSDOF 2
ENDMDL
MODEL 8
REMARK VINA RESULT:      -5.6      2.559      5.795
REMARK  Name = 
REMARK  4 active torsions:
REMARK  status: ('A' for Active; 'I' for Inactive)
REMARK    1  A    between atoms: C_1  and  C_2
REMARK    2  A    between atoms: C_16  and  C_17
REMARK    3  A    between atoms: C_17  and  O_18
REMARK    4  A    between atoms: C_23  and  C_24
REMARK                            x       y       z     vdW  Elec       q    Type
REMARK                         _______ _______ _______ _____ _____    ______ ____
ROOT
ATOM      1  C   UNL     1      -6.594  12.265  21.520  0.00  0.00    +0.000 C 
ATOM      2  C   UNL     1      -7.205  12.635  20.172  0.00  0.00    +0.000 C 
ATOM      3  C   UNL     1      -6.217  13.320  19.210  0.00  0.00    +0.000 C 
ATOM      4  N   UNL     1      -5.388  12.344  18.510  0.00  0.00    +0.000 N 
ATOM      5  C   UNL     1      -4.089  12.126  18.895  0.00  0.00    +0.000 A 
ATOM      6  N   UNL     1      -3.562  12.932  19.836  0.00  0.00    +0.000 NA
ATOM      7  C   UNL     1      -2.271  12.823  20.230  0.00  0.00    +0.000 A 
ATOM      8  N   UNL     1      -1.733  13.745  21.119  0.00  0.00    +0.000 N 
ATOM      9  C   UNL     1      -2.489  14.997  21.281  0.00  0.00    +0.000 C 
ATOM     10  C   UNL     1      -1.558  16.023  21.951  0.00  0.00    +0.000 C 
ATOM     11  O   UNL     1      -1.062  15.545  23.216  0.00  0.00    +0.000 OA
ATOM     12  C   UNL     1      -0.364  14.295  23.049  0.00  0.00    +0.000 C 
ATOM     13  C   UNL     1      -1.274  13.226  22.418  0.00  0.00    +0.000 C 
ATOM     14  C   UNL     1      -1.493  11.856  19.581  0.00  0.00    +0.000 A 
ATOM     15  S   UNL     1       0.184  11.477  19.735  0.00  0.00    +0.000 S 
ATOM     16  C   UNL     1       0.115  10.272  18.529  0.00  0.00    +0.000 A 
ATOM     17  C   UNL     1      -1.151  10.182  17.988  0.00  0.00    +0.000 A 
ATOM     18  C   UNL     1      -2.082  11.073  18.601  0.00  0.00    +0.000 A 
ATOM     19  N   UNL     1      -3.386  11.180  18.269  0.00  0.00    +0.000 NA
ATOM     20  C   UNL     1      -6.141  11.291  17.835  0.00  0.00    +0.000 C 
ATOM     21  C   UNL     1      -7.139  10.611  18.795  0.00  0.00    +0.000 C 
ATOM     22  C   UNL     1      -6.511   9.522  19.658  0.00  0.00    +0.000 C 
ATOM     23  O   UNL     1      -7.916  11.535  19.577  0.00  0.00    +0.000 OA
ENDROOT
BRANCH  16  24
ATOM     24  C   UNL     1       1.339   9.496  18.173  0.00  0.00    +0.000 C 
BRANCH  24  25
ATOM     25  O   UNL     1       2.156  10.339  17.371  0.00  0.00    +0.000 OA
ATOM     26  H   UNL     1       1.771  11.231  17.417  0.00  0.00    +0.000 HD
ENDBRANCH  24  25
ENDBRANCH  16  24
TORSDOF 2
ENDMDL
MODEL 9
REMARK VINA RESULT:      -5.5      7.630     11.195
REMARK  Name = 
REMARK  4 active torsions:
REMARK  status: ('A' for Active; 'I' for Inactive)
REMARK    1  A    between atoms: C_1  and  C_2
REMARK    2  A    between atoms: C_16  and  C_17
REMARK    3  A    between atoms: C_17  and  O_18
REMARK    4  A    between atoms: C_23  and  C_24
REMARK                            x       y       z     vdW  Elec       q    Type
REMARK                         _______ _______ _______ _____ _____    ______ ____
ROOT
ATOM      1  C   UNL     1       8.245  12.315  17.485  0.00  0.00    +0.000 C 
ATOM      2  C   UNL     1       9.568  13.073  17.554  0.00  0.00    +0.000 C 
ATOM      3  C   UNL     1       9.473  14.421  18.293  0.00  0.00    +0.000 C 
ATOM      4  N   UNL     1       9.554  14.245  19.739  0.00  0.00    +0.000 N 
ATOM      5  C   UNL     1       8.423  14.306  20.516  0.00  0.00    +0.000 A 
ATOM      6  N   UNL     1       7.269  14.671  19.928  0.00  0.00    +0.000 NA
ATOM      7  C   UNL     1       6.122  14.813  20.633  0.00  0.00    +0.000 A 
ATOM      8  N   UNL     1       4.978  15.301  20.012  0.00  0.00    +0.000 N 
ATOM      9  C   UNL     1       5.188  15.987  18.727  0.00  0.00    +0.000 C 
ATOM     10  C   UNL     1       3.916  16.794  18.414  0.00  0.00    +0.000 C 
ATOM     11  O   UNL     1       2.748  15.952  18.373  0.00  0.00    +0.000 OA
ATOM     12  C   UNL     1       2.580  15.252  19.621  0.00  0.00    +0.000 C 
ATOM     13  C   UNL     1       3.817  14.397  19.953  0.00  0.00    +0.000 C 
ATOM     14  C   UNL     1       6.200  14.603  22.015  0.00  0.00    +0.000 A 
ATOM     15  S   UNL     1       5.001  14.771  23.245  0.00  0.00    +0.000 S 
ATOM     16  C   UNL     1       6.093  14.363  24.491  0.00  0.00    +0.000 A 
ATOM     17  C   UNL     1       7.358  14.140  23.990  0.00  0.00    +0.000 A 
ATOM     18  C   UNL     1       7.422  14.256  22.568  0.00  0.00    +0.000 A 
ATOM     19  N   UNL     1       8.534  14.077  21.826  0.00  0.00    +0.000 NA
ATOM     20  C   UNL     1      10.711  13.476  20.186  0.00  0.00    +0.000 C 
ATOM     21  C   UNL     1      10.815  12.130  19.440  0.00  0.00    +0.000 C 
ATOM     22  C   UNL     1       9.937  11.034  20.033  0.00  0.00    +0.000 C 
ATOM     23  O   UNL     1      10.647  12.241  18.015  0.00  0.00    +0.000 OA
ENDROOT
BRANCH  16  24
ATOM     24  C   UNL     1       5.628  14.311  25.908  0.00  0.00    +0.000 C 
BRANCH  24  25
ATOM     25  O   UNL     1       4.891  13.106  26.068  0.00  0.00    +0.000 OA
ATOM     26  H   UNL     1       4.766  12.976  27.024  0.00  0.00    +0.000 HD
ENDBRANCH  24  25
ENDBRANCH  16  24
TORSDOF 2
ENDMDL
