MODEL 1
REMARK VINA RESULT:      -7.7      0.000      0.000
REMARK  Name = 
REMARK  5 active torsions:
REMARK  status: ('A' for Active; 'I' for Inactive)
REMARK    1  A    between atoms: C_1  and  N_2
REMARK    2  A    between atoms: N_2  and  C_3
REMARK    3  A    between atoms: N_2  and  C_4
REMARK    4  A    between atoms: C_7  and  N_8
REMARK    5  A    between atoms: C_14  and  N_15
REMARK                            x       y       z     vdW  Elec       q    Type
REMARK                         _______ _______ _______ _____ _____    ______ ____
ROOT
ATOM      1  N   UNL     1       2.441   6.885  19.874  0.00  0.00    +0.000 N 
ATOM      2  C   UNL     1       3.097   6.325  18.843  0.00  0.00    +0.000 A 
ATOM      3  N   UNL     1       3.244   5.024  18.729  0.00  0.00    +0.000 NA
ATOM      4  C   UNL     1       4.049   4.822  17.649  0.00  0.00    +0.000 A 
ATOM      5  C   UNL     1       4.521   3.613  17.118  0.00  0.00    +0.000 A 
ATOM      6  C   UNL     1       5.404   3.653  16.033  0.00  0.00    +0.000 A 
ATOM      7  C   UNL     1       5.798   4.886  15.491  0.00  0.00    +0.000 A 
ATOM      8  C   UNL     1       5.306   6.113  15.989  0.00  0.00    +0.000 A 
ATOM      9  C   UNL     1       4.425   6.031  17.078  0.00  0.00    +0.000 A 
ATOM     10  N   UNL     1       3.762   6.976  17.836  0.00  0.00    +0.000 N 
ATOM     11  H   UNL     1       2.122   6.161  20.519  0.00  0.00    +0.000 HD
ATOM     12  H   UNL     1       3.824   7.971  17.715  0.00  0.00    +0.000 HD
ENDROOT
BRANCH   1  16
ATOM     13  C   UNL     1       0.121  10.405  20.667  0.00  0.00    +0.000 A 
ATOM     14  C   UNL     1       0.447   9.458  21.641  0.00  0.00    +0.000 A 
ATOM     15  C   UNL     1       1.216   8.323  21.342  0.00  0.00    +0.000 A 
ATOM     16  C   UNL     1       1.707   8.071  20.053  0.00  0.00    +0.000 A 
ATOM     17  C   UNL     1       1.440   9.029  19.085  0.00  0.00    +0.000 A 
ATOM     18  C   UNL     1       0.667  10.171  19.392  0.00  0.00    +0.000 A 
BRANCH  13  20
ATOM     19  C   UNL     1      -1.008  11.853  22.328  0.00  0.00    +0.000 C 
ATOM     20  N   UNL     1      -0.670  11.521  20.946  0.00  0.00    +0.000 N 
ATOM     21  C   UNL     1      -1.573  12.018  19.913  0.00  0.00    +0.000 C 
ENDBRANCH  13  20
ENDBRANCH   1  16
BRANCH   7  22
ATOM     22  N   UNL     1       6.767   4.892  14.385  0.00  0.00    +0.000 N 
ATOM     23  O   UNL     1       6.532   4.174  13.402  0.00  0.00    +0.000 OA
ATOM     24  O   UNL     1       7.770   5.611  14.504  0.00  0.00    +0.000 OA
ENDBRANCH   7  22
TORSDOF 3
ENDMDL
MODEL 2
REMARK VINA RESULT:      -7.5      0.647      1.182
REMARK  Name = 
REMARK  5 active torsions:
REMARK  status: ('A' for Active; 'I' for Inactive)
REMARK    1  A    between atoms: C_1  and  N_2
REMARK    2  A    between atoms: N_2  and  C_3
REMARK    3  A    between atoms: N_2  and  C_4
REMARK    4  A    between atoms: C_7  and  N_8
REMARK    5  A    between atoms: C_14  and  N_15
REMARK                            x       y       z     vdW  Elec       q    Type
REMARK                         _______ _______ _______ _____ _____    ______ ____
ROOT
ATOM      1  N   UNL     1       2.089   7.208  20.311  0.00  0.00    +0.000 N 
ATOM      2  C   UNL     1       2.737   6.599  19.302  0.00  0.00    +0.000 A 
ATOM      3  N   UNL     1       2.884   5.294  19.251  0.00  0.00    +0.000 NA
ATOM      4  C   UNL     1       3.679   5.040  18.174  0.00  0.00    +0.000 A 
ATOM      5  C   UNL     1       4.149   3.808  17.698  0.00  0.00    +0.000 A 
ATOM      6  C   UNL     1       5.021   3.795  16.604  0.00  0.00    +0.000 A 
ATOM      7  C   UNL     1       5.407   5.001  15.998  0.00  0.00    +0.000 A 
ATOM      8  C   UNL     1       4.918   6.250  16.440  0.00  0.00    +0.000 A 
ATOM      9  C   UNL     1       4.047   6.220  17.540  0.00  0.00    +0.000 A 
ATOM     10  N   UNL     1       3.390   7.200  18.257  0.00  0.00    +0.000 N 
ATOM     11  H   UNL     1       1.779   6.516  20.993  0.00  0.00    +0.000 HD
ATOM     12  H   UNL     1       3.449   8.189  18.087  0.00  0.00    +0.000 HD
ENDROOT
BRANCH   1  16
ATOM     13  C   UNL     1      -0.228  10.760  20.952  0.00  0.00    +0.000 A 
ATOM     14  C   UNL     1       0.114   9.866  21.970  0.00  0.00    +0.000 A 
ATOM     15  C   UNL     1       0.882   8.718  21.719  0.00  0.00    +0.000 A 
ATOM     16  C   UNL     1       1.355   8.400  20.438  0.00  0.00    +0.000 A 
ATOM     17  C   UNL     1       1.071   9.306  19.425  0.00  0.00    +0.000 A 
ATOM     18  C   UNL     1       0.299  10.461  19.683  0.00  0.00    +0.000 A 
BRANCH  13  20
ATOM     19  C   UNL     1      -1.743  12.514  20.081  0.00  0.00    +0.000 C 
ATOM     20  N   UNL     1      -1.018  11.887  21.184  0.00  0.00    +0.000 N 
ATOM     21  C   UNL     1      -0.715  12.734  22.334  0.00  0.00    +0.000 C 
ENDBRANCH  13  20
ENDBRANCH   1  16
BRANCH   7  22
ATOM     22  N   UNL     1       6.365   4.954  14.883  0.00  0.00    +0.000 N 
ATOM     23  O   UNL     1       7.430   5.576  15.005  0.00  0.00    +0.000 OA
ATOM     24  O   UNL     1       6.047   4.299  13.880  0.00  0.00    +0.000 OA
ENDBRANCH   7  22
TORSDOF 3
ENDMDL
MODEL 3
REMARK VINA RESULT:      -7.5      0.625      1.398
REMARK  Name = 
REMARK  5 active torsions:
REMARK  status: ('A' for Active; 'I' for Inactive)
REMARK    1  A    between atoms: C_1  and  N_2
REMARK    2  A    between atoms: N_2  and  C_3
REMARK    3  A    between atoms: N_2  and  C_4
REMARK    4  A    between atoms: C_7  and  N_8
REMARK    5  A    between atoms: C_14  and  N_15
REMARK                            x       y       z     vdW  Elec       q    Type
REMARK                         _______ _______ _______ _____ _____    ______ ____
ROOT
ATOM      1  N   UNL     1       2.547   6.953  19.719  0.00  0.00    +0.000 N 
ATOM      2  C   UNL     1       3.206   6.375  18.699  0.00  0.00    +0.000 A 
ATOM      3  N   UNL     1       3.376   5.074  18.622  0.00  0.00    +0.000 NA
ATOM      4  C   UNL     1       4.176   4.855  17.542  0.00  0.00    +0.000 A 
ATOM      5  C   UNL     1       4.667   3.641  17.042  0.00  0.00    +0.000 A 
ATOM      6  C   UNL     1       5.542   3.664  15.950  0.00  0.00    +0.000 A 
ATOM      7  C   UNL     1       5.908   4.888  15.369  0.00  0.00    +0.000 A 
ATOM      8  C   UNL     1       5.398   6.120  15.835  0.00  0.00    +0.000 A 
ATOM      9  C   UNL     1       4.526   6.054  16.932  0.00  0.00    +0.000 A 
ATOM     10  N   UNL     1       3.852   7.009  17.668  0.00  0.00    +0.000 N 
ATOM     11  H   UNL     1       2.247   6.243  20.386  0.00  0.00    +0.000 HD
ATOM     12  H   UNL     1       3.895   8.001  17.518  0.00  0.00    +0.000 HD
ENDROOT
BRANCH   1  16
ATOM     13  C   UNL     1       0.345  10.628  19.927  0.00  0.00    +0.000 A 
ATOM     14  C   UNL     1       0.946  10.152  18.759  0.00  0.00    +0.000 A 
ATOM     15  C   UNL     1       1.652   8.939  18.731  0.00  0.00    +0.000 A 
ATOM     16  C   UNL     1       1.793   8.130  19.868  0.00  0.00    +0.000 A 
ATOM     17  C   UNL     1       1.155   8.560  21.023  0.00  0.00    +0.000 A 
ATOM     18  C   UNL     1       0.445   9.781  21.045  0.00  0.00    +0.000 A 
BRANCH  13  20
ATOM     19  C   UNL     1      -0.671  12.547  18.737  0.00  0.00    +0.000 C 
ATOM     20  N   UNL     1      -0.332  11.848  19.974  0.00  0.00    +0.000 N 
ATOM     21  C   UNL     1      -0.225  12.665  21.180  0.00  0.00    +0.000 C 
ENDBRANCH  13  20
ENDBRANCH   1  16
BRANCH   7  22
ATOM     22  N   UNL     1       6.869   4.880  14.255  0.00  0.00    +0.000 N 
ATOM     23  O   UNL     1       6.621   4.157  13.279  0.00  0.00    +0.000 OA
ATOM     24  O   UNL     1       7.878   5.591  14.362  0.00  0.00    +0.000 OA
ENDBRANCH   7  22
TORSDOF 3
ENDMDL
MODEL 4
REMARK VINA RESULT:      -7.4      0.422      1.274
REMARK  Name = 
REMARK  5 active torsions:
REMARK  status: ('A' for Active; 'I' for Inactive)
REMARK    1  A    between atoms: C_1  and  N_2
REMARK    2  A    between atoms: N_2  and  C_3
REMARK    3  A    between atoms: N_2  and  C_4
REMARK    4  A    between atoms: C_7  and  N_8
REMARK    5  A    between atoms: C_14  and  N_15
REMARK                            x       y       z     vdW  Elec       q    Type
REMARK                         _______ _______ _______ _____ _____    ______ ____
ROOT
ATOM      1  N   UNL     1       2.359   6.973  19.970  0.00  0.00    +0.000 N 
ATOM      2  C   UNL     1       3.012   6.396  18.946  0.00  0.00    +0.000 A 
ATOM      3  N   UNL     1       3.150   5.093  18.848  0.00  0.00    +0.000 NA
ATOM      4  C   UNL     1       3.953   4.872  17.771  0.00  0.00    +0.000 A 
ATOM      5  C   UNL     1       4.418   3.654  17.254  0.00  0.00    +0.000 A 
ATOM      6  C   UNL     1       5.300   3.674  16.169  0.00  0.00    +0.000 A 
ATOM      7  C   UNL     1       5.701   4.898  15.611  0.00  0.00    +0.000 A 
ATOM      8  C   UNL     1       5.218   6.135  16.094  0.00  0.00    +0.000 A 
ATOM      9  C   UNL     1       4.336   6.072  17.183  0.00  0.00    +0.000 A 
ATOM     10  N   UNL     1       3.680   7.030  17.930  0.00  0.00    +0.000 N 
ATOM     11  H   UNL     1       2.037   6.260  20.624  0.00  0.00    +0.000 HD
ATOM     12  H   UNL     1       3.748   8.024  17.797  0.00  0.00    +0.000 HD
ENDROOT
BRANCH   1  16
ATOM     13  C   UNL     1       0.241  10.694  20.221  0.00  0.00    +0.000 A 
ATOM     14  C   UNL     1       0.819  10.212  19.045  0.00  0.00    +0.000 A 
ATOM     15  C   UNL     1       1.497   8.983  19.003  0.00  0.00    +0.000 A 
ATOM     16  C   UNL     1       1.633   8.166  20.134  0.00  0.00    +0.000 A 
ATOM     17  C   UNL     1       1.017   8.604  21.299  0.00  0.00    +0.000 A 
ATOM     18  C   UNL     1       0.334   9.839  21.335  0.00  0.00    +0.000 A 
BRANCH  13  20
ATOM     19  C   UNL     1      -0.409  12.696  21.526  0.00  0.00    +0.000 C 
ATOM     20  N   UNL     1      -0.408  11.929  20.282  0.00  0.00    +0.000 N 
ATOM     21  C   UNL     1      -1.494  12.200  19.345  0.00  0.00    +0.000 C 
ENDBRANCH  13  20
ENDBRANCH   1  16
BRANCH   7  22
ATOM     22  N   UNL     1       6.670   4.884  14.504  0.00  0.00    +0.000 N 
ATOM     23  O   UNL     1       7.697   5.567  14.622  0.00  0.00    +0.000 OA
ATOM     24  O   UNL     1       6.396   4.196  13.511  0.00  0.00    +0.000 OA
ENDBRANCH   7  22
TORSDOF 3
ENDMDL
MODEL 5
REMARK VINA RESULT:      -7.1      1.355      1.685
REMARK  Name = 
REMARK  5 active torsions:
REMARK  status: ('A' for Active; 'I' for Inactive)
REMARK    1  A    between atoms: C_1  and  N_2
REMARK    2  A    between atoms: N_2  and  C_3
REMARK    3  A    between atoms: N_2  and  C_4
REMARK    4  A    between atoms: C_7  and  N_8
REMARK    5  A    between atoms: C_14  and  N_15
REMARK                            x       y       z     vdW  Elec       q    Type
REMARK                         _______ _______ _______ _____ _____    ______ ____
ROOT
ATOM      1  N   UNL     1       1.467   7.302  20.983  0.00  0.00    +0.000 N 
ATOM      2  C   UNL     1       2.091   6.689  19.962  0.00  0.00    +0.000 A 
ATOM      3  N   UNL     1       2.088   5.382  19.823  0.00  0.00    +0.000 NA
ATOM      4  C   UNL     1       2.903   5.108  18.766  0.00  0.00    +0.000 A 
ATOM      5  C   UNL     1       3.251   3.863  18.223  0.00  0.00    +0.000 A 
ATOM      6  C   UNL     1       4.171   3.819  17.170  0.00  0.00    +0.000 A 
ATOM      7  C   UNL     1       4.725   5.008  16.671  0.00  0.00    +0.000 A 
ATOM      8  C   UNL     1       4.362   6.274  17.180  0.00  0.00    +0.000 A 
ATOM      9  C   UNL     1       3.439   6.275  18.236  0.00  0.00    +0.000 A 
ATOM     10  N   UNL     1       2.863   7.277  18.993  0.00  0.00    +0.000 N 
ATOM     11  H   UNL     1       1.043   6.608  21.599  0.00  0.00    +0.000 HD
ATOM     12  H   UNL     1       3.045   8.260  18.898  0.00  0.00    +0.000 HD
ENDROOT
BRANCH   1  16
ATOM     13  C   UNL     1      -0.447  11.057  21.782  0.00  0.00    +0.000 A 
ATOM     14  C   UNL     1      -0.245  10.070  22.751  0.00  0.00    +0.000 A 
ATOM     15  C   UNL     1       0.394   8.857  22.450  0.00  0.00    +0.000 A 
ATOM     16  C   UNL     1       0.871   8.562  21.164  0.00  0.00    +0.000 A 
ATOM     17  C   UNL     1       0.728   9.553  20.203  0.00  0.00    +0.000 A 
ATOM     18  C   UNL     1       0.086  10.773  20.512  0.00  0.00    +0.000 A 
BRANCH  13  20
ATOM     19  C   UNL     1      -0.360  13.504  22.151  0.00  0.00    +0.000 C 
ATOM     20  N   UNL     1      -1.110  12.253  22.062  0.00  0.00    +0.000 N 
ATOM     21  C   UNL     1      -2.384  12.201  22.774  0.00  0.00    +0.000 C 
ENDBRANCH  13  20
ENDBRANCH   1  16
BRANCH   7  22
ATOM     22  N   UNL     1       5.728   4.921  15.598  0.00  0.00    +0.000 N 
ATOM     23  O   UNL     1       6.349   3.857  15.468  0.00  0.00    +0.000 OA
ATOM     24  O   UNL     1       5.900   5.924  14.891  0.00  0.00    +0.000 OA
ENDBRANCH   7  22
TORSDOF 3
ENDMDL
MODEL 6
REMARK VINA RESULT:      -7.0      1.455      2.125
REMARK  Name = 
REMARK  5 active torsions:
REMARK  status: ('A' for Active; 'I' for Inactive)
REMARK    1  A    between atoms: C_1  and  N_2
REMARK    2  A    between atoms: N_2  and  C_3
REMARK    3  A    between atoms: N_2  and  C_4
REMARK    4  A    between atoms: C_7  and  N_8
REMARK    5  A    between atoms: C_14  and  N_15
REMARK                            x       y       z     vdW  Elec       q    Type
REMARK                         _______ _______ _______ _____ _____    ______ ____
ROOT
ATOM      1  N   UNL     1       1.372   7.526  21.338  0.00  0.00    +0.000 N 
ATOM      2  C   UNL     1       1.960   6.921  20.291  0.00  0.00    +0.000 A 
ATOM      3  N   UNL     1       2.084   5.615  20.217  0.00  0.00    +0.000 NA
ATOM      4  C   UNL     1       2.822   5.362  19.100  0.00  0.00    +0.000 A 
ATOM      5  C   UNL     1       3.248   4.129  18.587  0.00  0.00    +0.000 A 
ATOM      6  C   UNL     1       4.067   4.117  17.452  0.00  0.00    +0.000 A 
ATOM      7  C   UNL     1       4.443   5.325  16.843  0.00  0.00    +0.000 A 
ATOM      8  C   UNL     1       3.996   6.576  17.324  0.00  0.00    +0.000 A 
ATOM      9  C   UNL     1       3.179   6.545  18.464  0.00  0.00    +0.000 A 
ATOM     10  N   UNL     1       2.573   7.526  19.224  0.00  0.00    +0.000 N 
ATOM     11  H   UNL     1       1.083   6.831  22.025  0.00  0.00    +0.000 HD
ATOM     12  H   UNL     1       2.640   8.515  19.064  0.00  0.00    +0.000 HD
ENDROOT
BRANCH   1  16
ATOM     13  C   UNL     1      -0.712  11.265  21.618  0.00  0.00    +0.000 A 
ATOM     14  C   UNL     1      -0.240  10.732  20.417  0.00  0.00    +0.000 A 
ATOM     15  C   UNL     1       0.430   9.499  20.367  0.00  0.00    +0.000 A 
ATOM     16  C   UNL     1       0.664   8.728  21.515  0.00  0.00    +0.000 A 
ATOM     17  C   UNL     1       0.153   9.217  22.709  0.00  0.00    +0.000 A 
ATOM     18  C   UNL     1      -0.522  10.456  22.754  0.00  0.00    +0.000 A 
BRANCH  13  20
ATOM     19  C   UNL     1      -1.067  13.418  22.789  0.00  0.00    +0.000 C 
ATOM     20  N   UNL     1      -1.352  12.504  21.685  0.00  0.00    +0.000 N 
ATOM     21  C   UNL     1      -2.638  12.669  21.013  0.00  0.00    +0.000 C 
ENDBRANCH  13  20
ENDBRANCH   1  16
BRANCH   7  22
ATOM     22  N   UNL     1       5.346   5.277  15.683  0.00  0.00    +0.000 N 
ATOM     23  O   UNL     1       5.736   4.167  15.295  0.00  0.00    +0.000 OA
ATOM     24  O   UNL     1       5.672   6.355  15.165  0.00  0.00    +0.000 OA
ENDBRANCH   7  22
TORSDOF 3
ENDMDL
MODEL 7
REMARK VINA RESULT:      -6.9      2.726      3.434
REMARK  Name = 
REMARK  5 active torsions:
REMARK  status: ('A' for Active; 'I' for Inactive)
REMARK    1  A    between atoms: C_1  and  N_2
REMARK    2  A    between atoms: N_2  and  C_3
REMARK    3  A    between atoms: N_2  and  C_4
REMARK    4  A    between atoms: C_7  and  N_8
REMARK    5  A    between atoms: C_14  and  N_15
REMARK                            x       y       z     vdW  Elec       q    Type
REMARK                         _______ _______ _______ _____ _____    ______ ____
ROOT
ATOM      1  N   UNL     1       1.617   8.890  18.446  0.00  0.00    +0.000 N 
ATOM      2  C   UNL     1       2.331   7.759  18.584  0.00  0.00    +0.000 A 
ATOM      3  N   UNL     1       3.391   7.506  17.851  0.00  0.00    +0.000 NA
ATOM      4  C   UNL     1       3.786   6.243  18.171  0.00  0.00    +0.000 A 
ATOM      5  C   UNL     1       4.855   5.497  17.654  0.00  0.00    +0.000 A 
ATOM      6  C   UNL     1       5.030   4.178  18.087  0.00  0.00    +0.000 A 
ATOM      7  C   UNL     1       4.147   3.624  19.027  0.00  0.00    +0.000 A 
ATOM      8  C   UNL     1       3.085   4.369  19.586  0.00  0.00    +0.000 A 
ATOM      9  C   UNL     1       2.943   5.686  19.125  0.00  0.00    +0.000 A 
ATOM     10  N   UNL     1       2.047   6.698  19.406  0.00  0.00    +0.000 N 
ATOM     11  H   UNL     1       2.011   9.462  17.698  0.00  0.00    +0.000 HD
ATOM     12  H   UNL     1       1.273   6.635  20.043  0.00  0.00    +0.000 HD
ENDROOT
BRANCH   1  16
ATOM     13  C   UNL     1      -0.927  11.380  20.839  0.00  0.00    +0.000 A 
ATOM     14  C   UNL     1      -1.115  11.172  19.471  0.00  0.00    +0.000 A 
ATOM     15  C   UNL     1      -0.263  10.342  18.724  0.00  0.00    +0.000 A 
ATOM     16  C   UNL     1       0.822   9.669  19.304  0.00  0.00    +0.000 A 
ATOM     17  C   UNL     1       0.989   9.820  20.674  0.00  0.00    +0.000 A 
ATOM     18  C   UNL     1       0.129  10.655  21.420  0.00  0.00    +0.000 A 
BRANCH  13  20
ATOM     19  C   UNL     1      -2.062  11.909  22.975  0.00  0.00    +0.000 C 
ATOM     20  N   UNL     1      -1.748  12.228  21.585  0.00  0.00    +0.000 N 
ATOM     21  C   UNL     1      -2.693  13.090  20.881  0.00  0.00    +0.000 C 
ENDBRANCH  13  20
ENDBRANCH   1  16
BRANCH   7  22
ATOM     22  N   UNL     1       4.329   2.218  19.422  0.00  0.00    +0.000 N 
ATOM     23  O   UNL     1       3.755   1.348  18.751  0.00  0.00    +0.000 OA
ATOM     24  O   UNL     1       5.041   1.987  20.409  0.00  0.00    +0.000 OA
ENDBRANCH   7  22
TORSDOF 3
ENDMDL
MODEL 8
REMARK VINA RESULT:      -6.9      2.709      3.550
REMARK  Name = 
REMARK  5 active torsions:
REMARK  status: ('A' for Active; 'I' for Inactive)
REMARK    1  A    between atoms: C_1  and  N_2
REMARK    2  A    between atoms: N_2  and  C_3
REMARK    3  A    between atoms: N_2  and  C_4
REMARK    4  A    between atoms: C_7  and  N_8
REMARK    5  A    between atoms: C_14  and  N_15
REMARK                            x       y       z     vdW  Elec       q    Type
REMARK                         _______ _______ _______ _____ _____    ______ ____
ROOT
ATOM      1  N   UNL     1       1.667   8.843  18.344  0.00  0.00    +0.000 N 
ATOM      2  C   UNL     1       2.375   7.711  18.504  0.00  0.00    +0.000 A 
ATOM      3  N   UNL     1       3.448   7.449  17.792  0.00  0.00    +0.000 NA
ATOM      4  C   UNL     1       3.833   6.187  18.128  0.00  0.00    +0.000 A 
ATOM      5  C   UNL     1       4.909   5.434  17.637  0.00  0.00    +0.000 A 
ATOM      6  C   UNL     1       5.071   4.118  18.081  0.00  0.00    +0.000 A 
ATOM      7  C   UNL     1       4.169   3.573  19.009  0.00  0.00    +0.000 A 
ATOM      8  C   UNL     1       3.099   4.325  19.542  0.00  0.00    +0.000 A 
ATOM      9  C   UNL     1       2.970   5.639  19.070  0.00  0.00    +0.000 A 
ATOM     10  N   UNL     1       2.072   6.657  19.327  0.00  0.00    +0.000 N 
ATOM     11  H   UNL     1       2.078   9.409  17.601  0.00  0.00    +0.000 HD
ATOM     12  H   UNL     1       1.287   6.600  19.950  0.00  0.00    +0.000 HD
ENDROOT
BRANCH   1  16
ATOM     13  C   UNL     1      -0.905  11.365  20.673  0.00  0.00    +0.000 A 
ATOM     14  C   UNL     1      -1.043  11.182  19.295  0.00  0.00    +0.000 A 
ATOM     15  C   UNL     1      -0.184  10.340  18.571  0.00  0.00    +0.000 A 
ATOM     16  C   UNL     1       0.859   9.631  19.183  0.00  0.00    +0.000 A 
ATOM     17  C   UNL     1       0.976   9.758  20.560  0.00  0.00    +0.000 A 
ATOM     18  C   UNL     1       0.108  10.604  21.284  0.00  0.00    +0.000 A 
BRANCH  13  20
ATOM     19  C   UNL     1      -2.699  13.071  20.704  0.00  0.00    +0.000 C 
ATOM     20  N   UNL     1      -1.732  12.224  21.399  0.00  0.00    +0.000 N 
ATOM     21  C   UNL     1      -1.296  12.673  22.718  0.00  0.00    +0.000 C 
ENDBRANCH  13  20
ENDBRANCH   1  16
BRANCH   7  22
ATOM     22  N   UNL     1       4.339   2.169  19.415  0.00  0.00    +0.000 N 
ATOM     23  O   UNL     1       5.041   1.933  20.409  0.00  0.00    +0.000 OA
ATOM     24  O   UNL     1       3.775   1.302  18.733  0.00  0.00    +0.000 OA
ENDBRANCH   7  22
TORSDOF 3
ENDMDL
