MODEL 1
REMARK VINA RESULT:      -8.7      0.000      0.000
REMARK  Name = 
REMARK  4 active torsions:
REMARK  status: ('A' for Active; 'I' for Inactive)
REMARK    1  A    between atoms: C_1  and  C_2
REMARK    2  A    between atoms: C_5  and  C_7
REMARK    3  A    between atoms: C_16  and  C_18
REMARK    4  A    between atoms: C_18  and  C_20
REMARK                            x       y       z     vdW  Elec       q    Type
REMARK                         _______ _______ _______ _____ _____    ______ ____
ROOT
ATOM      1  C   UNL     1       2.577  13.009  19.450  0.00  0.00    +0.000 C 
ATOM      2  C   UNL     1       1.282  12.319  18.963  0.00  0.00    +0.000 C 
ATOM      3  C   UNL     1       0.265  13.423  18.621  0.00  0.00    +0.000 C 
ATOM      4  N   UNL     1      -0.122  14.207  19.808  0.00  0.00    +0.000 N 
ATOM      5  C   UNL     1      -0.147  15.610  19.920  0.00  0.00    +0.000 C 
ATOM      6  O   UNL     1      -0.450  16.178  20.971  0.00  0.00    +0.000 OA
ATOM      7  C   UNL     1      -0.602  13.383  20.945  0.00  0.00    +0.000 C 
ATOM      8  C   UNL     1       0.264  12.125  21.215  0.00  0.00    +0.000 C 
ATOM      9  N   UNL     1       0.694  11.432  19.979  0.00  0.00    +0.000 N 
ATOM     10  C   UNL     1       0.469  10.038  19.826  0.00  0.00    +0.000 C 
ATOM     11  O   UNL     1      -0.050   9.364  20.716  0.00  0.00    +0.000 OA
ENDROOT
BRANCH   5  12
ATOM     12  C   UNL     1       0.236  16.518  18.768  0.00  0.00    +0.000 A 
ATOM     13  C   UNL     1       1.565  16.664  18.354  0.00  0.00    +0.000 A 
ATOM     14  C   UNL     1       1.906  17.613  17.387  0.00  0.00    +0.000 A 
ATOM     15  C   UNL     1       0.908  18.331  16.738  0.00  0.00    +0.000 A 
ATOM     16  C   UNL     1      -0.431  18.093  17.055  0.00  0.00    +0.000 A 
ATOM     17  C   UNL     1      -0.766  17.192  18.077  0.00  0.00    +0.000 A 
ENDBRANCH   5  12
BRANCH  10  18
ATOM     18  C   UNL     1       0.981   9.253  18.539  0.00  0.00    +0.000 C 
ATOM     19  O   UNL     1       0.592   9.613  17.448  0.00  0.00    +0.000 OA
BRANCH  18  20
ATOM     20  C   UNL     1       1.925   8.156  18.757  0.00  0.00    +0.000 A 
ATOM     21  C   UNL     1       2.955   8.031  17.819  0.00  0.00    +0.000 A 
ATOM     22  N   UNL     1       3.687   6.962  18.191  0.00  0.00    +0.000 N 
ATOM     23  C   UNL     1       2.779   6.142  18.793  0.00  0.00    +0.000 A 
ATOM     24  C   UNL     1       2.039   6.963  19.625  0.00  0.00    +0.000 A 
ATOM     25  C   UNL     1       1.617   6.318  20.820  0.00  0.00    +0.000 A 
ATOM     26  C   UNL     1       1.861   4.897  20.965  0.00  0.00    +0.000 A 
ATOM     27  C   UNL     1       2.270   4.097  19.848  0.00  0.00    +0.000 A 
ATOM     28  C   UNL     1       2.380   2.691  19.683  0.00  0.00    +0.000 A 
ATOM     29  C   UNL     1       2.594   2.137  18.400  0.00  0.00    +0.000 A 
ATOM     30  C   UNL     1       2.753   2.982  17.317  0.00  0.00    +0.000 A 
ATOM     31  N   UNL     1       2.884   4.298  17.461  0.00  0.00    +0.000 NA
ATOM     32  C   UNL     1       2.643   4.777  18.705  0.00  0.00    +0.000 A 
ATOM     33  H   UNL     1       4.624   7.039  18.564  0.00  0.00    +0.000 HD
ENDBRANCH  18  20
ENDBRANCH  10  18
TORSDOF 3
ENDMDL
MODEL 2
REMARK VINA RESULT:      -8.3      5.070      8.737
REMARK  Name = 
REMARK  4 active torsions:
REMARK  status: ('A' for Active; 'I' for Inactive)
REMARK    1  A    between atoms: C_1  and  C_2
REMARK    2  A    between atoms: C_5  and  C_7
REMARK    3  A    between atoms: C_16  and  C_18
REMARK    4  A    between atoms: C_18  and  C_20
REMARK                            x       y       z     vdW  Elec       q    Type
REMARK                         _______ _______ _______ _____ _____    ______ ____
ROOT
ATOM      1  C   UNL     1       2.788  12.836  18.597  0.00  0.00    +0.000 C 
ATOM      2  C   UNL     1       3.011  13.839  19.754  0.00  0.00    +0.000 C 
ATOM      3  C   UNL     1       1.901  13.605  20.795  0.00  0.00    +0.000 C 
ATOM      4  N   UNL     1       0.563  13.908  20.256  0.00  0.00    +0.000 N 
ATOM      5  C   UNL     1      -0.581  13.090  20.329  0.00  0.00    +0.000 C 
ATOM      6  O   UNL     1      -1.652  13.414  19.812  0.00  0.00    +0.000 OA
ATOM      7  C   UNL     1       0.446  15.260  19.657  0.00  0.00    +0.000 C 
ATOM      8  C   UNL     1       1.646  15.651  18.755  0.00  0.00    +0.000 C 
ATOM      9  N   UNL     1       2.956  15.240  19.311  0.00  0.00    +0.000 N 
ATOM     10  C   UNL     1       4.007  16.186  19.436  0.00  0.00    +0.000 C 
ATOM     11  O   UNL     1       3.879  17.352  19.061  0.00  0.00    +0.000 OA
ENDROOT
BRANCH   5  12
ATOM     12  C   UNL     1      -0.562  11.737  21.011  0.00  0.00    +0.000 A 
ATOM     13  C   UNL     1      -0.936  11.579  22.350  0.00  0.00    +0.000 A 
ATOM     14  C   UNL     1      -0.773  10.349  22.992  0.00  0.00    +0.000 A 
ATOM     15  C   UNL     1      -0.354   9.239  22.268  0.00  0.00    +0.000 A 
ATOM     16  C   UNL     1      -0.105   9.362  20.899  0.00  0.00    +0.000 A 
ATOM     17  C   UNL     1      -0.200  10.614  20.273  0.00  0.00    +0.000 A 
ENDBRANCH   5  12
BRANCH  10  18
ATOM     18  C   UNL     1       5.447  15.759  19.966  0.00  0.00    +0.000 C 
ATOM     19  O   UNL     1       5.630  15.702  21.163  0.00  0.00    +0.000 OA
BRANCH  18  20
ATOM     20  C   UNL     1       6.458  15.428  18.960  0.00  0.00    +0.000 A 
ATOM     21  C   UNL     1       6.042  14.594  17.917  0.00  0.00    +0.000 A 
ATOM     22  N   UNL     1       7.116  14.403  17.126  0.00  0.00    +0.000 N 
ATOM     23  C   UNL     1       8.171  14.476  17.988  0.00  0.00    +0.000 A 
ATOM     24  C   UNL     1       7.919  15.580  18.782  0.00  0.00    +0.000 A 
ATOM     25  C   UNL     1       9.099  16.270  19.174  0.00  0.00    +0.000 A 
ATOM     26  C   UNL     1      10.385  15.688  18.848  0.00  0.00    +0.000 A 
ATOM     27  C   UNL     1      10.489  14.336  18.384  0.00  0.00    +0.000 A 
ATOM     28  C   UNL     1      11.613  13.488  18.189  0.00  0.00    +0.000 A 
ATOM     29  C   UNL     1      11.431  12.110  17.932  0.00  0.00    +0.000 A 
ATOM     30  C   UNL     1      10.148  11.608  17.816  0.00  0.00    +0.000 A 
ATOM     31  N   UNL     1       9.080  12.400  17.764  0.00  0.00    +0.000 NA
ATOM     32  C   UNL     1       9.308  13.707  18.042  0.00  0.00    +0.000 A 
ATOM     33  H   UNL     1       7.194  14.798  16.198  0.00  0.00    +0.000 HD
ENDBRANCH  18  20
ENDBRANCH  10  18
TORSDOF 3
ENDMDL
MODEL 3
REMARK VINA RESULT:      -8.0      2.712      3.366
REMARK  Name = 
REMARK  4 active torsions:
REMARK  status: ('A' for Active; 'I' for Inactive)
REMARK    1  A    between atoms: C_1  and  C_2
REMARK    2  A    between atoms: C_5  and  C_7
REMARK    3  A    between atoms: C_16  and  C_18
REMARK    4  A    between atoms: C_18  and  C_20
REMARK                            x       y       z     vdW  Elec       q    Type
REMARK                         _______ _______ _______ _____ _____    ______ ____
ROOT
ATOM      1  C   UNL     1      -0.259  10.499  21.486  0.00  0.00    +0.000 C 
ATOM      2  C   UNL     1       0.118  11.122  20.121  0.00  0.00    +0.000 C 
ATOM      3  C   UNL     1      -0.390  12.575  20.116  0.00  0.00    +0.000 C 
ATOM      4  N   UNL     1      -1.861  12.648  20.197  0.00  0.00    +0.000 N 
ATOM      5  C   UNL     1      -2.619  13.444  21.077  0.00  0.00    +0.000 C 
ATOM      6  O   UNL     1      -3.850  13.409  21.096  0.00  0.00    +0.000 OA
ATOM      7  C   UNL     1      -2.563  11.842  19.168  0.00  0.00    +0.000 C 
ATOM      8  C   UNL     1      -1.963  10.426  18.968  0.00  0.00    +0.000 C 
ATOM      9  N   UNL     1      -0.482  10.407  18.985  0.00  0.00    +0.000 N 
ATOM     10  C   UNL     1       0.236   9.789  17.927  0.00  0.00    +0.000 C 
ATOM     11  O   UNL     1      -0.338   9.227  16.994  0.00  0.00    +0.000 OA
ENDROOT
BRANCH   5  12
ATOM     12  C   UNL     1      -1.970  14.366  22.090  0.00  0.00    +0.000 A 
ATOM     13  C   UNL     1      -1.658  13.938  23.386  0.00  0.00    +0.000 A 
ATOM     14  C   UNL     1      -1.194  14.847  24.340  0.00  0.00    +0.000 A 
ATOM     15  C   UNL     1      -0.920  16.160  23.973  0.00  0.00    +0.000 A 
ATOM     16  C   UNL     1      -1.105  16.558  22.647  0.00  0.00    +0.000 A 
ATOM     17  C   UNL     1      -1.640  15.663  21.708  0.00  0.00    +0.000 A 
ENDBRANCH   5  12
BRANCH  10  18
ATOM     18  C   UNL     1       1.826   9.694  17.951  0.00  0.00    +0.000 C 
ATOM     19  O   UNL     1       2.470  10.677  17.653  0.00  0.00    +0.000 OA
BRANCH  18  20
ATOM     20  C   UNL     1       2.412   8.419  18.368  0.00  0.00    +0.000 A 
ATOM     21  C   UNL     1       3.329   7.841  17.483  0.00  0.00    +0.000 A 
ATOM     22  N   UNL     1       3.726   6.682  18.043  0.00  0.00    +0.000 N 
ATOM     23  C   UNL     1       2.638   6.278  18.760  0.00  0.00    +0.000 A 
ATOM     24  C   UNL     1       2.200   7.408  19.427  0.00  0.00    +0.000 A 
ATOM     25  C   UNL     1       1.647   7.124  20.706  0.00  0.00    +0.000 A 
ATOM     26  C   UNL     1       1.467   5.740  21.094  0.00  0.00    +0.000 A 
ATOM     27  C   UNL     1       1.586   4.681  20.136  0.00  0.00    +0.000 A 
ATOM     28  C   UNL     1       1.273   3.297  20.213  0.00  0.00    +0.000 A 
ATOM     29  C   UNL     1       1.272   2.499  19.046  0.00  0.00    +0.000 A 
ATOM     30  C   UNL     1       1.636   3.067  17.839  0.00  0.00    +0.000 A 
ATOM     31  N   UNL     1       2.153   4.291  17.760  0.00  0.00    +0.000 NA
ATOM     32  C   UNL     1       2.105   5.020  18.901  0.00  0.00    +0.000 A 
ATOM     33  H   UNL     1       4.657   6.540  18.414  0.00  0.00    +0.000 HD
ENDBRANCH  18  20
ENDBRANCH  10  18
TORSDOF 3
ENDMDL
MODEL 4
REMARK VINA RESULT:      -8.0      3.499      9.374
REMARK  Name = 
REMARK  4 active torsions:
REMARK  status: ('A' for Active; 'I' for Inactive)
REMARK    1  A    between atoms: C_1  and  C_2
REMARK    2  A    between atoms: C_5  and  C_7
REMARK    3  A    between atoms: C_16  and  C_18
REMARK    4  A    between atoms: C_18  and  C_20
REMARK                            x       y       z     vdW  Elec       q    Type
REMARK                         _______ _______ _______ _____ _____    ______ ____
ROOT
ATOM      1  C   UNL     1       1.898   7.279  17.996  0.00  0.00    +0.000 C 
ATOM      2  C   UNL     1       2.228   7.591  19.475  0.00  0.00    +0.000 C 
ATOM      3  C   UNL     1       3.401   6.686  19.892  0.00  0.00    +0.000 C 
ATOM      4  N   UNL     1       3.039   5.257  19.856  0.00  0.00    +0.000 N 
ATOM      5  C   UNL     1       3.765   4.218  19.242  0.00  0.00    +0.000 C 
ATOM      6  O   UNL     1       3.361   3.054  19.232  0.00  0.00    +0.000 OA
ATOM      7  C   UNL     1       1.818   4.924  20.629  0.00  0.00    +0.000 C 
ATOM      8  C   UNL     1       0.652   5.925  20.419  0.00  0.00    +0.000 C 
ATOM      9  N   UNL     1       1.093   7.339  20.376  0.00  0.00    +0.000 N 
ATOM     10  C   UNL     1       0.472   8.306  21.209  0.00  0.00    +0.000 C 
ATOM     11  O   UNL     1      -0.463   8.015  21.956  0.00  0.00    +0.000 OA
ENDROOT
BRANCH   5  12
ATOM     12  C   UNL     1       5.073   4.468  18.517  0.00  0.00    +0.000 A 
ATOM     13  C   UNL     1       6.198   4.977  19.176  0.00  0.00    +0.000 A 
ATOM     14  C   UNL     1       7.341   5.330  18.456  0.00  0.00    +0.000 A 
ATOM     15  C   UNL     1       7.415   5.062  17.094  0.00  0.00    +0.000 A 
ATOM     16  C   UNL     1       6.343   4.432  16.457  0.00  0.00    +0.000 A 
ATOM     17  C   UNL     1       5.169   4.144  17.167  0.00  0.00    +0.000 A 
ENDBRANCH   5  12
BRANCH  10  18
ATOM     18  C   UNL     1       0.877   9.845  21.136  0.00  0.00    +0.000 C 
ATOM     19  O   UNL     1       1.783  10.239  21.839  0.00  0.00    +0.000 OA
BRANCH  18  20
ATOM     20  C   UNL     1       0.141  10.686  20.191  0.00  0.00    +0.000 A 
ATOM     21  C   UNL     1      -0.139  11.990  20.612  0.00  0.00    +0.000 A 
ATOM     22  N   UNL     1      -0.830  12.577  19.614  0.00  0.00    +0.000 N 
ATOM     23  C   UNL     1      -1.511  11.543  19.040  0.00  0.00    +0.000 A 
ATOM     24  C   UNL     1      -0.586  10.522  18.913  0.00  0.00    +0.000 A 
ATOM     25  C   UNL     1      -0.792   9.720  17.756  0.00  0.00    +0.000 A 
ATOM     26  C   UNL     1      -1.978   9.948  16.956  0.00  0.00    +0.000 A 
ATOM     27  C   UNL     1      -3.053  10.763  17.439  0.00  0.00    +0.000 A 
ATOM     28  C   UNL     1      -4.369  10.979  16.950  0.00  0.00    +0.000 A 
ATOM     29  C   UNL     1      -5.321  11.664  17.739  0.00  0.00    +0.000 A 
ATOM     30  C   UNL     1      -4.940  12.172  18.967  0.00  0.00    +0.000 A 
ATOM     31  N   UNL     1      -3.669  12.193  19.360  0.00  0.00    +0.000 NA
ATOM     32  C   UNL     1      -2.805  11.500  18.580  0.00  0.00    +0.000 A 
ATOM     33  H   UNL     1      -0.444  13.311  19.035  0.00  0.00    +0.000 HD
ENDBRANCH  18  20
ENDBRANCH  10  18
TORSDOF 3
ENDMDL
MODEL 5
REMARK VINA RESULT:      -8.0      2.364      3.989
REMARK  Name = 
REMARK  4 active torsions:
REMARK  status: ('A' for Active; 'I' for Inactive)
REMARK    1  A    between atoms: C_1  and  C_2
REMARK    2  A    between atoms: C_5  and  C_7
REMARK    3  A    between atoms: C_16  and  C_18
REMARK    4  A    between atoms: C_18  and  C_20
REMARK                            x       y       z     vdW  Elec       q    Type
REMARK                         _______ _______ _______ _____ _____    ______ ____
ROOT
ATOM      1  C   UNL     1      -1.407  12.428  19.124  0.00  0.00    +0.000 C 
ATOM      2  C   UNL     1      -0.280  11.523  19.675  0.00  0.00    +0.000 C 
ATOM      3  C   UNL     1      -0.163  11.792  21.187  0.00  0.00    +0.000 C 
ATOM      4  N   UNL     1       0.259  13.176  21.472  0.00  0.00    +0.000 N 
ATOM      5  C   UNL     1      -0.343  14.071  22.376  0.00  0.00    +0.000 C 
ATOM      6  O   UNL     1       0.061  15.227  22.520  0.00  0.00    +0.000 OA
ATOM      7  C   UNL     1       1.499  13.586  20.768  0.00  0.00    +0.000 C 
ATOM      8  C   UNL     1       1.542  13.157  19.278  0.00  0.00    +0.000 C 
ATOM      9  N   UNL     1       1.022  11.789  19.045  0.00  0.00    +0.000 N 
ATOM     10  C   UNL     1       1.796  10.844  18.322  0.00  0.00    +0.000 C 
ATOM     11  O   UNL     1       2.891  11.135  17.840  0.00  0.00    +0.000 OA
ENDROOT
BRANCH   5  12
ATOM     12  C   UNL     1      -1.554  13.689  23.204  0.00  0.00    +0.000 A 
ATOM     13  C   UNL     1      -2.213  12.467  23.028  0.00  0.00    +0.000 A 
ATOM     14  C   UNL     1      -3.408  12.202  23.702  0.00  0.00    +0.000 A 
ATOM     15  C   UNL     1      -3.885  13.102  24.648  0.00  0.00    +0.000 A 
ATOM     16  C   UNL     1      -3.160  14.264  24.922  0.00  0.00    +0.000 A 
ATOM     17  C   UNL     1      -1.999  14.561  24.192  0.00  0.00    +0.000 A 
ENDBRANCH   5  12
BRANCH  10  18
ATOM     18  C   UNL     1       1.235   9.390  17.997  0.00  0.00    +0.000 C 
ATOM     19  O   UNL     1       0.151   9.293  17.463  0.00  0.00    +0.000 OA
BRANCH  18  20
ATOM     20  C   UNL     1       2.091   8.251  18.339  0.00  0.00    +0.000 A 
ATOM     21  C   UNL     1       3.089   7.929  17.414  0.00  0.00    +0.000 A 
ATOM     22  N   UNL     1       3.738   6.856  17.907  0.00  0.00    +0.000 N 
ATOM     23  C   UNL     1       2.778   6.193  18.614  0.00  0.00    +0.000 A 
ATOM     24  C   UNL     1       2.123   7.168  19.346  0.00  0.00    +0.000 A 
ATOM     25  C   UNL     1       1.673   6.709  20.614  0.00  0.00    +0.000 A 
ATOM     26  C   UNL     1       1.803   5.301  20.930  0.00  0.00    +0.000 A 
ATOM     27  C   UNL     1       2.123   4.341  19.915  0.00  0.00    +0.000 A 
ATOM     28  C   UNL     1       2.116   2.920  19.923  0.00  0.00    +0.000 A 
ATOM     29  C   UNL     1       2.259   2.199  18.716  0.00  0.00    +0.000 A 
ATOM     30  C   UNL     1       2.465   2.891  17.536  0.00  0.00    +0.000 A 
ATOM     31  N   UNL     1       2.707   4.199  17.516  0.00  0.00    +0.000 NA
ATOM     32  C   UNL     1       2.529   4.844  18.695  0.00  0.00    +0.000 A 
ATOM     33  H   UNL     1       4.686   6.899  18.260  0.00  0.00    +0.000 HD
ENDBRANCH  18  20
ENDBRANCH  10  18
TORSDOF 3
ENDMDL
MODEL 6
REMARK VINA RESULT:      -7.9      5.883      9.027
REMARK  Name = 
REMARK  4 active torsions:
REMARK  status: ('A' for Active; 'I' for Inactive)
REMARK    1  A    between atoms: C_1  and  C_2
REMARK    2  A    between atoms: C_5  and  C_7
REMARK    3  A    between atoms: C_16  and  C_18
REMARK    4  A    between atoms: C_18  and  C_20
REMARK                            x       y       z     vdW  Elec       q    Type
REMARK                         _______ _______ _______ _____ _____    ______ ____
ROOT
ATOM      1  C   UNL     1      -6.139  14.593  19.424  0.00  0.00    +0.000 C 
ATOM      2  C   UNL     1      -5.549  14.015  20.732  0.00  0.00    +0.000 C 
ATOM      3  C   UNL     1      -4.989  12.616  20.412  0.00  0.00    +0.000 C 
ATOM      4  N   UNL     1      -6.049  11.676  20.002  0.00  0.00    +0.000 N 
ATOM      5  C   UNL     1      -6.041  10.839  18.870  0.00  0.00    +0.000 C 
ATOM      6  O   UNL     1      -6.994  10.111  18.588  0.00  0.00    +0.000 OA
ATOM      7  C   UNL     1      -7.178  11.585  20.959  0.00  0.00    +0.000 C 
ATOM      8  C   UNL     1      -7.660  12.960  21.491  0.00  0.00    +0.000 C 
ATOM      9  N   UNL     1      -6.550  13.891  21.802  0.00  0.00    +0.000 N 
ATOM     10  C   UNL     1      -6.484  14.527  23.070  0.00  0.00    +0.000 C 
ATOM     11  O   UNL     1      -7.353  14.357  23.926  0.00  0.00    +0.000 OA
ENDROOT
BRANCH   5  12
ATOM     12  C   UNL     1      -4.877  10.807  17.900  0.00  0.00    +0.000 A 
ATOM     13  C   UNL     1      -4.831  11.637  16.773  0.00  0.00    +0.000 A 
ATOM     14  C   UNL     1      -3.818  11.485  15.823  0.00  0.00    +0.000 A 
ATOM     15  C   UNL     1      -2.779  10.592  16.052  0.00  0.00    +0.000 A 
ATOM     16  C   UNL     1      -2.751   9.856  17.238  0.00  0.00    +0.000 A 
ATOM     17  C   UNL     1      -3.806   9.957  18.158  0.00  0.00    +0.000 A 
ENDBRANCH   5  12
BRANCH  10  18
ATOM     18  C   UNL     1      -5.342  15.584  23.408  0.00  0.00    +0.000 C 
ATOM     19  O   UNL     1      -5.667  16.670  23.838  0.00  0.00    +0.000 OA
BRANCH  18  20
ATOM     20  C   UNL     1      -3.956  15.158  23.206  0.00  0.00    +0.000 A 
ATOM     21  C   UNL     1      -3.094  16.106  22.645  0.00  0.00    +0.000 A 
ATOM     22  N   UNL     1      -1.891  15.511  22.529  0.00  0.00    +0.000 N 
ATOM     23  C   UNL     1      -2.197  14.196  22.329  0.00  0.00    +0.000 A 
ATOM     24  C   UNL     1      -3.175  13.903  23.263  0.00  0.00    +0.000 A 
ATOM     25  C   UNL     1      -3.101  12.569  23.751  0.00  0.00    +0.000 A 
ATOM     26  C   UNL     1      -2.157  11.657  23.139  0.00  0.00    +0.000 A 
ATOM     27  C   UNL     1      -1.500  11.986  21.908  0.00  0.00    +0.000 A 
ATOM     28  C   UNL     1      -0.704  11.208  21.025  0.00  0.00    +0.000 A 
ATOM     29  C   UNL     1      -0.353  11.710  19.751  0.00  0.00    +0.000 A 
ATOM     30  C   UNL     1      -0.744  12.989  19.397  0.00  0.00    +0.000 A 
ATOM     31  N   UNL     1      -1.288  13.829  20.274  0.00  0.00    +0.000 NA
ATOM     32  C   UNL     1      -1.627  13.289  21.469  0.00  0.00    +0.000 A 
ATOM     33  H   UNL     1      -1.094  15.763  23.099  0.00  0.00    +0.000 HD
ENDBRANCH  18  20
ENDBRANCH  10  18
TORSDOF 3
ENDMDL
MODEL 7
REMARK VINA RESULT:      -7.9      5.863      8.822
REMARK  Name = 
REMARK  4 active torsions:
REMARK  status: ('A' for Active; 'I' for Inactive)
REMARK    1  A    between atoms: C_1  and  C_2
REMARK    2  A    between atoms: C_5  and  C_7
REMARK    3  A    between atoms: C_16  and  C_18
REMARK    4  A    between atoms: C_18  and  C_20
REMARK                            x       y       z     vdW  Elec       q    Type
REMARK                         _______ _______ _______ _____ _____    ______ ____
ROOT
ATOM      1  C   UNL     1      -5.704  14.734  19.449  0.00  0.00    +0.000 C 
ATOM      2  C   UNL     1      -5.120  14.112  20.738  0.00  0.00    +0.000 C 
ATOM      3  C   UNL     1      -4.707  12.665  20.412  0.00  0.00    +0.000 C 
ATOM      4  N   UNL     1      -5.865  11.826  20.052  0.00  0.00    +0.000 N 
ATOM      5  C   UNL     1      -5.979  10.984  18.928  0.00  0.00    +0.000 C 
ATOM      6  O   UNL     1      -7.007  10.347  18.690  0.00  0.00    +0.000 OA
ATOM      7  C   UNL     1      -6.960  11.847  21.052  0.00  0.00    +0.000 C 
ATOM      8  C   UNL     1      -7.289  13.265  21.589  0.00  0.00    +0.000 C 
ATOM      9  N   UNL     1      -6.086  14.089  21.847  0.00  0.00    +0.000 N 
ATOM     10  C   UNL     1      -5.912  14.724  23.105  0.00  0.00    +0.000 C 
ATOM     11  O   UNL     1      -6.758  14.641  23.996  0.00  0.00    +0.000 OA
ENDROOT
BRANCH   5  12
ATOM     12  C   UNL     1      -4.862  10.837  17.914  0.00  0.00    +0.000 A 
ATOM     13  C   UNL     1      -3.828   9.910  18.084  0.00  0.00    +0.000 A 
ATOM     14  C   UNL     1      -2.739   9.895  17.209  0.00  0.00    +0.000 A 
ATOM     15  C   UNL     1      -2.737  10.719  16.089  0.00  0.00    +0.000 A 
ATOM     16  C   UNL     1      -3.830  11.552  15.845  0.00  0.00    +0.000 A 
ATOM     17  C   UNL     1      -4.889  11.618  16.763  0.00  0.00    +0.000 A 
ENDBRANCH   5  12
BRANCH  10  18
ATOM     18  C   UNL     1      -4.663  15.671  23.389  0.00  0.00    +0.000 C 
ATOM     19  O   UNL     1      -4.845  16.869  23.439  0.00  0.00    +0.000 OA
BRANCH  18  20
ATOM     20  C   UNL     1      -3.368  15.023  23.606  0.00  0.00    +0.000 A 
ATOM     21  C   UNL     1      -2.264  15.873  23.722  0.00  0.00    +0.000 A 
ATOM     22  N   UNL     1      -1.186  15.083  23.895  0.00  0.00    +0.000 N 
ATOM     23  C   UNL     1      -1.505  13.946  23.211  0.00  0.00    +0.000 A 
ATOM     24  C   UNL     1      -2.808  13.654  23.575  0.00  0.00    +0.000 A 
ATOM     25  C   UNL     1      -3.075  12.258  23.633  0.00  0.00    +0.000 A 
ATOM     26  C   UNL     1      -2.053  11.337  23.179  0.00  0.00    +0.000 A 
ATOM     27  C   UNL     1      -0.912  11.798  22.445  0.00  0.00    +0.000 A 
ATOM     28  C   UNL     1       0.102  11.099  21.737  0.00  0.00    +0.000 A 
ATOM     29  C   UNL     1       1.002  11.800  20.901  0.00  0.00    +0.000 A 
ATOM     30  C   UNL     1       0.921  13.178  20.826  0.00  0.00    +0.000 A 
ATOM     31  N   UNL     1       0.143  13.886  21.641  0.00  0.00    +0.000 NA
ATOM     32  C   UNL     1      -0.717  13.165  22.401  0.00  0.00    +0.000 A 
ATOM     33  H   UNL     1      -0.682  15.022  24.770  0.00  0.00    +0.000 HD
ENDBRANCH  18  20
ENDBRANCH  10  18
TORSDOF 3
ENDMDL
MODEL 8
REMARK VINA RESULT:      -7.8      2.329      4.037
REMARK  Name = 
REMARK  4 active torsions:
REMARK  status: ('A' for Active; 'I' for Inactive)
REMARK    1  A    between atoms: C_1  and  C_2
REMARK    2  A    between atoms: C_5  and  C_7
REMARK    3  A    between atoms: C_16  and  C_18
REMARK    4  A    between atoms: C_18  and  C_20
REMARK                            x       y       z     vdW  Elec       q    Type
REMARK                         _______ _______ _______ _____ _____    ______ ____
ROOT
ATOM      1  C   UNL     1      -1.838  12.253  18.521  0.00  0.00    +0.000 C 
ATOM      2  C   UNL     1      -0.800  11.407  19.295  0.00  0.00    +0.000 C 
ATOM      3  C   UNL     1      -0.977  11.709  20.794  0.00  0.00    +0.000 C 
ATOM      4  N   UNL     1      -0.668  13.115  21.116  0.00  0.00    +0.000 N 
ATOM      5  C   UNL     1      -1.461  14.002  21.869  0.00  0.00    +0.000 C 
ATOM      6  O   UNL     1      -1.135  15.176  22.054  0.00  0.00    +0.000 OA
ATOM      7  C   UNL     1       0.665  13.563  20.643  0.00  0.00    +0.000 C 
ATOM      8  C   UNL     1       1.001  13.108  19.199  0.00  0.00    +0.000 C 
ATOM      9  N   UNL     1       0.585  11.715  18.910  0.00  0.00    +0.000 N 
ATOM     10  C   UNL     1       1.516  10.790  18.368  0.00  0.00    +0.000 C 
ATOM     11  O   UNL     1       2.669  11.118  18.090  0.00  0.00    +0.000 OA
ENDROOT
BRANCH   5  12
ATOM     12  C   UNL     1      -2.789  13.585  22.468  0.00  0.00    +0.000 A 
ATOM     13  C   UNL     1      -4.009  13.933  21.875  0.00  0.00    +0.000 A 
ATOM     14  C   UNL     1      -5.216  13.659  22.523  0.00  0.00    +0.000 A 
ATOM     15  C   UNL     1      -5.218  12.925  23.703  0.00  0.00    +0.000 A 
ATOM     16  C   UNL     1      -4.011  12.461  24.230  0.00  0.00    +0.000 A 
ATOM     17  C   UNL     1      -2.796  12.799  23.616  0.00  0.00    +0.000 A 
ENDBRANCH   5  12
BRANCH  10  18
ATOM     18  C   UNL     1       1.081   9.307  17.984  0.00  0.00    +0.000 C 
ATOM     19  O   UNL     1       0.024   9.143  17.411  0.00  0.00    +0.000 OA
BRANCH  18  20
ATOM     20  C   UNL     1       2.011   8.228  18.323  0.00  0.00    +0.000 A 
ATOM     21  C   UNL     1       3.032   7.980  17.400  0.00  0.00    +0.000 A 
ATOM     22  N   UNL     1       3.751   6.951  17.889  0.00  0.00    +0.000 N 
ATOM     23  C   UNL     1       2.836   6.220  18.589  0.00  0.00    +0.000 A 
ATOM     24  C   UNL     1       2.114   7.144  19.324  0.00  0.00    +0.000 A 
ATOM     25  C   UNL     1       1.693   6.649  20.589  0.00  0.00    +0.000 A 
ATOM     26  C   UNL     1       1.918   5.251  20.897  0.00  0.00    +0.000 A 
ATOM     27  C   UNL     1       2.306   4.321  19.879  0.00  0.00    +0.000 A 
ATOM     28  C   UNL     1       2.396   2.903  19.879  0.00  0.00    +0.000 A 
ATOM     29  C   UNL     1       2.592   2.200  18.668  0.00  0.00    +0.000 A 
ATOM     30  C   UNL     1       2.754   2.910  17.493  0.00  0.00    +0.000 A 
ATOM     31  N   UNL     1       2.905   4.232  17.481  0.00  0.00    +0.000 NA
ATOM     32  C   UNL     1       2.681   4.857  18.662  0.00  0.00    +0.000 A 
ATOM     33  H   UNL     1       4.692   7.057  18.245  0.00  0.00    +0.000 HD
ENDBRANCH  18  20
ENDBRANCH  10  18
TORSDOF 3
ENDMDL
MODEL 9
REMARK VINA RESULT:      -7.8      5.491      8.148
REMARK  Name = 
REMARK  4 active torsions:
REMARK  status: ('A' for Active; 'I' for Inactive)
REMARK    1  A    between atoms: C_1  and  C_2
REMARK    2  A    between atoms: C_5  and  C_7
REMARK    3  A    between atoms: C_16  and  C_18
REMARK    4  A    between atoms: C_18  and  C_20
REMARK                            x       y       z     vdW  Elec       q    Type
REMARK                         _______ _______ _______ _____ _____    ______ ____
ROOT
ATOM      1  C   UNL     1      -3.279  12.602  23.075  0.00  0.00    +0.000 C 
ATOM      2  C   UNL     1      -4.239  12.797  21.878  0.00  0.00    +0.000 C 
ATOM      3  C   UNL     1      -3.406  13.308  20.689  0.00  0.00    +0.000 C 
ATOM      4  N   UNL     1      -2.822  14.636  20.953  0.00  0.00    +0.000 N 
ATOM      5  C   UNL     1      -1.480  15.019  20.766  0.00  0.00    +0.000 C 
ATOM      6  O   UNL     1      -1.075  16.148  21.051  0.00  0.00    +0.000 OA
ATOM      7  C   UNL     1      -3.810  15.657  21.380  0.00  0.00    +0.000 C 
ATOM      8  C   UNL     1      -4.826  15.141  22.433  0.00  0.00    +0.000 C 
ATOM      9  N   UNL     1      -5.308  13.767  22.159  0.00  0.00    +0.000 N 
ATOM     10  C   UNL     1      -6.701  13.493  22.122  0.00  0.00    +0.000 C 
ATOM     11  O   UNL     1      -7.540  14.365  22.348  0.00  0.00    +0.000 OA
ENDROOT
BRANCH   5  12
ATOM     12  C   UNL     1      -0.433  14.057  20.240  0.00  0.00    +0.000 A 
ATOM     13  C   UNL     1       0.107  14.184  18.955  0.00  0.00    +0.000 A 
ATOM     14  C   UNL     1       0.962  13.203  18.446  0.00  0.00    +0.000 A 
ATOM     15  C   UNL     1       1.381  12.157  19.260  0.00  0.00    +0.000 A 
ATOM     16  C   UNL     1       0.947  12.099  20.586  0.00  0.00    +0.000 A 
ATOM     17  C   UNL     1       0.033  13.045  21.073  0.00  0.00    +0.000 A 
ENDBRANCH   5  12
BRANCH  10  18
ATOM     18  C   UNL     1      -7.248  12.015  21.899  0.00  0.00    +0.000 C 
ATOM     19  O   UNL     1      -7.778  11.446  22.830  0.00  0.00    +0.000 OA
BRANCH  18  20
ATOM     20  C   UNL     1      -7.104  11.443  20.559  0.00  0.00    +0.000 A 
ATOM     21  C   UNL     1      -7.122  10.047  20.477  0.00  0.00    +0.000 A 
ATOM     22  N   UNL     1      -6.956   9.736  19.176  0.00  0.00    +0.000 N 
ATOM     23  C   UNL     1      -6.189  10.756  18.694  0.00  0.00    +0.000 A 
ATOM     24  C   UNL     1      -6.758  11.912  19.199  0.00  0.00    +0.000 A 
ATOM     25  C   UNL     1      -6.660  13.019  18.311  0.00  0.00    +0.000 A 
ATOM     26  C   UNL     1      -5.879  12.871  17.100  0.00  0.00    +0.000 A 
ATOM     27  C   UNL     1      -5.009  11.747  16.912  0.00  0.00    +0.000 A 
ATOM     28  C   UNL     1      -4.017  11.474  15.932  0.00  0.00    +0.000 A 
ATOM     29  C   UNL     1      -3.132  10.384  16.097  0.00  0.00    +0.000 A 
ATOM     30  C   UNL     1      -3.280   9.553  17.192  0.00  0.00    +0.000 A 
ATOM     31  N   UNL     1      -4.331   9.635  18.005  0.00  0.00    +0.000 NA
ATOM     32  C   UNL     1      -5.131  10.713  17.819  0.00  0.00    +0.000 A 
ATOM     33  H   UNL     1      -7.694   9.345  18.605  0.00  0.00    +0.000 HD
ENDBRANCH  18  20
ENDBRANCH  10  18
TORSDOF 3
ENDMDL
