MODEL 1
REMARK VINA RESULT:      -6.7      0.000      0.000
REMARK  Name = 
REMARK  6 active torsions:
REMARK  status: ('A' for Active; 'I' for Inactive)
REMARK    1  A    between atoms: C_1  and  C_2
REMARK    2  A    between atoms: C_2  and  C_3
REMARK    3  A    between atoms: C_2  and  S_8
REMARK    4  A    between atoms: C_3  and  C_4
REMARK    5  A    between atoms: N_6  and  O_7
REMARK    6  A    between atoms: S_8  and  C_11
REMARK                            x       y       z     vdW  Elec       q    Type
REMARK                         _______ _______ _______ _____ _____    ______ ____
ROOT
ATOM      1  C   UNL     1       4.977   6.616  16.735  0.00  0.00    +0.000 C 
ATOM      2  C   UNL     1       5.197   5.141  17.075  0.00  0.00    +0.000 C 
ENDROOT
BRANCH   2   3
ATOM      3  S   UNL     1       4.839   4.830  18.806  0.00  0.00    +0.000 S 
ATOM      4  O   UNL     1       5.857   3.943  19.337  0.00  0.00    +0.000 OA
ATOM      5  O   UNL     1       4.576   6.108  19.445  0.00  0.00    +0.000 OA
BRANCH   3   6
ATOM      6  C   UNL     1       3.316   3.903  18.800  0.00  0.00    +0.000 A 
ATOM      7  C   UNL     1       2.258   4.325  19.608  0.00  0.00    +0.000 A 
ATOM      8  C   UNL     1       1.076   3.584  19.631  0.00  0.00    +0.000 A 
ATOM      9  C   UNL     1       0.951   2.439  18.843  0.00  0.00    +0.000 A 
ATOM     10  C   UNL     1       2.004   2.035  18.019  0.00  0.00    +0.000 A 
ATOM     11  C   UNL     1       3.192   2.769  17.992  0.00  0.00    +0.000 A 
ENDBRANCH   3   6
ENDBRANCH   2   3
BRANCH   2  12
ATOM     12  C   UNL     1       6.639   4.698  16.785  0.00  0.00    +0.000 C 
BRANCH  12  13
ATOM     13  C   UNL     1       6.901   4.579  15.301  0.00  0.00    +0.000 C 
ATOM     14  O   UNL     1       7.657   5.326  14.682  0.00  0.00    +0.000 OA
ATOM     15  N   UNL     1       6.219   3.558  14.689  0.00  0.00    +0.000 N 
ATOM     16  H   UNL     1       5.428   3.068  15.093  0.00  0.00    +0.000 HD
BRANCH  15  17
ATOM     17  O   UNL     1       6.414   3.420  13.297  0.00  0.00    +0.000 OA
ATOM     18  H   UNL     1       6.021   2.538  13.111  0.00  0.00    +0.000 HD
ENDBRANCH  15  17
ENDBRANCH  12  13
ENDBRANCH   2  12
TORSDOF 5
ENDMDL
MODEL 2
REMARK VINA RESULT:      -6.7      0.841      1.647
REMARK  Name = 
REMARK  6 active torsions:
REMARK  status: ('A' for Active; 'I' for Inactive)
REMARK    1  A    between atoms: C_1  and  C_2
REMARK    2  A    between atoms: C_2  and  C_3
REMARK    3  A    between atoms: C_2  and  S_8
REMARK    4  A    between atoms: C_3  and  C_4
REMARK    5  A    between atoms: N_6  and  O_7
REMARK    6  A    between atoms: S_8  and  C_11
REMARK                            x       y       z     vdW  Elec       q    Type
REMARK                         _______ _______ _______ _____ _____    ______ ____
ROOT
ATOM      1  C   UNL     1       4.872   6.411  16.570  0.00  0.00    +0.000 C 
ATOM      2  C   UNL     1       4.874   4.938  16.985  0.00  0.00    +0.000 C 
ENDROOT
BRANCH   2   3
ATOM      3  S   UNL     1       4.744   4.783  18.768  0.00  0.00    +0.000 S 
ATOM      4  O   UNL     1       5.754   3.849  19.226  0.00  0.00    +0.000 OA
ATOM      5  O   UNL     1       4.675   6.121  19.330  0.00  0.00    +0.000 OA
BRANCH   3   6
ATOM      6  C   UNL     1       3.168   3.996  19.045  0.00  0.00    +0.000 A 
ATOM      7  C   UNL     1       2.747   2.989  18.173  0.00  0.00    +0.000 A 
ATOM      8  C   UNL     1       1.500   2.392  18.366  0.00  0.00    +0.000 A 
ATOM      9  C   UNL     1       0.691   2.791  19.430  0.00  0.00    +0.000 A 
ATOM     10  C   UNL     1       1.127   3.782  20.313  0.00  0.00    +0.000 A 
ATOM     11  C   UNL     1       2.371   4.386  20.125  0.00  0.00    +0.000 A 
ENDBRANCH   3   6
ENDBRANCH   2   3
BRANCH   2  12
ATOM     12  C   UNL     1       6.149   4.217  16.522  0.00  0.00    +0.000 C 
BRANCH  12  13
ATOM     13  C   UNL     1       6.492   4.550  15.088  0.00  0.00    +0.000 C 
ATOM     14  O   UNL     1       5.812   4.196  14.126  0.00  0.00    +0.000 OA
ATOM     15  N   UNL     1       7.639   5.288  14.941  0.00  0.00    +0.000 N 
ATOM     16  H   UNL     1       8.344   5.409  15.660  0.00  0.00    +0.000 HD
BRANCH  15  17
ATOM     17  O   UNL     1       8.014   5.606  13.617  0.00  0.00    +0.000 OA
ATOM     18  H   UNL     1       7.714   6.538  13.526  0.00  0.00    +0.000 HD
ENDBRANCH  15  17
ENDBRANCH  12  13
ENDBRANCH   2  12
TORSDOF 5
ENDMDL
MODEL 3
REMARK VINA RESULT:      -6.6      1.723      2.300
REMARK  Name = 
REMARK  6 active torsions:
REMARK  status: ('A' for Active; 'I' for Inactive)
REMARK    1  A    between atoms: C_1  and  C_2
REMARK    2  A    between atoms: C_2  and  C_3
REMARK    3  A    between atoms: C_2  and  S_8
REMARK    4  A    between atoms: C_3  and  C_4
REMARK    5  A    between atoms: N_6  and  O_7
REMARK    6  A    between atoms: S_8  and  C_11
REMARK                            x       y       z     vdW  Elec       q    Type
REMARK                         _______ _______ _______ _____ _____    ______ ____
ROOT
ATOM      1  C   UNL     1       3.258   6.396  18.860  0.00  0.00    +0.000 C 
ATOM      2  C   UNL     1       4.098   5.717  17.775  0.00  0.00    +0.000 C 
ENDROOT
BRANCH   2   3
ATOM      3  S   UNL     1       4.475   4.023  18.234  0.00  0.00    +0.000 S 
ATOM      4  O   UNL     1       4.383   3.192  17.049  0.00  0.00    +0.000 OA
ATOM      5  O   UNL     1       5.691   4.035  19.029  0.00  0.00    +0.000 OA
BRANCH   3   6
ATOM      6  C   UNL     1       3.134   3.528  19.301  0.00  0.00    +0.000 A 
ATOM      7  C   UNL     1       1.861   3.348  18.755  0.00  0.00    +0.000 A 
ATOM      8  C   UNL     1       0.801   2.993  19.591  0.00  0.00    +0.000 A 
ATOM      9  C   UNL     1       1.019   2.807  20.958  0.00  0.00    +0.000 A 
ATOM     10  C   UNL     1       2.299   2.966  21.493  0.00  0.00    +0.000 A 
ATOM     11  C   UNL     1       3.364   3.325  20.665  0.00  0.00    +0.000 A 
ENDBRANCH   3   6
ENDBRANCH   2   3
BRANCH   2  12
ATOM     12  C   UNL     1       5.417   6.463  17.525  0.00  0.00    +0.000 C 
BRANCH  12  13
ATOM     13  C   UNL     1       5.936   6.229  16.124  0.00  0.00    +0.000 C 
ATOM     14  O   UNL     1       5.279   6.455  15.109  0.00  0.00    +0.000 OA
ATOM     15  N   UNL     1       7.215   5.737  16.073  0.00  0.00    +0.000 N 
ATOM     16  H   UNL     1       7.707   5.325  16.859  0.00  0.00    +0.000 HD
BRANCH  15  17
ATOM     17  O   UNL     1       7.737   5.481  14.787  0.00  0.00    +0.000 OA
ATOM     18  H   UNL     1       8.628   5.114  14.985  0.00  0.00    +0.000 HD
ENDBRANCH  15  17
ENDBRANCH  12  13
ENDBRANCH   2  12
TORSDOF 5
ENDMDL
MODEL 4
REMARK VINA RESULT:      -6.6      3.011      5.694
REMARK  Name = 
REMARK  6 active torsions:
REMARK  status: ('A' for Active; 'I' for Inactive)
REMARK    1  A    between atoms: C_1  and  C_2
REMARK    2  A    between atoms: C_2  and  C_3
REMARK    3  A    between atoms: C_2  and  S_8
REMARK    4  A    between atoms: C_3  and  C_4
REMARK    5  A    between atoms: N_6  and  O_7
REMARK    6  A    between atoms: S_8  and  C_11
REMARK                            x       y       z     vdW  Elec       q    Type
REMARK                         _______ _______ _______ _____ _____    ______ ____
ROOT
ATOM      1  C   UNL     1       1.644   4.959  20.279  0.00  0.00    +0.000 C 
ATOM      2  C   UNL     1       2.997   4.496  19.735  0.00  0.00    +0.000 C 
ENDROOT
BRANCH   2   3
ATOM      3  S   UNL     1       3.329   5.250  18.140  0.00  0.00    +0.000 S 
ATOM      4  O   UNL     1       3.253   4.223  17.118  0.00  0.00    +0.000 OA
ATOM      5  O   UNL     1       2.517   6.450  18.035  0.00  0.00    +0.000 OA
BRANCH   3   6
ATOM      6  C   UNL     1       5.037   5.756  18.220  0.00  0.00    +0.000 A 
ATOM      7  C   UNL     1       5.530   6.644  17.260  0.00  0.00    +0.000 A 
ATOM      8  C   UNL     1       6.874   7.017  17.298  0.00  0.00    +0.000 A 
ATOM      9  C   UNL     1       7.712   6.516  18.296  0.00  0.00    +0.000 A 
ATOM     10  C   UNL     1       7.208   5.647  19.266  0.00  0.00    +0.000 A 
ATOM     11  C   UNL     1       5.865   5.266  19.233  0.00  0.00    +0.000 A 
ENDBRANCH   3   6
ENDBRANCH   2   3
BRANCH   2  12
ATOM     12  C   UNL     1       3.057   2.969  19.578  0.00  0.00    +0.000 C 
BRANCH  12  13
ATOM     13  C   UNL     1       3.745   2.311  20.752  0.00  0.00    +0.000 C 
ATOM     14  O   UNL     1       3.240   2.216  21.870  0.00  0.00    +0.000 OA
ATOM     15  N   UNL     1       4.994   1.821  20.469  0.00  0.00    +0.000 N 
ATOM     16  H   UNL     1       5.539   2.067  19.650  0.00  0.00    +0.000 HD
BRANCH  15  17
ATOM     17  O   UNL     1       5.687   1.216  21.540  0.00  0.00    +0.000 OA
ATOM     18  H   UNL     1       6.593   1.586  21.447  0.00  0.00    +0.000 HD
ENDBRANCH  15  17
ENDBRANCH  12  13
ENDBRANCH   2  12
TORSDOF 5
ENDMDL
MODEL 5
REMARK VINA RESULT:      -6.6      2.471      3.031
REMARK  Name = 
REMARK  6 active torsions:
REMARK  status: ('A' for Active; 'I' for Inactive)
REMARK    1  A    between atoms: C_1  and  C_2
REMARK    2  A    between atoms: C_2  and  C_3
REMARK    3  A    between atoms: C_2  and  S_8
REMARK    4  A    between atoms: C_3  and  C_4
REMARK    5  A    between atoms: N_6  and  O_7
REMARK    6  A    between atoms: S_8  and  C_11
REMARK                            x       y       z     vdW  Elec       q    Type
REMARK                         _______ _______ _______ _____ _____    ______ ____
ROOT
ATOM      1  C   UNL     1       5.255   6.113  15.629  0.00  0.00    +0.000 C 
ATOM      2  C   UNL     1       5.638   5.608  17.022  0.00  0.00    +0.000 C 
ENDROOT
BRANCH   2   3
ATOM      3  S   UNL     1       4.303   5.890  18.188  0.00  0.00    +0.000 S 
ATOM      4  O   UNL     1       4.867   5.990  19.520  0.00  0.00    +0.000 OA
ATOM      5  O   UNL     1       3.469   6.957  17.663  0.00  0.00    +0.000 OA
BRANCH   3   6
ATOM      6  C   UNL     1       3.345   4.386  18.158  0.00  0.00    +0.000 A 
ATOM      7  C   UNL     1       1.961   4.458  18.332  0.00  0.00    +0.000 A 
ATOM      8  C   UNL     1       1.210   3.281  18.343  0.00  0.00    +0.000 A 
ATOM      9  C   UNL     1       1.839   2.048  18.168  0.00  0.00    +0.000 A 
ATOM     10  C   UNL     1       3.221   1.985  17.971  0.00  0.00    +0.000 A 
ATOM     11  C   UNL     1       3.980   3.156  17.962  0.00  0.00    +0.000 A 
ENDBRANCH   3   6
ENDBRANCH   2   3
BRANCH   2  12
ATOM     12  C   UNL     1       6.905   6.298  17.550  0.00  0.00    +0.000 C 
BRANCH  12  13
ATOM     13  C   UNL     1       7.665   5.415  18.512  0.00  0.00    +0.000 C 
ATOM     14  O   UNL     1       8.084   4.296  18.222  0.00  0.00    +0.000 OA
ATOM     15  N   UNL     1       7.854   5.967  19.754  0.00  0.00    +0.000 N 
ATOM     16  H   UNL     1       7.345   6.769  20.112  0.00  0.00    +0.000 HD
BRANCH  15  17
ATOM     17  O   UNL     1       8.540   5.171  20.696  0.00  0.00    +0.000 OA
ATOM     18  H   UNL     1       9.448   5.547  20.675  0.00  0.00    +0.000 HD
ENDBRANCH  15  17
ENDBRANCH  12  13
ENDBRANCH   2  12
TORSDOF 5
ENDMDL
MODEL 6
REMARK VINA RESULT:      -6.6      0.531      1.180
REMARK  Name = 
REMARK  6 active torsions:
REMARK  status: ('A' for Active; 'I' for Inactive)
REMARK    1  A    between atoms: C_1  and  C_2
REMARK    2  A    between atoms: C_2  and  C_3
REMARK    3  A    between atoms: C_2  and  S_8
REMARK    4  A    between atoms: C_3  and  C_4
REMARK    5  A    between atoms: N_6  and  O_7
REMARK    6  A    between atoms: S_8  and  C_11
REMARK                            x       y       z     vdW  Elec       q    Type
REMARK                         _______ _______ _______ _____ _____    ______ ____
ROOT
ATOM      1  C   UNL     1       4.980   6.600  16.448  0.00  0.00    +0.000 C 
ATOM      2  C   UNL     1       5.313   5.154  16.820  0.00  0.00    +0.000 C 
ENDROOT
BRANCH   2   3
ATOM      3  S   UNL     1       5.032   4.870  18.569  0.00  0.00    +0.000 S 
ATOM      4  O   UNL     1       6.113   4.050  19.084  0.00  0.00    +0.000 OA
ATOM      5  O   UNL     1       4.726   6.149  19.187  0.00  0.00    +0.000 OA
BRANCH   3   6
ATOM      6  C   UNL     1       3.561   3.866  18.640  0.00  0.00    +0.000 A 
ATOM      7  C   UNL     1       3.686   2.474  18.650  0.00  0.00    +0.000 A 
ATOM      8  C   UNL     1       2.536   1.684  18.672  0.00  0.00    +0.000 A 
ATOM      9  C   UNL     1       1.275   2.282  18.697  0.00  0.00    +0.000 A 
ATOM     10  C   UNL     1       1.157   3.674  18.711  0.00  0.00    +0.000 A 
ATOM     11  C   UNL     1       2.302   4.472  18.686  0.00  0.00    +0.000 A 
ENDBRANCH   3   6
ENDBRANCH   2   3
BRANCH   2  12
ATOM     12  C   UNL     1       6.773   4.803  16.494  0.00  0.00    +0.000 C 
BRANCH  12  13
ATOM     13  C   UNL     1       6.989   4.628  15.008  0.00  0.00    +0.000 C 
ATOM     14  O   UNL     1       7.733   5.345  14.340  0.00  0.00    +0.000 OA
ATOM     15  N   UNL     1       6.280   3.592  14.454  0.00  0.00    +0.000 N 
ATOM     16  H   UNL     1       5.497   3.126  14.900  0.00  0.00    +0.000 HD
BRANCH  15  17
ATOM     17  O   UNL     1       6.432   3.402  13.064  0.00  0.00    +0.000 OA
ATOM     18  H   UNL     1       7.353   3.707  12.903  0.00  0.00    +0.000 HD
ENDBRANCH  15  17
ENDBRANCH  12  13
ENDBRANCH   2  12
TORSDOF 5
ENDMDL
MODEL 7
REMARK VINA RESULT:      -6.6      0.862      1.169
REMARK  Name = 
REMARK  6 active torsions:
REMARK  status: ('A' for Active; 'I' for Inactive)
REMARK    1  A    between atoms: C_1  and  C_2
REMARK    2  A    between atoms: C_2  and  C_3
REMARK    3  A    between atoms: C_2  and  S_8
REMARK    4  A    between atoms: C_3  and  C_4
REMARK    5  A    between atoms: N_6  and  O_7
REMARK    6  A    between atoms: S_8  and  C_11
REMARK                            x       y       z     vdW  Elec       q    Type
REMARK                         _______ _______ _______ _____ _____    ______ ____
ROOT
ATOM      1  C   UNL     1       4.885   6.439  16.533  0.00  0.00    +0.000 C 
ATOM      2  C   UNL     1       4.878   4.979  16.992  0.00  0.00    +0.000 C 
ENDROOT
BRANCH   2   3
ATOM      3  S   UNL     1       4.728   4.879  18.778  0.00  0.00    +0.000 S 
ATOM      4  O   UNL     1       5.736   3.961  19.275  0.00  0.00    +0.000 OA
ATOM      5  O   UNL     1       4.651   6.233  19.298  0.00  0.00    +0.000 OA
BRANCH   3   6
ATOM      6  C   UNL     1       3.151   4.097  19.062  0.00  0.00    +0.000 A 
ATOM      7  C   UNL     1       2.447   4.390  20.233  0.00  0.00    +0.000 A 
ATOM      8  C   UNL     1       1.228   3.756  20.476  0.00  0.00    +0.000 A 
ATOM      9  C   UNL     1       0.714   2.847  19.549  0.00  0.00    +0.000 A 
ATOM     10  C   UNL     1       1.412   2.576  18.369  0.00  0.00    +0.000 A 
ATOM     11  C   UNL     1       2.634   3.203  18.120  0.00  0.00    +0.000 A 
ENDBRANCH   3   6
ENDBRANCH   2   3
BRANCH   2  12
ATOM     12  C   UNL     1       6.154   4.240  16.564  0.00  0.00    +0.000 C 
BRANCH  12  13
ATOM     13  C   UNL     1       6.515   4.531  15.125  0.00  0.00    +0.000 C 
ATOM     14  O   UNL     1       5.879   4.098  14.164  0.00  0.00    +0.000 OA
ATOM     15  N   UNL     1       7.622   5.325  14.971  0.00  0.00    +0.000 N 
ATOM     16  H   UNL     1       8.301   5.516  15.700  0.00  0.00    +0.000 HD
BRANCH  15  17
ATOM     17  O   UNL     1       8.012   5.606  13.644  0.00  0.00    +0.000 OA
ATOM     18  H   UNL     1       8.970   5.384  13.649  0.00  0.00    +0.000 HD
ENDBRANCH  15  17
ENDBRANCH  12  13
ENDBRANCH   2  12
TORSDOF 5
ENDMDL
MODEL 8
REMARK VINA RESULT:      -6.5      1.785      2.447
REMARK  Name = 
REMARK  6 active torsions:
REMARK  status: ('A' for Active; 'I' for Inactive)
REMARK    1  A    between atoms: C_1  and  C_2
REMARK    2  A    between atoms: C_2  and  C_3
REMARK    3  A    between atoms: C_2  and  S_8
REMARK    4  A    between atoms: C_3  and  C_4
REMARK    5  A    between atoms: N_6  and  O_7
REMARK    6  A    between atoms: S_8  and  C_11
REMARK                            x       y       z     vdW  Elec       q    Type
REMARK                         _______ _______ _______ _____ _____    ______ ____
ROOT
ATOM      1  C   UNL     1       3.516   3.137  16.976  0.00  0.00    +0.000 C 
ATOM      2  C   UNL     1       4.729   4.022  17.269  0.00  0.00    +0.000 C 
ENDROOT
BRANCH   2   3
ATOM      3  S   UNL     1       4.371   5.164  18.606  0.00  0.00    +0.000 S 
ATOM      4  O   UNL     1       5.568   5.325  19.409  0.00  0.00    +0.000 OA
ATOM      5  O   UNL     1       3.709   6.326  18.037  0.00  0.00    +0.000 OA
BRANCH   3   6
ATOM      6  C   UNL     1       3.188   4.312  19.632  0.00  0.00    +0.000 A 
ATOM      7  C   UNL     1       1.861   4.750  19.650  0.00  0.00    +0.000 A 
ATOM      8  C   UNL     1       0.938   4.108  20.476  0.00  0.00    +0.000 A 
ATOM      9  C   UNL     1       1.338   3.028  21.265  0.00  0.00    +0.000 A 
ATOM     10  C   UNL     1       2.660   2.579  21.225  0.00  0.00    +0.000 A 
ATOM     11  C   UNL     1       3.591   3.219  20.404  0.00  0.00    +0.000 A 
ENDBRANCH   3   6
ENDBRANCH   2   3
BRANCH   2  12
ATOM     12  C   UNL     1       5.157   4.830  16.034  0.00  0.00    +0.000 C 
BRANCH  12  13
ATOM     13  C   UNL     1       6.549   5.399  16.191  0.00  0.00    +0.000 C 
ATOM     14  O   UNL     1       7.575   4.748  15.997  0.00  0.00    +0.000 OA
ATOM     15  N   UNL     1       6.579   6.716  16.572  0.00  0.00    +0.000 N 
ATOM     16  H   UNL     1       5.790   7.224  16.958  0.00  0.00    +0.000 HD
BRANCH  15  17
ATOM     17  O   UNL     1       7.857   7.287  16.753  0.00  0.00    +0.000 OA
ATOM     18  H   UNL     1       7.836   8.059  16.145  0.00  0.00    +0.000 HD
ENDBRANCH  15  17
ENDBRANCH  12  13
ENDBRANCH   2  12
TORSDOF 5
ENDMDL
MODEL 9
REMARK VINA RESULT:      -6.5      1.198      1.438
REMARK  Name = 
REMARK  6 active torsions:
REMARK  status: ('A' for Active; 'I' for Inactive)
REMARK    1  A    between atoms: C_1  and  C_2
REMARK    2  A    between atoms: C_2  and  C_3
REMARK    3  A    between atoms: C_2  and  S_8
REMARK    4  A    between atoms: C_3  and  C_4
REMARK    5  A    between atoms: N_6  and  O_7
REMARK    6  A    between atoms: S_8  and  C_11
REMARK                            x       y       z     vdW  Elec       q    Type
REMARK                         _______ _______ _______ _____ _____    ______ ____
ROOT
ATOM      1  C   UNL     1       5.169   6.482  15.805  0.00  0.00    +0.000 C 
ATOM      2  C   UNL     1       5.208   5.020  16.255  0.00  0.00    +0.000 C 
ENDROOT
BRANCH   2   3
ATOM      3  S   UNL     1       5.017   4.900  18.035  0.00  0.00    +0.000 S 
ATOM      4  O   UNL     1       6.137   4.150  18.571  0.00  0.00    +0.000 OA
ATOM      5  O   UNL     1       4.714   6.227  18.543  0.00  0.00    +0.000 OA
BRANCH   3   6
ATOM      6  C   UNL     1       3.571   3.884  18.274  0.00  0.00    +0.000 A 
ATOM      7  C   UNL     1       2.308   4.429  18.029  0.00  0.00    +0.000 A 
ATOM      8  C   UNL     1       1.172   3.648  18.245  0.00  0.00    +0.000 A 
ATOM      9  C   UNL     1       1.301   2.331  18.689  0.00  0.00    +0.000 A 
ATOM     10  C   UNL     1       2.567   1.785  18.910  0.00  0.00    +0.000 A 
ATOM     11  C   UNL     1       3.709   2.560  18.699  0.00  0.00    +0.000 A 
ENDBRANCH   3   6
ENDBRANCH   2   3
BRANCH   2  12
ATOM     12  C   UNL     1       6.523   4.335  15.855  0.00  0.00    +0.000 C 
BRANCH  12  13
ATOM     13  C   UNL     1       6.860   4.572  14.401  0.00  0.00    +0.000 C 
ATOM     14  O   UNL     1       6.301   3.993  13.470  0.00  0.00    +0.000 OA
ATOM     15  N   UNL     1       7.853   5.495  14.196  0.00  0.00    +0.000 N 
ATOM     16  H   UNL     1       8.491   5.826  14.913  0.00  0.00    +0.000 HD
BRANCH  15  17
ATOM     17  O   UNL     1       8.219   5.735  12.854  0.00  0.00    +0.000 OA
ATOM     18  H   UNL     1       7.766   6.585  12.656  0.00  0.00    +0.000 HD
ENDBRANCH  15  17
ENDBRANCH  12  13
ENDBRANCH   2  12
TORSDOF 5
ENDMDL
