MODEL 1
REMARK VINA RESULT:      -6.7      0.000      0.000
REMARK  Name = 
REMARK  9 active torsions:
REMARK  status: ('A' for Active; 'I' for Inactive)
REMARK    1  A    between atoms: C_1  and  C_2
REMARK    2  A    between atoms: C_2  and  C_3
REMARK    3  A    between atoms: C_3  and  C_4
REMARK    4  A    between atoms: C_4  and  C_5
REMARK    5  A    between atoms: C_5  and  C_6
REMARK    6  A    between atoms: C_6  and  C_7
REMARK    7  A    between atoms: C_7  and  C_9
REMARK    8  A    between atoms: C_7  and  C_15
REMARK    9  A    between atoms: C_9  and  N_10
REMARK                            x       y       z     vdW  Elec       q    Type
REMARK                         _______ _______ _______ _____ _____    ______ ____
ROOT
ATOM      1  C   UNL     1       3.843   6.098  17.977  0.00  0.00    +0.000 C 
ATOM      2 CL   UNL     1       4.900   5.533  19.364  0.00  0.00    +0.000 Cl
ENDROOT
BRANCH   1   3
ATOM      3  C   UNL     1       2.892   7.141  18.604  0.00  0.00    +0.000 A 
ATOM      4  C   UNL     1       2.427   7.014  19.928  0.00  0.00    +0.000 A 
ATOM      5  C   UNL     1       1.521   7.922  20.478  0.00  0.00    +0.000 A 
ATOM      6  C   UNL     1       1.069   8.996  19.727  0.00  0.00    +0.000 A 
ATOM      7  C   UNL     1       1.556   9.190  18.442  0.00  0.00    +0.000 A 
ATOM      8  C   UNL     1       2.476   8.287  17.897  0.00  0.00    +0.000 A 
ENDBRANCH   1   3
BRANCH   1   9
ATOM      9  C   UNL     1       3.073   4.840  17.441  0.00  0.00    +0.000 C 
BRANCH   9  10
ATOM     10  C   UNL     1       3.500   3.493  18.031  0.00  0.00    +0.000 C 
BRANCH  10  11
ATOM     11  C   UNL     1       2.319   2.657  18.540  0.00  0.00    +0.000 C 
BRANCH  11  12
ATOM     12  C   UNL     1       1.164   3.603  18.878  0.00  0.00    +0.000 C 
BRANCH  12  14
ATOM     13  C   UNL     1       1.688   2.711  21.152  0.00  0.00    +0.000 C 
ATOM     14  C   UNL     1       0.965   3.803  20.375  0.00  0.00    +0.000 C 
ENDBRANCH  12  14
ENDBRANCH  11  12
ENDBRANCH  10  11
ENDBRANCH   9  10
ENDBRANCH   1   9
BRANCH   1  15
ATOM     15  C   UNL     1       4.822   6.688  16.906  0.00  0.00    +0.000 C 
BRANCH  15  16
ATOM     16  N   UNL     1       5.792   5.766  16.337  0.00  0.00    +0.000 N 
ATOM     17  C   UNL     1       5.651   5.083  15.156  0.00  0.00    +0.000 A 
ATOM     18  C   UNL     1       6.764   4.281  15.071  0.00  0.00    +0.000 A 
ATOM     19  N   UNL     1       7.621   4.537  16.106  0.00  0.00    +0.000 NA
ATOM     20  C   UNL     1       7.032   5.468  16.823  0.00  0.00    +0.000 A 
ENDBRANCH  15  16
ENDBRANCH   1  15
TORSDOF 8
ENDMDL
MODEL 2
REMARK VINA RESULT:      -6.7      0.525      1.193
REMARK  Name = 
REMARK  9 active torsions:
REMARK  status: ('A' for Active; 'I' for Inactive)
REMARK    1  A    between atoms: C_1  and  C_2
REMARK    2  A    between atoms: C_2  and  C_3
REMARK    3  A    between atoms: C_3  and  C_4
REMARK    4  A    between atoms: C_4  and  C_5
REMARK    5  A    between atoms: C_5  and  C_6
REMARK    6  A    between atoms: C_6  and  C_7
REMARK    7  A    between atoms: C_7  and  C_9
REMARK    8  A    between atoms: C_7  and  C_15
REMARK    9  A    between atoms: C_9  and  N_10
REMARK                            x       y       z     vdW  Elec       q    Type
REMARK                         _______ _______ _______ _____ _____    ______ ____
ROOT
ATOM      1  C   UNL     1       3.388   6.040  18.116  0.00  0.00    +0.000 C 
ATOM      2 CL   UNL     1       4.488   5.421  19.445  0.00  0.00    +0.000 Cl
ENDROOT
BRANCH   1   3
ATOM      3  C   UNL     1       2.538   7.142  18.785  0.00  0.00    +0.000 A 
ATOM      4  C   UNL     1       2.089   8.267  18.064  0.00  0.00    +0.000 A 
ATOM      5  C   UNL     1       1.371   9.293  18.680  0.00  0.00    +0.000 A 
ATOM      6  C   UNL     1       1.061   9.215  20.029  0.00  0.00    +0.000 A 
ATOM      7  C   UNL     1       1.430   8.091  20.754  0.00  0.00    +0.000 A 
ATOM      8  C   UNL     1       2.137   7.056  20.133  0.00  0.00    +0.000 A 
ENDBRANCH   1   3
BRANCH   1   9
ATOM      9  C   UNL     1       2.514   4.826  17.636  0.00  0.00    +0.000 C 
BRANCH   9  10
ATOM     10  C   UNL     1       3.097   3.435  17.905  0.00  0.00    +0.000 C 
BRANCH  10  11
ATOM     11  C   UNL     1       2.202   2.570  18.801  0.00  0.00    +0.000 C 
BRANCH  11  12
ATOM     12  C   UNL     1       1.054   3.438  19.324  0.00  0.00    +0.000 C 
BRANCH  12  14
ATOM     13  C   UNL     1       2.127   2.755  21.474  0.00  0.00    +0.000 C 
ATOM     14  C   UNL     1       1.134   3.707  20.821  0.00  0.00    +0.000 C 
ENDBRANCH  12  14
ENDBRANCH  11  12
ENDBRANCH  10  11
ENDBRANCH   9  10
ENDBRANCH   1   9
BRANCH   1  15
ATOM     15  C   UNL     1       4.337   6.562  16.984  0.00  0.00    +0.000 C 
BRANCH  15  16
ATOM     16  N   UNL     1       5.520   5.763  16.708  0.00  0.00    +0.000 N 
ATOM     17  C   UNL     1       5.611   4.767  15.770  0.00  0.00    +0.000 A 
ATOM     18  C   UNL     1       6.873   4.245  15.924  0.00  0.00    +0.000 A 
ATOM     19  N   UNL     1       7.581   4.962  16.850  0.00  0.00    +0.000 NA
ATOM     20  C   UNL     1       6.757   5.897  17.268  0.00  0.00    +0.000 A 
ENDBRANCH  15  16
ENDBRANCH   1  15
TORSDOF 8
ENDMDL
MODEL 3
REMARK VINA RESULT:      -6.7      3.086      5.972
REMARK  Name = 
REMARK  9 active torsions:
REMARK  status: ('A' for Active; 'I' for Inactive)
REMARK    1  A    between atoms: C_1  and  C_2
REMARK    2  A    between atoms: C_2  and  C_3
REMARK    3  A    between atoms: C_3  and  C_4
REMARK    4  A    between atoms: C_4  and  C_5
REMARK    5  A    between atoms: C_5  and  C_6
REMARK    6  A    between atoms: C_6  and  C_7
REMARK    7  A    between atoms: C_7  and  C_9
REMARK    8  A    between atoms: C_7  and  C_15
REMARK    9  A    between atoms: C_9  and  N_10
REMARK                            x       y       z     vdW  Elec       q    Type
REMARK                         _______ _______ _______ _____ _____    ______ ____
ROOT
ATOM      1  C   UNL     1       4.521   4.775  17.686  0.00  0.00    +0.000 C 
ATOM      2 CL   UNL     1       3.110   5.927  17.886  0.00  0.00    +0.000 Cl
ENDROOT
BRANCH   1   3
ATOM      3  C   UNL     1       5.775   5.632  17.965  0.00  0.00    +0.000 A 
ATOM      4  C   UNL     1       6.036   6.814  17.243  0.00  0.00    +0.000 A 
ATOM      5  C   UNL     1       7.198   7.559  17.451  0.00  0.00    +0.000 A 
ATOM      6  C   UNL     1       8.122   7.157  18.404  0.00  0.00    +0.000 A 
ATOM      7  C   UNL     1       7.865   6.036  19.180  0.00  0.00    +0.000 A 
ATOM      8  C   UNL     1       6.693   5.298  18.979  0.00  0.00    +0.000 A 
ENDBRANCH   1   3
BRANCH   1   9
ATOM      9  C   UNL     1       4.481   4.248  16.207  0.00  0.00    +0.000 C 
BRANCH   9  10
ATOM     10  C   UNL     1       5.674   3.392  15.771  0.00  0.00    +0.000 C 
BRANCH  10  11
ATOM     11  C   UNL     1       6.623   4.124  14.813  0.00  0.00    +0.000 C 
BRANCH  11  12
ATOM     12  C   UNL     1       5.868   4.420  13.514  0.00  0.00    +0.000 C 
BRANCH  12  14
ATOM     13  C   UNL     1       4.642   3.213  11.702  0.00  0.00    +0.000 C 
ATOM     14  C   UNL     1       5.936   3.283  12.504  0.00  0.00    +0.000 C 
ENDBRANCH  12  14
ENDBRANCH  11  12
ENDBRANCH  10  11
ENDBRANCH   9  10
ENDBRANCH   1   9
BRANCH   1  15
ATOM     15  C   UNL     1       4.286   3.626  18.724  0.00  0.00    +0.000 C 
BRANCH  15  16
ATOM     16  N   UNL     1       2.903   3.266  18.993  0.00  0.00    +0.000 N 
ATOM     17  C   UNL     1       2.110   2.485  18.192  0.00  0.00    +0.000 A 
ATOM     18  C   UNL     1       0.877   2.489  18.799  0.00  0.00    +0.000 A 
ATOM     19  N   UNL     1       0.928   3.157  19.991  0.00  0.00    +0.000 NA
ATOM     20  C   UNL     1       2.171   3.571  20.103  0.00  0.00    +0.000 A 
ENDBRANCH  15  16
ENDBRANCH   1  15
TORSDOF 8
ENDMDL
MODEL 4
REMARK VINA RESULT:      -6.6      1.064      1.326
REMARK  Name = 
REMARK  9 active torsions:
REMARK  status: ('A' for Active; 'I' for Inactive)
REMARK    1  A    between atoms: C_1  and  C_2
REMARK    2  A    between atoms: C_2  and  C_3
REMARK    3  A    between atoms: C_3  and  C_4
REMARK    4  A    between atoms: C_4  and  C_5
REMARK    5  A    between atoms: C_5  and  C_6
REMARK    6  A    between atoms: C_6  and  C_7
REMARK    7  A    between atoms: C_7  and  C_9
REMARK    8  A    between atoms: C_7  and  C_15
REMARK    9  A    between atoms: C_9  and  N_10
REMARK                            x       y       z     vdW  Elec       q    Type
REMARK                         _______ _______ _______ _____ _____    ______ ____
ROOT
ATOM      1  C   UNL     1       3.220   5.490  18.074  0.00  0.00    +0.000 C 
ATOM      2 CL   UNL     1       4.217   4.877  19.484  0.00  0.00    +0.000 Cl
ENDROOT
BRANCH   1   3
ATOM      3  C   UNL     1       2.597   6.812  18.573  0.00  0.00    +0.000 A 
ATOM      4  C   UNL     1       2.162   6.966  19.905  0.00  0.00    +0.000 A 
ATOM      5  C   UNL     1       1.545   8.138  20.344  0.00  0.00    +0.000 A 
ATOM      6  C   UNL     1       1.364   9.199  19.470  0.00  0.00    +0.000 A 
ATOM      7  C   UNL     1       1.840   9.107  18.170  0.00  0.00    +0.000 A 
ATOM      8  C   UNL     1       2.471   7.937  17.735  0.00  0.00    +0.000 A 
ENDBRANCH   1   3
BRANCH   1   9
ATOM      9  C   UNL     1       2.131   4.400  17.769  0.00  0.00    +0.000 C 
BRANCH   9  10
ATOM     10  C   UNL     1       2.612   2.946  17.808  0.00  0.00    +0.000 C 
BRANCH  10  11
ATOM     11  C   UNL     1       2.002   2.140  18.961  0.00  0.00    +0.000 C 
BRANCH  11  12
ATOM     12  C   UNL     1       0.911   2.987  19.622  0.00  0.00    +0.000 C 
BRANCH  12  14
ATOM     13  C   UNL     1       2.480   2.621  21.532  0.00  0.00    +0.000 C 
ATOM     14  C   UNL     1       1.146   3.222  21.108  0.00  0.00    +0.000 C 
ENDBRANCH  12  14
ENDBRANCH  11  12
ENDBRANCH  10  11
ENDBRANCH   9  10
ENDBRANCH   1   9
BRANCH   1  15
ATOM     15  C   UNL     1       4.223   5.664  16.884  0.00  0.00    +0.000 C 
BRANCH  15  16
ATOM     16  N   UNL     1       5.638   5.636  17.219  0.00  0.00    +0.000 N 
ATOM     17  C   UNL     1       6.365   6.690  17.709  0.00  0.00    +0.000 A 
ATOM     18  C   UNL     1       7.656   6.225  17.794  0.00  0.00    +0.000 A 
ATOM     19  N   UNL     1       7.712   4.897  17.471  0.00  0.00    +0.000 NA
ATOM     20  C   UNL     1       6.476   4.560  17.177  0.00  0.00    +0.000 A 
ENDBRANCH  15  16
ENDBRANCH   1  15
TORSDOF 8
ENDMDL
MODEL 5
REMARK VINA RESULT:      -6.5      0.794      1.052
REMARK  Name = 
REMARK  9 active torsions:
REMARK  status: ('A' for Active; 'I' for Inactive)
REMARK    1  A    between atoms: C_1  and  C_2
REMARK    2  A    between atoms: C_2  and  C_3
REMARK    3  A    between atoms: C_3  and  C_4
REMARK    4  A    between atoms: C_4  and  C_5
REMARK    5  A    between atoms: C_5  and  C_6
REMARK    6  A    between atoms: C_6  and  C_7
REMARK    7  A    between atoms: C_7  and  C_9
REMARK    8  A    between atoms: C_7  and  C_15
REMARK    9  A    between atoms: C_9  and  N_10
REMARK                            x       y       z     vdW  Elec       q    Type
REMARK                         _______ _______ _______ _____ _____    ______ ____
ROOT
ATOM      1  C   UNL     1       3.779   6.092  18.155  0.00  0.00    +0.000 C 
ATOM      2 CL   UNL     1       4.390   5.358  19.719  0.00  0.00    +0.000 Cl
ENDROOT
BRANCH   1   3
ATOM      3  C   UNL     1       2.821   7.220  18.594  0.00  0.00    +0.000 A 
ATOM      4  C   UNL     1       2.316   7.289  19.908  0.00  0.00    +0.000 A 
ATOM      5  C   UNL     1       1.403   8.273  20.293  0.00  0.00    +0.000 A 
ATOM      6  C   UNL     1       0.985   9.230  19.381  0.00  0.00    +0.000 A 
ATOM      7  C   UNL     1       1.513   9.233  18.097  0.00  0.00    +0.000 A 
ATOM      8  C   UNL     1       2.438   8.254  17.717  0.00  0.00    +0.000 A 
ENDBRANCH   1   3
BRANCH   1   9
ATOM      9  C   UNL     1       3.034   4.954  17.370  0.00  0.00    +0.000 C 
BRANCH   9  10
ATOM     10  C   UNL     1       1.683   4.519  17.946  0.00  0.00    +0.000 C 
BRANCH  10  11
ATOM     11  C   UNL     1       1.588   3.006  18.181  0.00  0.00    +0.000 C 
BRANCH  11  12
ATOM     12  C   UNL     1       0.864   2.765  19.509  0.00  0.00    +0.000 C 
BRANCH  12  14
ATOM     13  C   UNL     1       2.032   3.369  21.633  0.00  0.00    +0.000 C 
ATOM     14  C   UNL     1       1.102   3.866  20.534  0.00  0.00    +0.000 C 
ENDBRANCH  12  14
ENDBRANCH  11  12
ENDBRANCH  10  11
ENDBRANCH   9  10
ENDBRANCH   1   9
BRANCH   1  15
ATOM     15  C   UNL     1       5.051   6.594  17.391  0.00  0.00    +0.000 C 
BRANCH  15  16
ATOM     16  N   UNL     1       5.676   5.650  16.479  0.00  0.00    +0.000 N 
ATOM     17  C   UNL     1       6.516   4.627  16.837  0.00  0.00    +0.000 A 
ATOM     18  C   UNL     1       6.919   4.062  15.650  0.00  0.00    +0.000 A 
ATOM     19  N   UNL     1       6.267   4.642  14.596  0.00  0.00    +0.000 NA
ATOM     20  C   UNL     1       5.491   5.559  15.130  0.00  0.00    +0.000 A 
ENDBRANCH  15  16
ENDBRANCH   1  15
TORSDOF 8
ENDMDL
MODEL 6
REMARK VINA RESULT:      -6.5      3.031      6.099
REMARK  Name = 
REMARK  9 active torsions:
REMARK  status: ('A' for Active; 'I' for Inactive)
REMARK    1  A    between atoms: C_1  and  C_2
REMARK    2  A    between atoms: C_2  and  C_3
REMARK    3  A    between atoms: C_3  and  C_4
REMARK    4  A    between atoms: C_4  and  C_5
REMARK    5  A    between atoms: C_5  and  C_6
REMARK    6  A    between atoms: C_6  and  C_7
REMARK    7  A    between atoms: C_7  and  C_9
REMARK    8  A    between atoms: C_7  and  C_15
REMARK    9  A    between atoms: C_9  and  N_10
REMARK                            x       y       z     vdW  Elec       q    Type
REMARK                         _______ _______ _______ _____ _____    ______ ____
ROOT
ATOM      1  C   UNL     1       4.356   4.867  18.000  0.00  0.00    +0.000 C 
ATOM      2 CL   UNL     1       2.988   6.050  18.295  0.00  0.00    +0.000 Cl
ENDROOT
BRANCH   1   3
ATOM      3  C   UNL     1       5.643   5.714  18.107  0.00  0.00    +0.000 A 
ATOM      4  C   UNL     1       5.822   6.882  17.338  0.00  0.00    +0.000 A 
ATOM      5  C   UNL     1       7.008   7.617  17.388  0.00  0.00    +0.000 A 
ATOM      6  C   UNL     1       8.040   7.219  18.224  0.00  0.00    +0.000 A 
ATOM      7  C   UNL     1       7.872   6.112  19.043  0.00  0.00    +0.000 A 
ATOM      8  C   UNL     1       6.678   5.384  19.003  0.00  0.00    +0.000 A 
ENDBRANCH   1   3
BRANCH   1   9
ATOM      9  C   UNL     1       4.153   4.276  16.560  0.00  0.00    +0.000 C 
BRANCH   9  10
ATOM     10  C   UNL     1       5.430   3.870  15.818  0.00  0.00    +0.000 C 
BRANCH  10  11
ATOM     11  C   UNL     1       5.575   4.552  14.452  0.00  0.00    +0.000 C 
BRANCH  11  12
ATOM     12  C   UNL     1       6.643   3.806  13.647  0.00  0.00    +0.000 C 
BRANCH  12  14
ATOM     13  C   UNL     1       4.833   3.269  12.010  0.00  0.00    +0.000 C 
ATOM     14  C   UNL     1       6.296   3.662  12.171  0.00  0.00    +0.000 C 
ENDBRANCH  12  14
ENDBRANCH  11  12
ENDBRANCH  10  11
ENDBRANCH   9  10
ENDBRANCH   1   9
BRANCH   1  15
ATOM     15  C   UNL     1       4.219   3.769  19.109  0.00  0.00    +0.000 C 
BRANCH  15  16
ATOM     16  N   UNL     1       2.877   3.514  19.608  0.00  0.00    +0.000 N 
ATOM     17  C   UNL     1       2.398   3.881  20.839  0.00  0.00    +0.000 A 
ATOM     18  C   UNL     1       1.126   3.362  20.897  0.00  0.00    +0.000 A 
ATOM     19  N   UNL     1       0.786   2.788  19.703  0.00  0.00    +0.000 NA
ATOM     20  C   UNL     1       1.840   2.937  18.933  0.00  0.00    +0.000 A 
ENDBRANCH  15  16
ENDBRANCH   1  15
TORSDOF 8
ENDMDL
MODEL 7
REMARK VINA RESULT:      -6.4      2.936      5.918
REMARK  Name = 
REMARK  9 active torsions:
REMARK  status: ('A' for Active; 'I' for Inactive)
REMARK    1  A    between atoms: C_1  and  C_2
REMARK    2  A    between atoms: C_2  and  C_3
REMARK    3  A    between atoms: C_3  and  C_4
REMARK    4  A    between atoms: C_4  and  C_5
REMARK    5  A    between atoms: C_5  and  C_6
REMARK    6  A    between atoms: C_6  and  C_7
REMARK    7  A    between atoms: C_7  and  C_9
REMARK    8  A    between atoms: C_7  and  C_15
REMARK    9  A    between atoms: C_9  and  N_10
REMARK                            x       y       z     vdW  Elec       q    Type
REMARK                         _______ _______ _______ _____ _____    ______ ____
ROOT
ATOM      1  C   UNL     1       5.105   5.503  16.696  0.00  0.00    +0.000 C 
ATOM      2 CL   UNL     1       4.751   6.763  15.413  0.00  0.00    +0.000 Cl
ENDROOT
BRANCH   1   3
ATOM      3  C   UNL     1       6.307   6.067  17.484  0.00  0.00    +0.000 A 
ATOM      4  C   UNL     1       6.940   5.321  18.499  0.00  0.00    +0.000 A 
ATOM      5  C   UNL     1       7.988   5.850  19.253  0.00  0.00    +0.000 A 
ATOM      6  C   UNL     1       8.451   7.132  19.000  0.00  0.00    +0.000 A 
ATOM      7  C   UNL     1       7.896   7.870  17.964  0.00  0.00    +0.000 A 
ATOM      8  C   UNL     1       6.854   7.334  17.199  0.00  0.00    +0.000 A 
ENDBRANCH   1   3
BRANCH   1   9
ATOM      9  C   UNL     1       5.460   4.169  15.948  0.00  0.00    +0.000 C 
BRANCH   9  10
ATOM     10  C   UNL     1       6.271   4.321  14.657  0.00  0.00    +0.000 C 
BRANCH  10  11
ATOM     11  C   UNL     1       5.443   4.060  13.392  0.00  0.00    +0.000 C 
BRANCH  11  12
ATOM     12  C   UNL     1       6.292   3.239  12.418  0.00  0.00    +0.000 C 
BRANCH  12  14
ATOM     13  C   UNL     1       4.101   3.107  11.223  0.00  0.00    +0.000 C 
ATOM     14  C   UNL     1       5.463   2.451  11.412  0.00  0.00    +0.000 C 
ENDBRANCH  12  14
ENDBRANCH  11  12
ENDBRANCH  10  11
ENDBRANCH   9  10
ENDBRANCH   1   9
BRANCH   1  15
ATOM     15  C   UNL     1       3.792   5.371  17.540  0.00  0.00    +0.000 C 
BRANCH  15  16
ATOM     16  N   UNL     1       3.436   4.031  17.980  0.00  0.00    +0.000 N 
ATOM     17  C   UNL     1       3.944   3.389  19.080  0.00  0.00    +0.000 A 
ATOM     18  C   UNL     1       3.387   2.133  19.050  0.00  0.00    +0.000 A 
ATOM     19  N   UNL     1       2.481   2.033  18.030  0.00  0.00    +0.000 NA
ATOM     20  C   UNL     1       2.497   3.205  17.435  0.00  0.00    +0.000 A 
ENDBRANCH  15  16
ENDBRANCH   1  15
TORSDOF 8
ENDMDL
MODEL 8
REMARK VINA RESULT:      -6.4      2.595      5.232
REMARK  Name = 
REMARK  9 active torsions:
REMARK  status: ('A' for Active; 'I' for Inactive)
REMARK    1  A    between atoms: C_1  and  C_2
REMARK    2  A    between atoms: C_2  and  C_3
REMARK    3  A    between atoms: C_3  and  C_4
REMARK    4  A    between atoms: C_4  and  C_5
REMARK    5  A    between atoms: C_5  and  C_6
REMARK    6  A    between atoms: C_6  and  C_7
REMARK    7  A    between atoms: C_7  and  C_9
REMARK    8  A    between atoms: C_7  and  C_15
REMARK    9  A    between atoms: C_9  and  N_10
REMARK                            x       y       z     vdW  Elec       q    Type
REMARK                         _______ _______ _______ _____ _____    ______ ____
ROOT
ATOM      1  C   UNL     1       4.045   4.383  18.205  0.00  0.00    +0.000 C 
ATOM      2 CL   UNL     1       4.499   4.390  16.430  0.00  0.00    +0.000 Cl
ENDROOT
BRANCH   1   3
ATOM      3  C   UNL     1       3.397   5.763  18.454  0.00  0.00    +0.000 A 
ATOM      4  C   UNL     1       2.764   6.071  19.675  0.00  0.00    +0.000 A 
ATOM      5  C   UNL     1       2.126   7.295  19.881  0.00  0.00    +0.000 A 
ATOM      6  C   UNL     1       2.122   8.256  18.882  0.00  0.00    +0.000 A 
ATOM      7  C   UNL     1       2.793   8.012  17.692  0.00  0.00    +0.000 A 
ATOM      8  C   UNL     1       3.444   6.790  17.491  0.00  0.00    +0.000 A 
ENDBRANCH   1   3
BRANCH   1   9
ATOM      9  C   UNL     1       5.373   4.196  19.022  0.00  0.00    +0.000 C 
BRANCH   9  10
ATOM     10  C   UNL     1       6.157   5.476  19.325  0.00  0.00    +0.000 C 
BRANCH  10  11
ATOM     11  C   UNL     1       7.543   5.503  18.669  0.00  0.00    +0.000 C 
BRANCH  11  12
ATOM     12  C   UNL     1       7.421   6.183  17.303  0.00  0.00    +0.000 C 
BRANCH  12  14
ATOM     13  C   UNL     1       8.139   8.506  17.883  0.00  0.00    +0.000 C 
ATOM     14  C   UNL     1       6.986   7.640  17.391  0.00  0.00    +0.000 C 
ENDBRANCH  12  14
ENDBRANCH  11  12
ENDBRANCH  10  11
ENDBRANCH   9  10
ENDBRANCH   1   9
BRANCH   1  15
ATOM     15  C   UNL     1       3.066   3.174  18.392  0.00  0.00    +0.000 C 
BRANCH  15  16
ATOM     16  N   UNL     1       2.599   2.921  19.746  0.00  0.00    +0.000 N 
ATOM     17  C   UNL     1       1.289   2.897  20.149  0.00  0.00    +0.000 A 
ATOM     18  C   UNL     1       1.336   2.706  21.509  0.00  0.00    +0.000 A 
ATOM     19  N   UNL     1       2.625   2.508  21.923  0.00  0.00    +0.000 NA
ATOM     20  C   UNL     1       3.356   2.594  20.834  0.00  0.00    +0.000 A 
ENDBRANCH  15  16
ENDBRANCH   1  15
TORSDOF 8
ENDMDL
MODEL 9
REMARK VINA RESULT:      -6.4      2.939      5.987
REMARK  Name = 
REMARK  9 active torsions:
REMARK  status: ('A' for Active; 'I' for Inactive)
REMARK    1  A    between atoms: C_1  and  C_2
REMARK    2  A    between atoms: C_2  and  C_3
REMARK    3  A    between atoms: C_3  and  C_4
REMARK    4  A    between atoms: C_4  and  C_5
REMARK    5  A    between atoms: C_5  and  C_6
REMARK    6  A    between atoms: C_6  and  C_7
REMARK    7  A    between atoms: C_7  and  C_9
REMARK    8  A    between atoms: C_7  and  C_15
REMARK    9  A    between atoms: C_9  and  N_10
REMARK                            x       y       z     vdW  Elec       q    Type
REMARK                         _______ _______ _______ _____ _____    ______ ____
ROOT
ATOM      1  C   UNL     1       4.515   4.813  17.685  0.00  0.00    +0.000 C 
ATOM      2 CL   UNL     1       3.116   5.987  17.833  0.00  0.00    +0.000 Cl
ENDROOT
BRANCH   1   3
ATOM      3  C   UNL     1       5.780   5.675  17.895  0.00  0.00    +0.000 A 
ATOM      4  C   UNL     1       6.806   5.275  18.775  0.00  0.00    +0.000 A 
ATOM      5  C   UNL     1       7.922   6.080  19.013  0.00  0.00    +0.000 A 
ATOM      6  C   UNL     1       8.055   7.296  18.361  0.00  0.00    +0.000 A 
ATOM      7  C   UNL     1       7.097   7.690  17.438  0.00  0.00    +0.000 A 
ATOM      8  C   UNL     1       5.986   6.877  17.190  0.00  0.00    +0.000 A 
ENDBRANCH   1   3
BRANCH   1   9
ATOM      9  C   UNL     1       4.452   4.197  16.241  0.00  0.00    +0.000 C 
BRANCH   9  10
ATOM     10  C   UNL     1       5.796   3.792  15.628  0.00  0.00    +0.000 C 
BRANCH  10  11
ATOM     11  C   UNL     1       6.047   4.426  14.254  0.00  0.00    +0.000 C 
BRANCH  11  12
ATOM     12  C   UNL     1       6.313   3.308  13.244  0.00  0.00    +0.000 C 
BRANCH  12  14
ATOM     13  C   UNL     1       4.375   3.227  11.668  0.00  0.00    +0.000 C 
ATOM     14  C   UNL     1       5.832   3.639  11.837  0.00  0.00    +0.000 C 
ENDBRANCH  12  14
ENDBRANCH  11  12
ENDBRANCH  10  11
ENDBRANCH   9  10
ENDBRANCH   1   9
BRANCH   1  15
ATOM     15  C   UNL     1       4.286   3.731  18.794  0.00  0.00    +0.000 C 
BRANCH  15  16
ATOM     16  N   UNL     1       2.972   3.707  19.415  0.00  0.00    +0.000 N 
ATOM     17  C   UNL     1       1.920   2.915  19.033  0.00  0.00    +0.000 A 
ATOM     18  C   UNL     1       0.875   3.292  19.843  0.00  0.00    +0.000 A 
ATOM     19  N   UNL     1       1.291   4.208  20.770  0.00  0.00    +0.000 NA
ATOM     20  C   UNL     1       2.567   4.401  20.518  0.00  0.00    +0.000 A 
ENDBRANCH  15  16
ENDBRANCH   1  15
TORSDOF 8
ENDMDL
