MODEL 1
REMARK VINA RESULT:      -7.0      0.000      0.000
REMARK  Name = 
REMARK  6 active torsions:
REMARK  status: ('A' for Active; 'I' for Inactive)
REMARK    1  A    between atoms: C_1  and  C_2
REMARK    2  A    between atoms: C_2  and  N_3
REMARK    3  A    between atoms: C_6  and  C_7
REMARK    4  A    between atoms: C_13  and  C_14
REMARK    5  A    between atoms: C_14  and  O_16
REMARK    6  A    between atoms: O_16  and  C_17
REMARK                            x       y       z     vdW  Elec       q    Type
REMARK                         _______ _______ _______ _____ _____    ______ ____
ROOT
ATOM      1  N   UNL     1       4.494   5.184  18.401  0.00  0.00    +0.000 NA
ATOM      2  C   UNL     1       4.328   3.876  17.742  0.00  0.00    +0.000 C 
ATOM      3  C   UNL     1       4.933   3.738  16.375  0.00  0.00    +0.000 C 
ATOM      4  C   UNL     1       5.593   4.728  15.747  0.00  0.00    +0.000 C 
ATOM      5  C   UNL     1       5.782   6.065  16.417  0.00  0.00    +0.000 C 
ATOM      6  C   UNL     1       4.646   6.294  17.439  0.00  0.00    +0.000 C 
ENDROOT
BRANCH   4   7
ATOM      7  C   UNL     1       6.075   4.523  14.375  0.00  0.00    +0.000 A 
ATOM      8  C   UNL     1       5.422   3.622  13.524  0.00  0.00    +0.000 A 
ATOM      9  C   UNL     1       5.924   3.366  12.244  0.00  0.00    +0.000 A 
ATOM     10  C   UNL     1       7.079   4.013  11.806  0.00  0.00    +0.000 A 
ATOM     11  C   UNL     1       7.731   4.915  12.646  0.00  0.00    +0.000 A 
ATOM     12  C   UNL     1       7.233   5.165  13.926  0.00  0.00    +0.000 A 
ENDBRANCH   4   7
BRANCH   1  14
ATOM     13  C   UNL     1       2.029   5.024  18.819  0.00  0.00    +0.000 C 
ATOM     14  C   UNL     1       3.395   5.461  19.341  0.00  0.00    +0.000 C 
ENDBRANCH   1  14
BRANCH   5  15
ATOM     15  C   UNL     1       7.151   6.151  17.096  0.00  0.00    +0.000 C 
ATOM     16  O   UNL     1       7.636   5.319  17.854  0.00  0.00    +0.000 OA
BRANCH  15  17
ATOM     17  O   UNL     1       7.820   7.273  16.684  0.00  0.00    +0.000 OA
ATOM     18  C   UNL     1       7.887   8.295  17.678  0.00  0.00    +0.000 C 
ENDBRANCH  15  17
ENDBRANCH   5  15
TORSDOF 4
ENDMDL
MODEL 2
REMARK VINA RESULT:      -7.0      0.419      1.238
REMARK  Name = 
REMARK  6 active torsions:
REMARK  status: ('A' for Active; 'I' for Inactive)
REMARK    1  A    between atoms: C_1  and  C_2
REMARK    2  A    between atoms: C_2  and  N_3
REMARK    3  A    between atoms: C_6  and  C_7
REMARK    4  A    between atoms: C_13  and  C_14
REMARK    5  A    between atoms: C_14  and  O_16
REMARK    6  A    between atoms: O_16  and  C_17
REMARK                            x       y       z     vdW  Elec       q    Type
REMARK                         _______ _______ _______ _____ _____    ______ ____
ROOT
ATOM      1  N   UNL     1       4.483   5.324  18.429  0.00  0.00    +0.000 NA
ATOM      2  C   UNL     1       4.328   3.989  17.824  0.00  0.00    +0.000 C 
ATOM      3  C   UNL     1       4.972   3.788  16.483  0.00  0.00    +0.000 C 
ATOM      4  C   UNL     1       5.657   4.746  15.831  0.00  0.00    +0.000 C 
ATOM      5  C   UNL     1       5.834   6.110  16.447  0.00  0.00    +0.000 C 
ATOM      6  C   UNL     1       4.670   6.391  17.424  0.00  0.00    +0.000 C 
ENDROOT
BRANCH   4   7
ATOM      7  C   UNL     1       6.177   4.478  14.485  0.00  0.00    +0.000 A 
ATOM      8  C   UNL     1       7.303   5.166  14.012  0.00  0.00    +0.000 A 
ATOM      9  C   UNL     1       7.754   4.970  12.704  0.00  0.00    +0.000 A 
ATOM     10  C   UNL     1       7.085   4.083  11.861  0.00  0.00    +0.000 A 
ATOM     11  C   UNL     1       5.968   3.391  12.326  0.00  0.00    +0.000 A 
ATOM     12  C   UNL     1       5.514   3.591  13.631  0.00  0.00    +0.000 A 
ENDBRANCH   4   7
BRANCH   1  14
ATOM     13  C   UNL     1       2.632   6.934  18.937  0.00  0.00    +0.000 C 
ATOM     14  C   UNL     1       3.358   5.649  19.323  0.00  0.00    +0.000 C 
ENDBRANCH   1  14
BRANCH   5  15
ATOM     15  C   UNL     1       7.183   6.220  17.162  0.00  0.00    +0.000 C 
ATOM     16  O   UNL     1       7.651   5.408  17.952  0.00  0.00    +0.000 OA
BRANCH  15  17
ATOM     17  O   UNL     1       7.857   7.336  16.743  0.00  0.00    +0.000 OA
ATOM     18  C   UNL     1       7.894   8.379  17.716  0.00  0.00    +0.000 C 
ENDBRANCH  15  17
ENDBRANCH   5  15
TORSDOF 4
ENDMDL
MODEL 3
REMARK VINA RESULT:      -7.0      1.912      5.126
REMARK  Name = 
REMARK  6 active torsions:
REMARK  status: ('A' for Active; 'I' for Inactive)
REMARK    1  A    between atoms: C_1  and  C_2
REMARK    2  A    between atoms: C_2  and  N_3
REMARK    3  A    between atoms: C_6  and  C_7
REMARK    4  A    between atoms: C_13  and  C_14
REMARK    5  A    between atoms: C_14  and  O_16
REMARK    6  A    between atoms: O_16  and  C_17
REMARK                            x       y       z     vdW  Elec       q    Type
REMARK                         _______ _______ _______ _____ _____    ______ ____
ROOT
ATOM      1  N   UNL     1       7.432   6.439  18.027  0.00  0.00    +0.000 NA
ATOM      2  C   UNL     1       7.146   5.642  19.233  0.00  0.00    +0.000 C 
ATOM      3  C   UNL     1       5.854   4.877  19.233  0.00  0.00    +0.000 C 
ATOM      4  C   UNL     1       4.975   4.894  18.214  0.00  0.00    +0.000 C 
ATOM      5  C   UNL     1       5.265   5.694  16.969  0.00  0.00    +0.000 C 
ATOM      6  C   UNL     1       6.209   6.867  17.318  0.00  0.00    +0.000 C 
ENDROOT
BRANCH   4   7
ATOM      7  C   UNL     1       3.699   4.181  18.344  0.00  0.00    +0.000 A 
ATOM      8  C   UNL     1       3.655   2.912  18.938  0.00  0.00    +0.000 A 
ATOM      9  C   UNL     1       2.455   2.197  18.993  0.00  0.00    +0.000 A 
ATOM     10  C   UNL     1       1.290   2.748  18.459  0.00  0.00    +0.000 A 
ATOM     11  C   UNL     1       1.325   4.012  17.872  0.00  0.00    +0.000 A 
ATOM     12  C   UNL     1       2.525   4.723  17.811  0.00  0.00    +0.000 A 
ENDBRANCH   4   7
BRANCH   1  14
ATOM     13  C   UNL     1       7.800   8.893  17.682  0.00  0.00    +0.000 C 
ATOM     14  C   UNL     1       8.284   7.601  18.334  0.00  0.00    +0.000 C 
ENDBRANCH   1  14
BRANCH   5  15
ATOM     15  C   UNL     1       5.874   4.810  15.878  0.00  0.00    +0.000 C 
ATOM     16  O   UNL     1       5.829   3.587  15.828  0.00  0.00    +0.000 OA
BRANCH  15  17
ATOM     17  O   UNL     1       6.432   5.583  14.895  0.00  0.00    +0.000 OA
ATOM     18  C   UNL     1       7.055   4.824  13.858  0.00  0.00    +0.000 C 
ENDBRANCH  15  17
ENDBRANCH   5  15
TORSDOF 4
ENDMDL
MODEL 4
REMARK VINA RESULT:      -7.0      1.868      4.920
REMARK  Name = 
REMARK  6 active torsions:
REMARK  status: ('A' for Active; 'I' for Inactive)
REMARK    1  A    between atoms: C_1  and  C_2
REMARK    2  A    between atoms: C_2  and  N_3
REMARK    3  A    between atoms: C_6  and  C_7
REMARK    4  A    between atoms: C_13  and  C_14
REMARK    5  A    between atoms: C_14  and  O_16
REMARK    6  A    between atoms: O_16  and  C_17
REMARK                            x       y       z     vdW  Elec       q    Type
REMARK                         _______ _______ _______ _____ _____    ______ ____
ROOT
ATOM      1  N   UNL     1       7.832   6.822  18.238  0.00  0.00    +0.000 NA
ATOM      2  C   UNL     1       7.369   5.995  19.366  0.00  0.00    +0.000 C 
ATOM      3  C   UNL     1       6.138   5.171  19.125  0.00  0.00    +0.000 C 
ATOM      4  C   UNL     1       5.460   5.162  17.963  0.00  0.00    +0.000 C 
ATOM      5  C   UNL     1       5.932   5.992  16.797  0.00  0.00    +0.000 C 
ATOM      6  C   UNL     1       6.739   7.202  17.320  0.00  0.00    +0.000 C 
ENDROOT
BRANCH   4   7
ATOM      7  C   UNL     1       4.217   4.388  17.854  0.00  0.00    +0.000 A 
ATOM      8  C   UNL     1       2.981   5.044  17.766  0.00  0.00    +0.000 A 
ATOM      9  C   UNL     1       1.791   4.311  17.741  0.00  0.00    +0.000 A 
ATOM     10  C   UNL     1       1.828   2.918  17.798  0.00  0.00    +0.000 A 
ATOM     11  C   UNL     1       3.055   2.259  17.879  0.00  0.00    +0.000 A 
ATOM     12  C   UNL     1       4.242   2.991  17.912  0.00  0.00    +0.000 A 
ENDBRANCH   4   7
BRANCH   1  14
ATOM     13  C   UNL     1       8.202   9.279  17.921  0.00  0.00    +0.000 C 
ATOM     14  C   UNL     1       8.556   8.017  18.702  0.00  0.00    +0.000 C 
ENDBRANCH   1  14
BRANCH   5  15
ATOM     15  C   UNL     1       6.772   5.154  15.831  0.00  0.00    +0.000 C 
ATOM     16  O   UNL     1       7.697   4.410  16.134  0.00  0.00    +0.000 OA
BRANCH  15  17
ATOM     17  O   UNL     1       6.303   5.287  14.551  0.00  0.00    +0.000 OA
ATOM     18  C   UNL     1       5.921   4.049  13.951  0.00  0.00    +0.000 C 
ENDBRANCH  15  17
ENDBRANCH   5  15
TORSDOF 4
ENDMDL
MODEL 5
REMARK VINA RESULT:      -6.9      1.011      1.555
REMARK  Name = 
REMARK  6 active torsions:
REMARK  status: ('A' for Active; 'I' for Inactive)
REMARK    1  A    between atoms: C_1  and  C_2
REMARK    2  A    between atoms: C_2  and  N_3
REMARK    3  A    between atoms: C_6  and  C_7
REMARK    4  A    between atoms: C_13  and  C_14
REMARK    5  A    between atoms: C_14  and  O_16
REMARK    6  A    between atoms: O_16  and  C_17
REMARK                            x       y       z     vdW  Elec       q    Type
REMARK                         _______ _______ _______ _____ _____    ______ ____
ROOT
ATOM      1  N   UNL     1       4.369   5.359  18.294  0.00  0.00    +0.000 NA
ATOM      2  C   UNL     1       3.847   4.257  17.465  0.00  0.00    +0.000 C 
ATOM      3  C   UNL     1       4.549   4.018  16.160  0.00  0.00    +0.000 C 
ATOM      4  C   UNL     1       5.595   4.746  15.728  0.00  0.00    +0.000 C 
ATOM      5  C   UNL     1       6.146   5.866  16.574  0.00  0.00    +0.000 C 
ATOM      6  C   UNL     1       5.032   6.411  17.497  0.00  0.00    +0.000 C 
ENDROOT
BRANCH   4   7
ATOM      7  C   UNL     1       6.159   4.490  14.398  0.00  0.00    +0.000 A 
ATOM      8  C   UNL     1       7.269   5.218  13.948  0.00  0.00    +0.000 A 
ATOM      9  C   UNL     1       7.760   5.031  12.653  0.00  0.00    +0.000 A 
ATOM     10  C   UNL     1       7.148   4.113  11.800  0.00  0.00    +0.000 A 
ATOM     11  C   UNL     1       6.047   3.381  12.243  0.00  0.00    +0.000 A 
ATOM     12  C   UNL     1       5.553   3.572  13.534  0.00  0.00    +0.000 A 
ENDBRANCH   4   7
BRANCH   1  14
ATOM     13  C   UNL     1       2.771   4.966  20.183  0.00  0.00    +0.000 C 
ATOM     14  C   UNL     1       3.318   5.942  19.145  0.00  0.00    +0.000 C 
ENDBRANCH   1  14
BRANCH   5  15
ATOM     15  C   UNL     1       7.350   5.394  17.394  0.00  0.00    +0.000 C 
ATOM     16  O   UNL     1       8.005   4.377  17.197  0.00  0.00    +0.000 OA
BRANCH  15  17
ATOM     17  O   UNL     1       7.659   6.313  18.361  0.00  0.00    +0.000 OA
ATOM     18  C   UNL     1       7.948   5.730  19.631  0.00  0.00    +0.000 C 
ENDBRANCH  15  17
ENDBRANCH   5  15
TORSDOF 4
ENDMDL
MODEL 6
REMARK VINA RESULT:      -6.8      0.832      1.684
REMARK  Name = 
REMARK  6 active torsions:
REMARK  status: ('A' for Active; 'I' for Inactive)
REMARK    1  A    between atoms: C_1  and  C_2
REMARK    2  A    between atoms: C_2  and  N_3
REMARK    3  A    between atoms: C_6  and  C_7
REMARK    4  A    between atoms: C_13  and  C_14
REMARK    5  A    between atoms: C_14  and  O_16
REMARK    6  A    between atoms: O_16  and  C_17
REMARK                            x       y       z     vdW  Elec       q    Type
REMARK                         _______ _______ _______ _____ _____    ______ ____
ROOT
ATOM      1  N   UNL     1       4.251   5.770  18.277  0.00  0.00    +0.000 NA
ATOM      2  C   UNL     1       4.146   4.383  17.793  0.00  0.00    +0.000 C 
ATOM      3  C   UNL     1       4.837   4.078  16.495  0.00  0.00    +0.000 C 
ATOM      4  C   UNL     1       5.518   4.990  15.779  0.00  0.00    +0.000 C 
ATOM      5  C   UNL     1       5.645   6.409  16.272  0.00  0.00    +0.000 C 
ATOM      6  C   UNL     1       4.444   6.746  17.186  0.00  0.00    +0.000 C 
ENDROOT
BRANCH   4   7
ATOM      7  C   UNL     1       6.086   4.615  14.478  0.00  0.00    +0.000 A 
ATOM      8  C   UNL     1       7.256   5.232  14.013  0.00  0.00    +0.000 A 
ATOM      9  C   UNL     1       7.756   4.934  12.742  0.00  0.00    +0.000 A 
ATOM     10  C   UNL     1       7.093   4.015  11.929  0.00  0.00    +0.000 A 
ATOM     11  C   UNL     1       5.932   3.393  12.388  0.00  0.00    +0.000 A 
ATOM     12  C   UNL     1       5.429   3.696  13.655  0.00  0.00    +0.000 A 
ENDBRANCH   4   7
BRANCH   1  14
ATOM     13  C   UNL     1       2.404   7.424  18.638  0.00  0.00    +0.000 C 
ATOM     14  C   UNL     1       3.092   6.145  19.105  0.00  0.00    +0.000 C 
ENDBRANCH   1  14
BRANCH   5  15
ATOM     15  C   UNL     1       6.968   6.617  17.013  0.00  0.00    +0.000 C 
ATOM     16  O   UNL     1       7.570   7.678  17.134  0.00  0.00    +0.000 OA
BRANCH  15  17
ATOM     17  O   UNL     1       7.373   5.450  17.604  0.00  0.00    +0.000 OA
ATOM     18  C   UNL     1       7.734   5.601  18.977  0.00  0.00    +0.000 C 
ENDBRANCH  15  17
ENDBRANCH   5  15
TORSDOF 4
ENDMDL
MODEL 7
REMARK VINA RESULT:      -6.8      0.559      1.056
REMARK  Name = 
REMARK  6 active torsions:
REMARK  status: ('A' for Active; 'I' for Inactive)
REMARK    1  A    between atoms: C_1  and  C_2
REMARK    2  A    between atoms: C_2  and  N_3
REMARK    3  A    between atoms: C_6  and  C_7
REMARK    4  A    between atoms: C_13  and  C_14
REMARK    5  A    between atoms: C_14  and  O_16
REMARK    6  A    between atoms: O_16  and  C_17
REMARK                            x       y       z     vdW  Elec       q    Type
REMARK                         _______ _______ _______ _____ _____    ______ ____
ROOT
ATOM      1  N   UNL     1       4.449   5.387  18.413  0.00  0.00    +0.000 NA
ATOM      2  C   UNL     1       4.446   4.016  17.872  0.00  0.00    +0.000 C 
ATOM      3  C   UNL     1       5.052   3.838  16.510  0.00  0.00    +0.000 C 
ATOM      4  C   UNL     1       5.574   4.845  15.786  0.00  0.00    +0.000 C 
ATOM      5  C   UNL     1       5.596   6.248  16.336  0.00  0.00    +0.000 C 
ATOM      6  C   UNL     1       4.448   6.420  17.357  0.00  0.00    +0.000 C 
ENDROOT
BRANCH   4   7
ATOM      7  C   UNL     1       6.065   4.584  14.428  0.00  0.00    +0.000 A 
ATOM      8  C   UNL     1       5.368   3.715  13.578  0.00  0.00    +0.000 A 
ATOM      9  C   UNL     1       5.874   3.403  12.313  0.00  0.00    +0.000 A 
ATOM     10  C   UNL     1       7.079   3.962  11.888  0.00  0.00    +0.000 A 
ATOM     11  C   UNL     1       7.776   4.832  12.726  0.00  0.00    +0.000 A 
ATOM     12  C   UNL     1       7.273   5.137  13.992  0.00  0.00    +0.000 A 
ENDBRANCH   4   7
BRANCH   1  14
ATOM     13  C   UNL     1       1.999   5.067  18.832  0.00  0.00    +0.000 C 
ATOM     14  C   UNL     1       3.331   5.604  19.348  0.00  0.00    +0.000 C 
ENDBRANCH   1  14
BRANCH   5  15
ATOM     15  C   UNL     1       6.948   6.566  16.978  0.00  0.00    +0.000 C 
ATOM     16  O   UNL     1       7.444   7.680  17.108  0.00  0.00    +0.000 OA
BRANCH  15  17
ATOM     17  O   UNL     1       7.524   5.425  17.470  0.00  0.00    +0.000 OA
ATOM     18  C   UNL     1       7.851   5.503  18.857  0.00  0.00    +0.000 C 
ENDBRANCH  15  17
ENDBRANCH   5  15
TORSDOF 4
ENDMDL
MODEL 8
REMARK VINA RESULT:      -6.8      2.449      6.198
REMARK  Name = 
REMARK  6 active torsions:
REMARK  status: ('A' for Active; 'I' for Inactive)
REMARK    1  A    between atoms: C_1  and  C_2
REMARK    2  A    between atoms: C_2  and  N_3
REMARK    3  A    between atoms: C_6  and  C_7
REMARK    4  A    between atoms: C_13  and  C_14
REMARK    5  A    between atoms: C_14  and  O_16
REMARK    6  A    between atoms: O_16  and  C_17
REMARK                            x       y       z     vdW  Elec       q    Type
REMARK                         _______ _______ _______ _____ _____    ______ ____
ROOT
ATOM      1  N   UNL     1       5.609   4.488  16.235  0.00  0.00    +0.000 NA
ATOM      2  C   UNL     1       5.624   5.931  15.938  0.00  0.00    +0.000 C 
ATOM      3  C   UNL     1       4.679   6.783  16.735  0.00  0.00    +0.000 C 
ATOM      4  C   UNL     1       3.845   6.298  17.673  0.00  0.00    +0.000 C 
ATOM      5  C   UNL     1       3.832   4.826  17.995  0.00  0.00    +0.000 C 
ATOM      6  C   UNL     1       4.310   4.024  16.763  0.00  0.00    +0.000 C 
ENDROOT
BRANCH   4   7
ATOM      7  C   UNL     1       2.898   7.201  18.338  0.00  0.00    +0.000 A 
ATOM      8  C   UNL     1       2.477   8.378  17.703  0.00  0.00    +0.000 A 
ATOM      9  C   UNL     1       1.637   9.277  18.365  0.00  0.00    +0.000 A 
ATOM     10  C   UNL     1       1.208   9.005  19.664  0.00  0.00    +0.000 A 
ATOM     11  C   UNL     1       1.618   7.834  20.300  0.00  0.00    +0.000 A 
ATOM     12  C   UNL     1       2.463   6.938  19.641  0.00  0.00    +0.000 A 
ENDBRANCH   4   7
BRANCH   1  14
ATOM     13  C   UNL     1       6.622   4.522  13.943  0.00  0.00    +0.000 C 
ATOM     14  C   UNL     1       6.004   3.688  15.062  0.00  0.00    +0.000 C 
ENDBRANCH   1  14
BRANCH   5  15
ATOM     15  C   UNL     1       4.706   4.523  19.215  0.00  0.00    +0.000 C 
ATOM     16  O   UNL     1       5.570   5.254  19.686  0.00  0.00    +0.000 OA
BRANCH  15  17
ATOM     17  O   UNL     1       4.344   3.327  19.777  0.00  0.00    +0.000 OA
ATOM     18  C   UNL     1       2.959   3.251  20.115  0.00  0.00    +0.000 C 
ENDBRANCH  15  17
ENDBRANCH   5  15
TORSDOF 4
ENDMDL
MODEL 9
REMARK VINA RESULT:      -6.7      0.987      1.014
REMARK  Name = 
REMARK  6 active torsions:
REMARK  status: ('A' for Active; 'I' for Inactive)
REMARK    1  A    between atoms: C_1  and  C_2
REMARK    2  A    between atoms: C_2  and  N_3
REMARK    3  A    between atoms: C_6  and  C_7
REMARK    4  A    between atoms: C_13  and  C_14
REMARK    5  A    between atoms: C_14  and  O_16
REMARK    6  A    between atoms: O_16  and  C_17
REMARK                            x       y       z     vdW  Elec       q    Type
REMARK                         _______ _______ _______ _____ _____    ______ ____
ROOT
ATOM      1  N   UNL     1       4.247   4.753  18.355  0.00  0.00    +0.000 NA
ATOM      2  C   UNL     1       3.902   3.629  17.467  0.00  0.00    +0.000 C 
ATOM      3  C   UNL     1       4.605   3.591  16.140  0.00  0.00    +0.000 C 
ATOM      4  C   UNL     1       5.500   4.512  15.742  0.00  0.00    +0.000 C 
ATOM      5  C   UNL     1       5.871   5.658  16.648  0.00  0.00    +0.000 C 
ATOM      6  C   UNL     1       4.702   5.949  17.617  0.00  0.00    +0.000 C 
ENDROOT
BRANCH   4   7
ATOM      7  C   UNL     1       6.070   4.435  14.391  0.00  0.00    +0.000 A 
ATOM      8  C   UNL     1       5.569   3.509  13.465  0.00  0.00    +0.000 A 
ATOM      9  C   UNL     1       6.160   3.379  12.205  0.00  0.00    +0.000 A 
ATOM     10  C   UNL     1       7.252   4.176  11.860  0.00  0.00    +0.000 A 
ATOM     11  C   UNL     1       7.751   5.103  12.775  0.00  0.00    +0.000 A 
ATOM     12  C   UNL     1       7.165   5.228  14.035  0.00  0.00    +0.000 A 
ENDBRANCH   4   7
BRANCH   1  14
ATOM     13  C   UNL     1       1.806   4.464  18.840  0.00  0.00    +0.000 C 
ATOM     14  C   UNL     1       3.131   5.096  19.254  0.00  0.00    +0.000 C 
ENDBRANCH   1  14
BRANCH   5  15
ATOM     15  C   UNL     1       7.156   5.353  17.422  0.00  0.00    +0.000 C 
ATOM     16  O   UNL     1       7.959   4.462  17.169  0.00  0.00    +0.000 OA
BRANCH  15  17
ATOM     17  O   UNL     1       7.343   6.272  18.420  0.00  0.00    +0.000 OA
ATOM     18  C   UNL     1       7.965   5.731  19.585  0.00  0.00    +0.000 C 
ENDBRANCH  15  17
ENDBRANCH   5  15
TORSDOF 4
ENDMDL
