MODEL 1
REMARK VINA RESULT:      -7.8      0.000      0.000
REMARK  Name = 
REMARK  8 active torsions:
REMARK  status: ('A' for Active; 'I' for Inactive)
REMARK    1  A    between atoms: C_1  and  O_2
REMARK    2  A    between atoms: O_2  and  C_3
REMARK    3  A    between atoms: C_7  and  N_8
REMARK    4  A    between atoms: C_9  and  C_11
REMARK    5  A    between atoms: C_11  and  C_12
REMARK    6  A    between atoms: C_11  and  S_13
REMARK    7  A    between atoms: S_13  and  C_14
REMARK    8  A    between atoms: C_14  and  C_15
REMARK                            x       y       z     vdW  Elec       q    Type
REMARK                         _______ _______ _______ _____ _____    ______ ____
ROOT
ATOM      1  N   UNL     1       6.129   4.899  15.889  0.00  0.00    +0.000 N 
ATOM      2  C   UNL     1       6.938   4.643  16.985  0.00  0.00    +0.000 C 
ATOM      3  O   UNL     1       8.079   4.183  16.946  0.00  0.00    +0.000 OA
ATOM      4  H   UNL     1       5.154   5.094  16.096  0.00  0.00    +0.000 HD
ENDROOT
BRANCH   1   9
ATOM      5  C   UNL     1       6.006   3.508  12.459  0.00  0.00    +0.000 A 
ATOM      6  C   UNL     1       7.103   4.136  11.866  0.00  0.00    +0.000 A 
ATOM      7  C   UNL     1       7.860   5.055  12.585  0.00  0.00    +0.000 A 
ATOM      8  C   UNL     1       7.541   5.332  13.911  0.00  0.00    +0.000 A 
ATOM      9  C   UNL     1       6.464   4.694  14.533  0.00  0.00    +0.000 A 
ATOM     10  C   UNL     1       5.681   3.800  13.788  0.00  0.00    +0.000 A 
BRANCH   5  12
ATOM     11  C   UNL     1       4.075   3.006  11.159  0.00  0.00    +0.000 C 
ATOM     12  O   UNL     1       5.356   2.624  11.640  0.00  0.00    +0.000 OA
ENDBRANCH   5  12
ENDBRANCH   1   9
BRANCH   2  13
ATOM     13  C   UNL     1       6.295   4.934  18.339  0.00  0.00    +0.000 C 
ATOM     14  C   UNL     1       7.268   5.667  19.254  0.00  0.00    +0.000 C 
BRANCH  13  15
ATOM     15  S   UNL     1       4.756   5.911  18.128  0.00  0.00    +0.000 S 
BRANCH  15  16
ATOM     16  C   UNL     1       3.611   4.575  17.606  0.00  0.00    +0.000 C 
BRANCH  16  17
ATOM     17  C   UNL     1       2.706   4.185  18.751  0.00  0.00    +0.000 A 
ATOM     18  C   UNL     1       2.978   4.637  20.052  0.00  0.00    +0.000 A 
ATOM     19  C   UNL     1       2.191   4.223  21.128  0.00  0.00    +0.000 A 
ATOM     20  C   UNL     1       1.121   3.355  20.917  0.00  0.00    +0.000 A 
ATOM     21  C   UNL     1       0.830   2.912  19.627  0.00  0.00    +0.000 A 
ATOM     22  C   UNL     1       1.617   3.325  18.550  0.00  0.00    +0.000 A 
ENDBRANCH  16  17
ENDBRANCH  15  16
ENDBRANCH  13  15
ENDBRANCH   2  13
TORSDOF 6
ENDMDL
MODEL 2
REMARK VINA RESULT:      -7.6      2.967      4.872
REMARK  Name = 
REMARK  8 active torsions:
REMARK  status: ('A' for Active; 'I' for Inactive)
REMARK    1  A    between atoms: C_1  and  O_2
REMARK    2  A    between atoms: O_2  and  C_3
REMARK    3  A    between atoms: C_7  and  N_8
REMARK    4  A    between atoms: C_9  and  C_11
REMARK    5  A    between atoms: C_11  and  C_12
REMARK    6  A    between atoms: C_11  and  S_13
REMARK    7  A    between atoms: S_13  and  C_14
REMARK    8  A    between atoms: C_14  and  C_15
REMARK                            x       y       z     vdW  Elec       q    Type
REMARK                         _______ _______ _______ _____ _____    ______ ____
ROOT
ATOM      1  N   UNL     1       3.417   4.463  17.222  0.00  0.00    +0.000 N 
ATOM      2  C   UNL     1       3.103   3.655  18.304  0.00  0.00    +0.000 C 
ATOM      3  O   UNL     1       3.872   2.878  18.870  0.00  0.00    +0.000 OA
ATOM      4  H   UNL     1       2.629   4.899  16.753  0.00  0.00    +0.000 HD
ENDROOT
BRANCH   1   9
ATOM      5  C   UNL     1       6.759   5.777  16.312  0.00  0.00    +0.000 A 
ATOM      6  C   UNL     1       7.137   4.894  15.300  0.00  0.00    +0.000 A 
ATOM      7  C   UNL     1       6.308   3.835  14.944  0.00  0.00    +0.000 A 
ATOM      8  C   UNL     1       5.082   3.668  15.583  0.00  0.00    +0.000 A 
ATOM      9  C   UNL     1       4.671   4.556  16.580  0.00  0.00    +0.000 A 
ATOM     10  C   UNL     1       5.531   5.596  16.961  0.00  0.00    +0.000 A 
BRANCH   5  12
ATOM     11  C   UNL     1       7.640   7.375  17.842  0.00  0.00    +0.000 C 
ATOM     12  O   UNL     1       7.664   6.775  16.554  0.00  0.00    +0.000 OA
ENDBRANCH   5  12
ENDBRANCH   1   9
BRANCH   2  13
ATOM     13  C   UNL     1       1.652   3.742  18.769  0.00  0.00    +0.000 C 
ATOM     14  C   UNL     1       1.046   2.352  18.917  0.00  0.00    +0.000 C 
BRANCH  13  15
ATOM     15  S   UNL     1       1.534   4.663  20.351  0.00  0.00    +0.000 S 
BRANCH  15  16
ATOM     16  C   UNL     1       2.878   5.887  20.098  0.00  0.00    +0.000 C 
BRANCH  16  17
ATOM     17  C   UNL     1       2.304   7.207  19.640  0.00  0.00    +0.000 A 
ATOM     18  C   UNL     1       1.585   8.014  20.537  0.00  0.00    +0.000 A 
ATOM     19  C   UNL     1       0.988   9.199  20.104  0.00  0.00    +0.000 A 
ATOM     20  C   UNL     1       1.103   9.594  18.772  0.00  0.00    +0.000 A 
ATOM     21  C   UNL     1       1.828   8.810  17.876  0.00  0.00    +0.000 A 
ATOM     22  C   UNL     1       2.425   7.623  18.306  0.00  0.00    +0.000 A 
ENDBRANCH  16  17
ENDBRANCH  15  16
ENDBRANCH  13  15
ENDBRANCH   2  13
TORSDOF 6
ENDMDL
MODEL 3
REMARK VINA RESULT:      -7.5      1.579      2.014
REMARK  Name = 
REMARK  8 active torsions:
REMARK  status: ('A' for Active; 'I' for Inactive)
REMARK    1  A    between atoms: C_1  and  O_2
REMARK    2  A    between atoms: O_2  and  C_3
REMARK    3  A    between atoms: C_7  and  N_8
REMARK    4  A    between atoms: C_9  and  C_11
REMARK    5  A    between atoms: C_11  and  C_12
REMARK    6  A    between atoms: C_11  and  S_13
REMARK    7  A    between atoms: S_13  and  C_14
REMARK    8  A    between atoms: C_14  and  C_15
REMARK                            x       y       z     vdW  Elec       q    Type
REMARK                         _______ _______ _______ _____ _____    ______ ____
ROOT
ATOM      1  N   UNL     1       5.890   5.118  15.646  0.00  0.00    +0.000 N 
ATOM      2  C   UNL     1       5.265   6.303  16.002  0.00  0.00    +0.000 C 
ATOM      3  O   UNL     1       4.944   7.208  15.232  0.00  0.00    +0.000 OA
ATOM      4  H   UNL     1       6.258   4.565  16.413  0.00  0.00    +0.000 HD
ENDROOT
BRANCH   1   9
ATOM      5  C   UNL     1       5.746   3.399  12.367  0.00  0.00    +0.000 A 
ATOM      6  C   UNL     1       6.951   3.802  11.790  0.00  0.00    +0.000 A 
ATOM      7  C   UNL     1       7.796   4.678  12.465  0.00  0.00    +0.000 A 
ATOM      8  C   UNL     1       7.451   5.137  13.733  0.00  0.00    +0.000 A 
ATOM      9  C   UNL     1       6.262   4.725  14.341  0.00  0.00    +0.000 A 
ATOM     10  C   UNL     1       5.397   3.875  13.637  0.00  0.00    +0.000 A 
BRANCH   5  12
ATOM     11  C   UNL     1       3.821   3.029  11.016  0.00  0.00    +0.000 C 
ATOM     12  O   UNL     1       5.017   2.532  11.598  0.00  0.00    +0.000 OA
ENDBRANCH   5  12
ENDBRANCH   1   9
BRANCH   2  13
ATOM     13  C   UNL     1       5.011   6.469  17.497  0.00  0.00    +0.000 C 
ATOM     14  C   UNL     1       3.580   6.925  17.757  0.00  0.00    +0.000 C 
BRANCH  13  15
ATOM     15  S   UNL     1       5.355   4.904  18.390  0.00  0.00    +0.000 S 
BRANCH  15  16
ATOM     16  C   UNL     1       4.102   5.028  19.726  0.00  0.00    +0.000 C 
BRANCH  16  17
ATOM     17  C   UNL     1       2.974   4.055  19.477  0.00  0.00    +0.000 A 
ATOM     18  C   UNL     1       3.054   3.135  18.419  0.00  0.00    +0.000 A 
ATOM     19  C   UNL     1       1.986   2.282  18.136  0.00  0.00    +0.000 A 
ATOM     20  C   UNL     1       0.826   2.336  18.906  0.00  0.00    +0.000 A 
ATOM     21  C   UNL     1       0.740   3.234  19.970  0.00  0.00    +0.000 A 
ATOM     22  C   UNL     1       1.807   4.088  20.255  0.00  0.00    +0.000 A 
ENDBRANCH  16  17
ENDBRANCH  15  16
ENDBRANCH  13  15
ENDBRANCH   2  13
TORSDOF 6
ENDMDL
MODEL 4
REMARK VINA RESULT:      -7.4      2.907      4.715
REMARK  Name = 
REMARK  8 active torsions:
REMARK  status: ('A' for Active; 'I' for Inactive)
REMARK    1  A    between atoms: C_1  and  O_2
REMARK    2  A    between atoms: O_2  and  C_3
REMARK    3  A    between atoms: C_7  and  N_8
REMARK    4  A    between atoms: C_9  and  C_11
REMARK    5  A    between atoms: C_11  and  C_12
REMARK    6  A    between atoms: C_11  and  S_13
REMARK    7  A    between atoms: S_13  and  C_14
REMARK    8  A    between atoms: C_14  and  C_15
REMARK                            x       y       z     vdW  Elec       q    Type
REMARK                         _______ _______ _______ _____ _____    ______ ____
ROOT
ATOM      1  N   UNL     1       4.486   3.457  18.093  0.00  0.00    +0.000 N 
ATOM      2  C   UNL     1       3.114   3.276  18.021  0.00  0.00    +0.000 C 
ATOM      3  O   UNL     1       2.402   3.537  17.052  0.00  0.00    +0.000 OA
ATOM      4  H   UNL     1       4.895   3.376  19.018  0.00  0.00    +0.000 HD
ENDROOT
BRANCH   1   9
ATOM      5  C   UNL     1       6.945   5.634  16.379  0.00  0.00    +0.000 A 
ATOM      6  C   UNL     1       6.936   5.100  15.089  0.00  0.00    +0.000 A 
ATOM      7  C   UNL     1       6.149   3.992  14.792  0.00  0.00    +0.000 A 
ATOM      8  C   UNL     1       5.347   3.425  15.779  0.00  0.00    +0.000 A 
ATOM      9  C   UNL     1       5.320   3.960  17.070  0.00  0.00    +0.000 A 
ATOM     10  C   UNL     1       6.147   5.052  17.371  0.00  0.00    +0.000 A 
BRANCH   5  12
ATOM     11  C   UNL     1       7.378   7.689  17.501  0.00  0.00    +0.000 C 
ATOM     12  O   UNL     1       7.757   6.726  16.528  0.00  0.00    +0.000 OA
ENDBRANCH   5  12
ENDBRANCH   1   9
BRANCH   2  13
ATOM     13  C   UNL     1       2.471   2.742  19.299  0.00  0.00    +0.000 C 
ATOM     14  C   UNL     1       3.534   2.343  20.314  0.00  0.00    +0.000 C 
BRANCH  13  15
ATOM     15  S   UNL     1       1.332   3.987  20.020  0.00  0.00    +0.000 S 
BRANCH  15  16
ATOM     16  C   UNL     1       2.547   5.279  20.495  0.00  0.00    +0.000 C 
BRANCH  16  17
ATOM     17  C   UNL     1       2.179   6.600  19.862  0.00  0.00    +0.000 A 
ATOM     18  C   UNL     1       2.550   6.877  18.536  0.00  0.00    +0.000 A 
ATOM     19  C   UNL     1       2.279   8.122  17.968  0.00  0.00    +0.000 A 
ATOM     20  C   UNL     1       1.633   9.105  18.714  0.00  0.00    +0.000 A 
ATOM     21  C   UNL     1       1.245   8.838  20.026  0.00  0.00    +0.000 A 
ATOM     22  C   UNL     1       1.515   7.593  20.597  0.00  0.00    +0.000 A 
ENDBRANCH  16  17
ENDBRANCH  15  16
ENDBRANCH  13  15
ENDBRANCH   2  13
TORSDOF 6
ENDMDL
MODEL 5
REMARK VINA RESULT:      -7.4      1.099      1.520
REMARK  Name = 
REMARK  8 active torsions:
REMARK  status: ('A' for Active; 'I' for Inactive)
REMARK    1  A    between atoms: C_1  and  O_2
REMARK    2  A    between atoms: O_2  and  C_3
REMARK    3  A    between atoms: C_7  and  N_8
REMARK    4  A    between atoms: C_9  and  C_11
REMARK    5  A    between atoms: C_11  and  C_12
REMARK    6  A    between atoms: C_11  and  S_13
REMARK    7  A    between atoms: S_13  and  C_14
REMARK    8  A    between atoms: C_14  and  C_15
REMARK                            x       y       z     vdW  Elec       q    Type
REMARK                         _______ _______ _______ _____ _____    ______ ____
ROOT
ATOM      1  N   UNL     1       6.131   5.396  15.402  0.00  0.00    +0.000 N 
ATOM      2  C   UNL     1       6.822   5.161  16.580  0.00  0.00    +0.000 C 
ATOM      3  O   UNL     1       7.835   4.472  16.696  0.00  0.00    +0.000 OA
ATOM      4  H   UNL     1       5.216   5.823  15.503  0.00  0.00    +0.000 HD
ENDROOT
BRANCH   1   9
ATOM      5  C   UNL     1       6.021   3.277  12.364  0.00  0.00    +0.000 A 
ATOM      6  C   UNL     1       7.103   3.778  11.638  0.00  0.00    +0.000 A 
ATOM      7  C   UNL     1       7.847   4.846  12.131  0.00  0.00    +0.000 A 
ATOM      8  C   UNL     1       7.527   5.404  13.365  0.00  0.00    +0.000 A 
ATOM      9  C   UNL     1       6.465   4.902  14.121  0.00  0.00    +0.000 A 
ATOM     10  C   UNL     1       5.696   3.851  13.599  0.00  0.00    +0.000 A 
BRANCH   5  12
ATOM     11  C   UNL     1       6.200   1.209  11.198  0.00  0.00    +0.000 C 
ATOM     12  O   UNL     1       5.384   2.223  11.767  0.00  0.00    +0.000 OA
ENDBRANCH   5  12
ENDBRANCH   1   9
BRANCH   2  13
ATOM     13  C   UNL     1       6.208   5.803  17.821  0.00  0.00    +0.000 C 
ATOM     14  C   UNL     1       5.064   6.733  17.440  0.00  0.00    +0.000 C 
BRANCH  13  15
ATOM     15  S   UNL     1       5.624   4.517  18.993  0.00  0.00    +0.000 S 
BRANCH  15  16
ATOM     16  C   UNL     1       4.101   3.975  18.123  0.00  0.00    +0.000 C 
BRANCH  16  17
ATOM     17  C   UNL     1       3.061   3.524  19.122  0.00  0.00    +0.000 A 
ATOM     18  C   UNL     1       1.712   3.426  18.743  0.00  0.00    +0.000 A 
ATOM     19  C   UNL     1       0.735   3.081  19.678  0.00  0.00    +0.000 A 
ATOM     20  C   UNL     1       1.092   2.827  21.000  0.00  0.00    +0.000 A 
ATOM     21  C   UNL     1       2.430   2.905  21.386  0.00  0.00    +0.000 A 
ATOM     22  C   UNL     1       3.410   3.251  20.453  0.00  0.00    +0.000 A 
ENDBRANCH  16  17
ENDBRANCH  15  16
ENDBRANCH  13  15
ENDBRANCH   2  13
TORSDOF 6
ENDMDL
MODEL 6
REMARK VINA RESULT:      -7.4      1.207      1.565
REMARK  Name = 
REMARK  8 active torsions:
REMARK  status: ('A' for Active; 'I' for Inactive)
REMARK    1  A    between atoms: C_1  and  O_2
REMARK    2  A    between atoms: O_2  and  C_3
REMARK    3  A    between atoms: C_7  and  N_8
REMARK    4  A    between atoms: C_9  and  C_11
REMARK    5  A    between atoms: C_11  and  C_12
REMARK    6  A    between atoms: C_11  and  S_13
REMARK    7  A    between atoms: S_13  and  C_14
REMARK    8  A    between atoms: C_14  and  C_15
REMARK                            x       y       z     vdW  Elec       q    Type
REMARK                         _______ _______ _______ _____ _____    ______ ____
ROOT
ATOM      1  N   UNL     1       7.021   4.513  15.937  0.00  0.00    +0.000 N 
ATOM      2  C   UNL     1       6.735   5.598  16.752  0.00  0.00    +0.000 C 
ATOM      3  O   UNL     1       6.423   6.725  16.367  0.00  0.00    +0.000 OA
ATOM      4  H   UNL     1       7.445   3.714  16.399  0.00  0.00    +0.000 HD
ENDROOT
BRANCH   1   9
ATOM      5  C   UNL     1       6.105   3.484  12.499  0.00  0.00    +0.000 A 
ATOM      6  C   UNL     1       6.940   4.301  11.734  0.00  0.00    +0.000 A 
ATOM      7  C   UNL     1       7.777   5.226  12.351  0.00  0.00    +0.000 A 
ATOM      8  C   UNL     1       7.802   5.321  13.739  0.00  0.00    +0.000 A 
ATOM      9  C   UNL     1       6.995   4.495  14.525  0.00  0.00    +0.000 A 
ATOM     10  C   UNL     1       6.125   3.594  13.894  0.00  0.00    +0.000 A 
BRANCH   5  12
ATOM     11  C   UNL     1       5.977   1.443  11.279  0.00  0.00    +0.000 C 
ATOM     12  O   UNL     1       5.342   2.618  11.764  0.00  0.00    +0.000 OA
ENDBRANCH   5  12
ENDBRANCH   1   9
BRANCH   2  13
ATOM     13  C   UNL     1       6.874   5.331  18.248  0.00  0.00    +0.000 C 
ATOM     14  C   UNL     1       7.834   6.325  18.889  0.00  0.00    +0.000 C 
BRANCH  13  15
ATOM     15  S   UNL     1       5.237   5.399  19.073  0.00  0.00    +0.000 S 
BRANCH  15  16
ATOM     16  C   UNL     1       4.919   3.602  19.278  0.00  0.00    +0.000 C 
BRANCH  16  17
ATOM     17  C   UNL     1       3.436   3.345  19.403  0.00  0.00    +0.000 A 
ATOM     18  C   UNL     1       2.590   3.528  18.297  0.00  0.00    +0.000 A 
ATOM     19  C   UNL     1       1.210   3.365  18.423  0.00  0.00    +0.000 A 
ATOM     20  C   UNL     1       0.657   3.014  19.653  0.00  0.00    +0.000 A 
ATOM     21  C   UNL     1       1.487   2.813  20.755  0.00  0.00    +0.000 A 
ATOM     22  C   UNL     1       2.868   2.977  20.632  0.00  0.00    +0.000 A 
ENDBRANCH  16  17
ENDBRANCH  15  16
ENDBRANCH  13  15
ENDBRANCH   2  13
TORSDOF 6
ENDMDL
MODEL 7
REMARK VINA RESULT:      -7.4      4.198      7.418
REMARK  Name = 
REMARK  8 active torsions:
REMARK  status: ('A' for Active; 'I' for Inactive)
REMARK    1  A    between atoms: C_1  and  O_2
REMARK    2  A    between atoms: O_2  and  C_3
REMARK    3  A    between atoms: C_7  and  N_8
REMARK    4  A    between atoms: C_9  and  C_11
REMARK    5  A    between atoms: C_11  and  C_12
REMARK    6  A    between atoms: C_11  and  S_13
REMARK    7  A    between atoms: S_13  and  C_14
REMARK    8  A    between atoms: C_14  and  C_15
REMARK                            x       y       z     vdW  Elec       q    Type
REMARK                         _______ _______ _______ _____ _____    ______ ____
ROOT
ATOM      1  N   UNL     1       2.737   5.759  20.329  0.00  0.00    +0.000 N 
ATOM      2  C   UNL     1       1.960   4.617  20.444  0.00  0.00    +0.000 C 
ATOM      3  O   UNL     1       0.817   4.476  20.008  0.00  0.00    +0.000 OA
ATOM      4  H   UNL     1       3.574   5.783  20.903  0.00  0.00    +0.000 HD
ENDROOT
BRANCH   1   9
ATOM      5  C   UNL     1       1.190   9.085  19.811  0.00  0.00    +0.000 A 
ATOM      6  C   UNL     1       1.506   9.332  18.474  0.00  0.00    +0.000 A 
ATOM      7  C   UNL     1       2.268   8.419  17.752  0.00  0.00    +0.000 A 
ATOM      8  C   UNL     1       2.698   7.242  18.356  0.00  0.00    +0.000 A 
ATOM      9  C   UNL     1       2.371   6.961  19.685  0.00  0.00    +0.000 A 
ATOM     10  C   UNL     1       1.637   7.905  20.418  0.00  0.00    +0.000 A 
BRANCH   5  12
ATOM     11  C   UNL     1      -0.526  10.720  19.580  0.00  0.00    +0.000 C 
ATOM     12  O   UNL     1       0.430  10.060  20.398  0.00  0.00    +0.000 OA
ENDBRANCH   5  12
ENDBRANCH   1   9
BRANCH   2  13
ATOM     13  C   UNL     1       2.608   3.477  21.224  0.00  0.00    +0.000 C 
ATOM     14  C   UNL     1       1.556   2.493  21.721  0.00  0.00    +0.000 C 
BRANCH  13  15
ATOM     15  S   UNL     1       3.854   2.613  20.192  0.00  0.00    +0.000 S 
BRANCH  15  16
ATOM     16  C   UNL     1       3.362   3.226  18.534  0.00  0.00    +0.000 C 
BRANCH  16  17
ATOM     17  C   UNL     1       4.536   3.892  17.854  0.00  0.00    +0.000 A 
ATOM     18  C   UNL     1       4.575   3.997  16.454  0.00  0.00    +0.000 A 
ATOM     19  C   UNL     1       5.688   4.543  15.814  0.00  0.00    +0.000 A 
ATOM     20  C   UNL     1       6.774   4.994  16.562  0.00  0.00    +0.000 A 
ATOM     21  C   UNL     1       6.740   4.910  17.953  0.00  0.00    +0.000 A 
ATOM     22  C   UNL     1       5.628   4.363  18.597  0.00  0.00    +0.000 A 
ENDBRANCH  16  17
ENDBRANCH  15  16
ENDBRANCH  13  15
ENDBRANCH   2  13
TORSDOF 6
ENDMDL
MODEL 8
REMARK VINA RESULT:      -7.4      0.468      1.034
REMARK  Name = 
REMARK  8 active torsions:
REMARK  status: ('A' for Active; 'I' for Inactive)
REMARK    1  A    between atoms: C_1  and  O_2
REMARK    2  A    between atoms: O_2  and  C_3
REMARK    3  A    between atoms: C_7  and  N_8
REMARK    4  A    between atoms: C_9  and  C_11
REMARK    5  A    between atoms: C_11  and  C_12
REMARK    6  A    between atoms: C_11  and  S_13
REMARK    7  A    between atoms: S_13  and  C_14
REMARK    8  A    between atoms: C_14  and  C_15
REMARK                            x       y       z     vdW  Elec       q    Type
REMARK                         _______ _______ _______ _____ _____    ______ ____
ROOT
ATOM      1  N   UNL     1       6.097   5.006  15.880  0.00  0.00    +0.000 N 
ATOM      2  C   UNL     1       6.888   4.749  16.989  0.00  0.00    +0.000 C 
ATOM      3  O   UNL     1       8.009   4.243  16.971  0.00  0.00    +0.000 OA
ATOM      4  H   UNL     1       5.129   5.247  16.073  0.00  0.00    +0.000 HD
ENDROOT
BRANCH   1   9
ATOM      5  C   UNL     1       5.965   3.491  12.502  0.00  0.00    +0.000 A 
ATOM      6  C   UNL     1       7.069   4.085  11.889  0.00  0.00    +0.000 A 
ATOM      7  C   UNL     1       7.835   5.022  12.575  0.00  0.00    +0.000 A 
ATOM      8  C   UNL     1       7.516   5.351  13.890  0.00  0.00    +0.000 A 
ATOM      9  C   UNL     1       6.432   4.748  14.532  0.00  0.00    +0.000 A 
ATOM     10  C   UNL     1       5.640   3.836  13.819  0.00  0.00    +0.000 A 
BRANCH   5  12
ATOM     11  C   UNL     1       4.102   3.015  11.097  0.00  0.00    +0.000 C 
ATOM     12  O   UNL     1       5.306   2.584  11.716  0.00  0.00    +0.000 OA
ENDBRANCH   5  12
ENDBRANCH   1   9
BRANCH   2  13
ATOM     13  C   UNL     1       6.249   5.107  18.328  0.00  0.00    +0.000 C 
ATOM     14  C   UNL     1       7.292   5.645  19.299  0.00  0.00    +0.000 C 
BRANCH  13  15
ATOM     15  S   UNL     1       4.900   6.328  18.097  0.00  0.00    +0.000 S 
BRANCH  15  16
ATOM     16  C   UNL     1       3.542   5.198  17.596  0.00  0.00    +0.000 C 
BRANCH  16  17
ATOM     17  C   UNL     1       2.903   4.578  18.816  0.00  0.00    +0.000 A 
ATOM     18  C   UNL     1       2.579   3.211  18.827  0.00  0.00    +0.000 A 
ATOM     19  C   UNL     1       1.921   2.646  19.920  0.00  0.00    +0.000 A 
ATOM     20  C   UNL     1       1.581   3.436  21.016  0.00  0.00    +0.000 A 
ATOM     21  C   UNL     1       1.911   4.791  21.025  0.00  0.00    +0.000 A 
ATOM     22  C   UNL     1       2.569   5.359  19.932  0.00  0.00    +0.000 A 
ENDBRANCH  16  17
ENDBRANCH  15  16
ENDBRANCH  13  15
ENDBRANCH   2  13
TORSDOF 6
ENDMDL
MODEL 9
REMARK VINA RESULT:      -7.4      1.360      1.612
REMARK  Name = 
REMARK  8 active torsions:
REMARK  status: ('A' for Active; 'I' for Inactive)
REMARK    1  A    between atoms: C_1  and  O_2
REMARK    2  A    between atoms: O_2  and  C_3
REMARK    3  A    between atoms: C_7  and  N_8
REMARK    4  A    between atoms: C_9  and  C_11
REMARK    5  A    between atoms: C_11  and  C_12
REMARK    6  A    between atoms: C_11  and  S_13
REMARK    7  A    between atoms: S_13  and  C_14
REMARK    8  A    between atoms: C_14  and  C_15
REMARK                            x       y       z     vdW  Elec       q    Type
REMARK                         _______ _______ _______ _____ _____    ______ ____
ROOT
ATOM      1  N   UNL     1       7.018   5.757  15.603  0.00  0.00    +0.000 N 
ATOM      2  C   UNL     1       7.527   5.178  16.756  0.00  0.00    +0.000 C 
ATOM      3  O   UNL     1       8.037   4.061  16.836  0.00  0.00    +0.000 OA
ATOM      4  H   UNL     1       6.462   6.595  15.739  0.00  0.00    +0.000 HD
ENDROOT
BRANCH   1   9
ATOM      5  C   UNL     1       5.943   3.631  12.767  0.00  0.00    +0.000 A 
ATOM      6  C   UNL     1       6.933   3.908  11.822  0.00  0.00    +0.000 A 
ATOM      7  C   UNL     1       7.935   4.831  12.104  0.00  0.00    +0.000 A 
ATOM      8  C   UNL     1       7.967   5.465  13.343  0.00  0.00    +0.000 A 
ATOM      9  C   UNL     1       7.002   5.183  14.313  0.00  0.00    +0.000 A 
ATOM     10  C   UNL     1       5.972   4.281  14.006  0.00  0.00    +0.000 A 
BRANCH   5  12
ATOM     11  C   UNL     1       4.128   3.080  11.326  0.00  0.00    +0.000 C 
ATOM     12  O   UNL     1       5.025   2.700  12.361  0.00  0.00    +0.000 OA
ENDBRANCH   5  12
ENDBRANCH   1   9
BRANCH   2  13
ATOM     13  C   UNL     1       7.379   6.025  18.017  0.00  0.00    +0.000 C 
ATOM     14  C   UNL     1       7.084   7.477  17.663  0.00  0.00    +0.000 C 
BRANCH  13  15
ATOM     15  S   UNL     1       6.060   5.350  19.099  0.00  0.00    +0.000 S 
BRANCH  15  16
ATOM     16  C   UNL     1       4.594   5.684  18.045  0.00  0.00    +0.000 C 
BRANCH  16  17
ATOM     17  C   UNL     1       3.609   4.544  18.143  0.00  0.00    +0.000 A 
ATOM     18  C   UNL     1       4.067   3.220  18.248  0.00  0.00    +0.000 A 
ATOM     19  C   UNL     1       3.165   2.155  18.264  0.00  0.00    +0.000 A 
ATOM     20  C   UNL     1       1.796   2.398  18.179  0.00  0.00    +0.000 A 
ATOM     21  C   UNL     1       1.327   3.708  18.092  0.00  0.00    +0.000 A 
ATOM     22  C   UNL     1       2.227   4.775  18.074  0.00  0.00    +0.000 A 
ENDBRANCH  16  17
ENDBRANCH  15  16
ENDBRANCH  13  15
ENDBRANCH   2  13
TORSDOF 6
ENDMDL
