MODEL 1
REMARK VINA RESULT:      -8.8      0.000      0.000
REMARK  Name = 
REMARK  7 active torsions:
REMARK  status: ('A' for Active; 'I' for Inactive)
REMARK    1  A    between atoms: C_1  and  C_2
REMARK    2  A    between atoms: C_2  and  C_3
REMARK    3  A    between atoms: C_3  and  C_4
REMARK    4  A    between atoms: N_10  and  N_11
REMARK    5  A    between atoms: C_12  and  C_14
REMARK    6  A    between atoms: C_14  and  N_15
REMARK    7  A    between atoms: C_16  and  C_18
REMARK                            x       y       z     vdW  Elec       q    Type
REMARK                         _______ _______ _______ _____ _____    ______ ____
ROOT
ATOM      1  N   UNL     1       7.144   5.916  16.547  0.00  0.00    +0.000 N 
ATOM      2  C   UNL     1       7.498   5.034  17.559  0.00  0.00    +0.000 C 
ATOM      3  O   UNL     1       8.271   4.083  17.442  0.00  0.00    +0.000 OA
ATOM      4  H   UNL     1       6.703   6.799  16.800  0.00  0.00    +0.000 HD
ENDROOT
BRANCH   1   7
ATOM      5  C   UNL     1       5.441   4.535  14.786  0.00  0.00    +0.000 C 
ATOM      6  C   UNL     1       6.829   5.029  14.454  0.00  0.00    +0.000 C 
ATOM      7  N   UNL     1       7.588   5.691  15.278  0.00  0.00    +0.000 NA
BRANCH   6   8
ATOM      8  C   UNL     1       7.358   4.771  13.052  0.00  0.00    +0.000 C 
BRANCH   8   9
ATOM      9  C   UNL     1       6.590   3.728  12.273  0.00  0.00    +0.000 A 
ATOM     10  C   UNL     1       7.236   2.581  11.788  0.00  0.00    +0.000 A 
ATOM     11  C   UNL     1       6.510   1.570  11.153  0.00  0.00    +0.000 A 
ATOM     12  C   UNL     1       5.130   1.691  10.997  0.00  0.00    +0.000 A 
ATOM     13  C   UNL     1       4.476   2.826  11.472  0.00  0.00    +0.000 A 
ATOM     14  C   UNL     1       5.200   3.838  12.109  0.00  0.00    +0.000 A 
ENDBRANCH   8   9
ENDBRANCH   6   8
ENDBRANCH   1   7
BRANCH   2  15
ATOM     15  C   UNL     1       6.914   5.424  18.913  0.00  0.00    +0.000 C 
BRANCH  15  16
ATOM     16  N   UNL     1       5.669   4.726  19.163  0.00  0.00    +0.000 N 
ATOM     17  C   UNL     1       4.459   5.219  18.734  0.00  0.00    +0.000 C 
ATOM     18  O   UNL     1       4.375   6.285  18.128  0.00  0.00    +0.000 OA
ATOM     19  H   UNL     1       5.693   3.948  19.815  0.00  0.00    +0.000 HD
BRANCH  17  20
ATOM     20  C   UNL     1       3.241   4.412  19.041  0.00  0.00    +0.000 A 
ATOM     21  C   UNL     1       2.551   4.665  20.236  0.00  0.00    +0.000 A 
ATOM     22  C   UNL     1       1.400   3.935  20.560  0.00  0.00    +0.000 A 
ATOM     23  C   UNL     1       0.931   2.947  19.697  0.00  0.00    +0.000 A 
ATOM     24  C   UNL     1       1.604   2.693  18.504  0.00  0.00    +0.000 A 
ATOM     25  C   UNL     1       2.751   3.422  18.184  0.00  0.00    +0.000 A 
ATOM     26  F   UNL     1       3.367   3.139  17.026  0.00  0.00    +0.000 F 
ENDBRANCH  17  20
ENDBRANCH  15  16
ENDBRANCH   2  15
TORSDOF 6
ENDMDL
MODEL 2
REMARK VINA RESULT:      -8.7      0.988      1.390
REMARK  Name = 
REMARK  7 active torsions:
REMARK  status: ('A' for Active; 'I' for Inactive)
REMARK    1  A    between atoms: C_1  and  C_2
REMARK    2  A    between atoms: C_2  and  C_3
REMARK    3  A    between atoms: C_3  and  C_4
REMARK    4  A    between atoms: N_10  and  N_11
REMARK    5  A    between atoms: C_12  and  C_14
REMARK    6  A    between atoms: C_14  and  N_15
REMARK    7  A    between atoms: C_16  and  C_18
REMARK                            x       y       z     vdW  Elec       q    Type
REMARK                         _______ _______ _______ _____ _____    ______ ____
ROOT
ATOM      1  N   UNL     1       6.982   5.821  16.745  0.00  0.00    +0.000 N 
ATOM      2  C   UNL     1       7.429   4.978  17.755  0.00  0.00    +0.000 C 
ATOM      3  O   UNL     1       8.303   4.120  17.636  0.00  0.00    +0.000 OA
ATOM      4  H   UNL     1       6.445   6.647  17.001  0.00  0.00    +0.000 HD
ENDROOT
BRANCH   1   7
ATOM      5  C   UNL     1       5.437   4.288  14.966  0.00  0.00    +0.000 C 
ATOM      6  C   UNL     1       6.768   4.923  14.644  0.00  0.00    +0.000 C 
ATOM      7  N   UNL     1       7.452   5.652  15.477  0.00  0.00    +0.000 NA
BRANCH   6   8
ATOM      8  C   UNL     1       7.327   4.731  13.243  0.00  0.00    +0.000 C 
BRANCH   8   9
ATOM      9  C   UNL     1       6.563   3.744  12.391  0.00  0.00    +0.000 A 
ATOM     10  C   UNL     1       7.205   2.614  11.861  0.00  0.00    +0.000 A 
ATOM     11  C   UNL     1       6.481   1.649  11.157  0.00  0.00    +0.000 A 
ATOM     12  C   UNL     1       5.107   1.799  10.976  0.00  0.00    +0.000 A 
ATOM     13  C   UNL     1       4.457   2.916  11.495  0.00  0.00    +0.000 A 
ATOM     14  C   UNL     1       5.179   3.882  12.202  0.00  0.00    +0.000 A 
ENDBRANCH   8   9
ENDBRANCH   6   8
ENDBRANCH   1   7
BRANCH   2  15
ATOM     15  C   UNL     1       6.801   5.294  19.109  0.00  0.00    +0.000 C 
BRANCH  15  16
ATOM     16  N   UNL     1       5.553   4.579  19.282  0.00  0.00    +0.000 N 
ATOM     17  C   UNL     1       4.357   5.081  18.825  0.00  0.00    +0.000 C 
ATOM     18  O   UNL     1       4.288   6.169  18.257  0.00  0.00    +0.000 OA
ATOM     19  H   UNL     1       5.557   3.777  19.905  0.00  0.00    +0.000 HD
BRANCH  17  20
ATOM     20  C   UNL     1       3.134   4.255  19.053  0.00  0.00    +0.000 A 
ATOM     21  C   UNL     1       2.837   3.227  18.145  0.00  0.00    +0.000 A 
ATOM     22  C   UNL     1       1.703   2.426  18.325  0.00  0.00    +0.000 A 
ATOM     23  C   UNL     1       0.855   2.645  19.409  0.00  0.00    +0.000 A 
ATOM     24  C   UNL     1       1.144   3.658  20.321  0.00  0.00    +0.000 A 
ATOM     25  C   UNL     1       2.275   4.454  20.138  0.00  0.00    +0.000 A 
ATOM     26  F   UNL     1       2.510   5.419  21.040  0.00  0.00    +0.000 F 
ENDBRANCH  17  20
ENDBRANCH  15  16
ENDBRANCH   2  15
TORSDOF 6
ENDMDL
MODEL 3
REMARK VINA RESULT:      -8.6      2.156      7.153
REMARK  Name = 
REMARK  7 active torsions:
REMARK  status: ('A' for Active; 'I' for Inactive)
REMARK    1  A    between atoms: C_1  and  C_2
REMARK    2  A    between atoms: C_2  and  C_3
REMARK    3  A    between atoms: C_3  and  C_4
REMARK    4  A    between atoms: N_10  and  N_11
REMARK    5  A    between atoms: C_12  and  C_14
REMARK    6  A    between atoms: C_14  and  N_15
REMARK    7  A    between atoms: C_16  and  C_18
REMARK                            x       y       z     vdW  Elec       q    Type
REMARK                         _______ _______ _______ _____ _____    ______ ____
ROOT
ATOM      1  N   UNL     1       5.716   4.792  18.143  0.00  0.00    +0.000 N 
ATOM      2  C   UNL     1       6.909   4.944  18.839  0.00  0.00    +0.000 C 
ATOM      3  O   UNL     1       7.012   5.147  20.048  0.00  0.00    +0.000 OA
ATOM      4  H   UNL     1       5.743   4.387  17.210  0.00  0.00    +0.000 HD
ENDROOT
BRANCH   1   7
ATOM      5  C   UNL     1       4.122   6.981  17.388  0.00  0.00    +0.000 C 
ATOM      6  C   UNL     1       3.793   5.996  18.485  0.00  0.00    +0.000 C 
ATOM      7  N   UNL     1       4.534   4.974  18.797  0.00  0.00    +0.000 NA
BRANCH   6   8
ATOM      8  C   UNL     1       2.490   6.189  19.246  0.00  0.00    +0.000 C 
BRANCH   8   9
ATOM      9  C   UNL     1       1.956   4.937  19.903  0.00  0.00    +0.000 A 
ATOM     10  C   UNL     1       1.190   4.018  19.169  0.00  0.00    +0.000 A 
ATOM     11  C   UNL     1       0.779   2.814  19.746  0.00  0.00    +0.000 A 
ATOM     12  C   UNL     1       1.129   2.512  21.061  0.00  0.00    +0.000 A 
ATOM     13  C   UNL     1       1.887   3.416  21.802  0.00  0.00    +0.000 A 
ATOM     14  C   UNL     1       2.301   4.620  21.226  0.00  0.00    +0.000 A 
ENDBRANCH   8   9
ENDBRANCH   6   8
ENDBRANCH   1   7
BRANCH   2  15
ATOM     15  C   UNL     1       8.137   4.715  17.962  0.00  0.00    +0.000 C 
BRANCH  15  16
ATOM     16  N   UNL     1       7.752   4.311  16.625  0.00  0.00    +0.000 N 
ATOM     17  C   UNL     1       7.360   5.222  15.673  0.00  0.00    +0.000 C 
ATOM     18  O   UNL     1       7.306   6.426  15.916  0.00  0.00    +0.000 OA
ATOM     19  H   UNL     1       7.612   3.318  16.460  0.00  0.00    +0.000 HD
BRANCH  17  20
ATOM     20  C   UNL     1       6.992   4.693  14.326  0.00  0.00    +0.000 A 
ATOM     21  C   UNL     1       5.866   3.863  14.214  0.00  0.00    +0.000 A 
ATOM     22  C   UNL     1       5.482   3.350  12.969  0.00  0.00    +0.000 A 
ATOM     23  C   UNL     1       6.219   3.657  11.827  0.00  0.00    +0.000 A 
ATOM     24  C   UNL     1       7.334   4.486  11.925  0.00  0.00    +0.000 A 
ATOM     25  C   UNL     1       7.714   4.996  13.168  0.00  0.00    +0.000 A 
ATOM     26  F   UNL     1       8.797   5.786  13.213  0.00  0.00    +0.000 F 
ENDBRANCH  17  20
ENDBRANCH  15  16
ENDBRANCH   2  15
TORSDOF 6
ENDMDL
MODEL 4
REMARK VINA RESULT:      -8.6      1.132      1.211
REMARK  Name = 
REMARK  7 active torsions:
REMARK  status: ('A' for Active; 'I' for Inactive)
REMARK    1  A    between atoms: C_1  and  C_2
REMARK    2  A    between atoms: C_2  and  C_3
REMARK    3  A    between atoms: C_3  and  C_4
REMARK    4  A    between atoms: N_10  and  N_11
REMARK    5  A    between atoms: C_12  and  C_14
REMARK    6  A    between atoms: C_14  and  N_15
REMARK    7  A    between atoms: C_16  and  C_18
REMARK                            x       y       z     vdW  Elec       q    Type
REMARK                         _______ _______ _______ _____ _____    ______ ____
ROOT
ATOM      1  N   UNL     1       7.364   5.066  16.719  0.00  0.00    +0.000 N 
ATOM      2  C   UNL     1       7.167   6.224  17.460  0.00  0.00    +0.000 C 
ATOM      3  O   UNL     1       7.120   7.366  17.005  0.00  0.00    +0.000 OA
ATOM      4  H   UNL     1       7.142   4.168  17.145  0.00  0.00    +0.000 HD
ENDROOT
BRANCH   1   7
ATOM      5  C   UNL     1       5.410   4.142  14.921  0.00  0.00    +0.000 C 
ATOM      6  C   UNL     1       6.753   4.716  14.534  0.00  0.00    +0.000 C 
ATOM      7  N   UNL     1       7.629   5.164  15.385  0.00  0.00    +0.000 NA
BRANCH   6   8
ATOM      8  C   UNL     1       7.084   4.815  13.054  0.00  0.00    +0.000 C 
BRANCH   8   9
ATOM      9  C   UNL     1       6.641   3.627  12.230  0.00  0.00    +0.000 A 
ATOM     10  C   UNL     1       7.580   2.697  11.758  0.00  0.00    +0.000 A 
ATOM     11  C   UNL     1       7.165   1.548  11.082  0.00  0.00    +0.000 A 
ATOM     12  C   UNL     1       5.807   1.311  10.871  0.00  0.00    +0.000 A 
ATOM     13  C   UNL     1       4.864   2.227  11.333  0.00  0.00    +0.000 A 
ATOM     14  C   UNL     1       5.277   3.376  12.011  0.00  0.00    +0.000 A 
ENDBRANCH   8   9
ENDBRANCH   6   8
ENDBRANCH   1   7
BRANCH   2  15
ATOM     15  C   UNL     1       6.890   5.941  18.934  0.00  0.00    +0.000 C 
BRANCH  15  16
ATOM     16  N   UNL     1       5.491   5.635  19.150  0.00  0.00    +0.000 N 
ATOM     17  C   UNL     1       5.024   4.342  19.179  0.00  0.00    +0.000 C 
ATOM     18  O   UNL     1       5.772   3.382  19.010  0.00  0.00    +0.000 OA
ATOM     19  H   UNL     1       4.832   6.407  19.106  0.00  0.00    +0.000 HD
BRANCH  17  20
ATOM     20  C   UNL     1       3.563   4.145  19.416  0.00  0.00    +0.000 A 
ATOM     21  C   UNL     1       3.083   4.187  20.734  0.00  0.00    +0.000 A 
ATOM     22  C   UNL     1       1.719   4.013  20.999  0.00  0.00    +0.000 A 
ATOM     23  C   UNL     1       0.824   3.791  19.954  0.00  0.00    +0.000 A 
ATOM     24  C   UNL     1       1.288   3.755  18.641  0.00  0.00    +0.000 A 
ATOM     25  C   UNL     1       2.649   3.929  18.380  0.00  0.00    +0.000 A 
ATOM     26  F   UNL     1       3.049   3.882  17.100  0.00  0.00    +0.000 F 
ENDBRANCH  17  20
ENDBRANCH  15  16
ENDBRANCH   2  15
TORSDOF 6
ENDMDL
MODEL 5
REMARK VINA RESULT:      -8.4      1.321      1.899
REMARK  Name = 
REMARK  7 active torsions:
REMARK  status: ('A' for Active; 'I' for Inactive)
REMARK    1  A    between atoms: C_1  and  C_2
REMARK    2  A    between atoms: C_2  and  C_3
REMARK    3  A    between atoms: C_3  and  C_4
REMARK    4  A    between atoms: N_10  and  N_11
REMARK    5  A    between atoms: C_12  and  C_14
REMARK    6  A    between atoms: C_14  and  N_15
REMARK    7  A    between atoms: C_16  and  C_18
REMARK                            x       y       z     vdW  Elec       q    Type
REMARK                         _______ _______ _______ _____ _____    ______ ____
ROOT
ATOM      1  N   UNL     1       7.446   4.697  16.947  0.00  0.00    +0.000 N 
ATOM      2  C   UNL     1       7.393   5.888  17.660  0.00  0.00    +0.000 C 
ATOM      3  O   UNL     1       7.464   7.017  17.174  0.00  0.00    +0.000 OA
ATOM      4  H   UNL     1       7.134   3.841  17.402  0.00  0.00    +0.000 HD
ENDROOT
BRANCH   1   7
ATOM      5  C   UNL     1       5.267   4.375  15.199  0.00  0.00    +0.000 C 
ATOM      6  C   UNL     1       6.706   4.554  14.779  0.00  0.00    +0.000 C 
ATOM      7  N   UNL     1       7.694   4.730  15.607  0.00  0.00    +0.000 NA
BRANCH   6   8
ATOM      8  C   UNL     1       7.015   4.571  13.290  0.00  0.00    +0.000 C 
BRANCH   8   9
ATOM      9  C   UNL     1       6.220   3.579  12.473  0.00  0.00    +0.000 A 
ATOM     10  C   UNL     1       4.891   3.852  12.117  0.00  0.00    +0.000 A 
ATOM     11  C   UNL     1       4.185   2.984  11.280  0.00  0.00    +0.000 A 
ATOM     12  C   UNL     1       4.800   1.834  10.786  0.00  0.00    +0.000 A 
ATOM     13  C   UNL     1       6.118   1.549  11.134  0.00  0.00    +0.000 A 
ATOM     14  C   UNL     1       6.827   2.417  11.969  0.00  0.00    +0.000 A 
ENDBRANCH   8   9
ENDBRANCH   6   8
ENDBRANCH   1   7
BRANCH   2  15
ATOM     15  C   UNL     1       7.115   5.676  19.145  0.00  0.00    +0.000 C 
BRANCH  15  16
ATOM     16  N   UNL     1       6.009   4.760  19.340  0.00  0.00    +0.000 N 
ATOM     17  C   UNL     1       4.716   5.101  19.021  0.00  0.00    +0.000 C 
ATOM     18  O   UNL     1       4.434   6.207  18.564  0.00  0.00    +0.000 OA
ATOM     19  H   UNL     1       6.189   3.921  19.884  0.00  0.00    +0.000 HD
BRANCH  17  20
ATOM     20  C   UNL     1       3.656   4.077  19.259  0.00  0.00    +0.000 A 
ATOM     21  C   UNL     1       3.682   2.894  18.504  0.00  0.00    +0.000 A 
ATOM     22  C   UNL     1       2.711   1.905  18.699  0.00  0.00    +0.000 A 
ATOM     23  C   UNL     1       1.705   2.088  19.647  0.00  0.00    +0.000 A 
ATOM     24  C   UNL     1       1.674   3.254  20.407  0.00  0.00    +0.000 A 
ATOM     25  C   UNL     1       2.644   4.238  20.210  0.00  0.00    +0.000 A 
ATOM     26  F   UNL     1       2.571   5.346  20.963  0.00  0.00    +0.000 F 
ENDBRANCH  17  20
ENDBRANCH  15  16
ENDBRANCH   2  15
TORSDOF 6
ENDMDL
MODEL 6
REMARK VINA RESULT:      -8.4      1.423      1.810
REMARK  Name = 
REMARK  7 active torsions:
REMARK  status: ('A' for Active; 'I' for Inactive)
REMARK    1  A    between atoms: C_1  and  C_2
REMARK    2  A    between atoms: C_2  and  C_3
REMARK    3  A    between atoms: C_3  and  C_4
REMARK    4  A    between atoms: N_10  and  N_11
REMARK    5  A    between atoms: C_12  and  C_14
REMARK    6  A    between atoms: C_14  and  N_15
REMARK    7  A    between atoms: C_16  and  C_18
REMARK                            x       y       z     vdW  Elec       q    Type
REMARK                         _______ _______ _______ _____ _____    ______ ____
ROOT
ATOM      1  N   UNL     1       7.561   5.004  16.651  0.00  0.00    +0.000 N 
ATOM      2  C   UNL     1       7.329   6.137  17.420  0.00  0.00    +0.000 C 
ATOM      3  O   UNL     1       7.087   7.262  16.983  0.00  0.00    +0.000 OA
ATOM      4  H   UNL     1       7.505   4.091  17.098  0.00  0.00    +0.000 HD
ENDROOT
BRANCH   1   7
ATOM      5  C   UNL     1       5.288   4.305  15.152  0.00  0.00    +0.000 C 
ATOM      6  C   UNL     1       6.603   4.774  14.578  0.00  0.00    +0.000 C 
ATOM      7  N   UNL     1       7.633   5.120  15.295  0.00  0.00    +0.000 NA
BRANCH   6   8
ATOM      8  C   UNL     1       6.719   4.890  13.066  0.00  0.00    +0.000 C 
BRANCH   8   9
ATOM      9  C   UNL     1       6.499   3.595  12.319  0.00  0.00    +0.000 A 
ATOM     10  C   UNL     1       5.199   3.153  12.026  0.00  0.00    +0.000 A 
ATOM     11  C   UNL     1       4.994   2.009  11.251  0.00  0.00    +0.000 A 
ATOM     12  C   UNL     1       6.084   1.293  10.757  0.00  0.00    +0.000 A 
ATOM     13  C   UNL     1       7.380   1.719  11.042  0.00  0.00    +0.000 A 
ATOM     14  C   UNL     1       7.587   2.865  11.816  0.00  0.00    +0.000 A 
ENDBRANCH   8   9
ENDBRANCH   6   8
ENDBRANCH   1   7
BRANCH   2  15
ATOM     15  C   UNL     1       7.287   5.838  18.915  0.00  0.00    +0.000 C 
BRANCH  15  16
ATOM     16  N   UNL     1       5.924   5.640  19.367  0.00  0.00    +0.000 N 
ATOM     17  C   UNL     1       5.252   4.458  19.159  0.00  0.00    +0.000 C 
ATOM     18  O   UNL     1       5.774   3.515  18.568  0.00  0.00    +0.000 OA
ATOM     19  H   UNL     1       5.415   6.458  19.687  0.00  0.00    +0.000 HD
BRANCH  17  20
ATOM     20  C   UNL     1       3.854   4.364  19.673  0.00  0.00    +0.000 A 
ATOM     21  C   UNL     1       3.085   5.535  19.752  0.00  0.00    +0.000 A 
ATOM     22  C   UNL     1       1.767   5.490  20.222  0.00  0.00    +0.000 A 
ATOM     23  C   UNL     1       1.207   4.278  20.621  0.00  0.00    +0.000 A 
ATOM     24  C   UNL     1       1.957   3.108  20.540  0.00  0.00    +0.000 A 
ATOM     25  C   UNL     1       3.271   3.157  20.071  0.00  0.00    +0.000 A 
ATOM     26  F   UNL     1       3.956   2.004  20.014  0.00  0.00    +0.000 F 
ENDBRANCH  17  20
ENDBRANCH  15  16
ENDBRANCH   2  15
TORSDOF 6
ENDMDL
MODEL 7
REMARK VINA RESULT:      -8.2      5.218      7.641
REMARK  Name = 
REMARK  7 active torsions:
REMARK  status: ('A' for Active; 'I' for Inactive)
REMARK    1  A    between atoms: C_1  and  C_2
REMARK    2  A    between atoms: C_2  and  C_3
REMARK    3  A    between atoms: C_3  and  C_4
REMARK    4  A    between atoms: N_10  and  N_11
REMARK    5  A    between atoms: C_12  and  C_14
REMARK    6  A    between atoms: C_14  and  N_15
REMARK    7  A    between atoms: C_16  and  C_18
REMARK                            x       y       z     vdW  Elec       q    Type
REMARK                         _______ _______ _______ _____ _____    ______ ____
ROOT
ATOM      1  N   UNL     1       8.254   7.996  18.362  0.00  0.00    +0.000 N 
ATOM      2  C   UNL     1       7.520   6.961  17.797  0.00  0.00    +0.000 C 
ATOM      3  O   UNL     1       6.911   7.015  16.729  0.00  0.00    +0.000 OA
ATOM      4  H   UNL     1       8.912   7.778  19.108  0.00  0.00    +0.000 HD
ENDROOT
BRANCH   1   7
ATOM      5  C   UNL     1       9.412  10.140  19.764  0.00  0.00    +0.000 C 
ATOM      6  C   UNL     1       8.751  10.236  18.409  0.00  0.00    +0.000 C 
ATOM      7  N   UNL     1       8.247   9.222  17.768  0.00  0.00    +0.000 NA
BRANCH   6   8
ATOM      8  C   UNL     1       8.708  11.597  17.734  0.00  0.00    +0.000 C 
BRANCH   8   9
ATOM      9  C   UNL     1       9.877  12.498  18.063  0.00  0.00    +0.000 A 
ATOM     10  C   UNL     1      11.127  12.293  17.459  0.00  0.00    +0.000 A 
ATOM     11  C   UNL     1      12.181  13.182  17.685  0.00  0.00    +0.000 A 
ATOM     12  C   UNL     1      11.999  14.287  18.515  0.00  0.00    +0.000 A 
ATOM     13  C   UNL     1      10.764  14.501  19.123  0.00  0.00    +0.000 A 
ATOM     14  C   UNL     1       9.708  13.615  18.897  0.00  0.00    +0.000 A 
ENDBRANCH   8   9
ENDBRANCH   6   8
ENDBRANCH   1   7
BRANCH   2  15
ATOM     15  C   UNL     1       7.627   5.660  18.587  0.00  0.00    +0.000 C 
BRANCH  15  16
ATOM     16  N   UNL     1       6.382   5.359  19.263  0.00  0.00    +0.000 N 
ATOM     17  C   UNL     1       5.414   4.568  18.688  0.00  0.00    +0.000 C 
ATOM     18  O   UNL     1       5.556   4.089  17.565  0.00  0.00    +0.000 OA
ATOM     19  H   UNL     1       6.165   5.889  20.102  0.00  0.00    +0.000 HD
BRANCH  17  20
ATOM     20  C   UNL     1       4.173   4.318  19.479  0.00  0.00    +0.000 A 
ATOM     21  C   UNL     1       3.297   5.389  19.713  0.00  0.00    +0.000 A 
ATOM     22  C   UNL     1       2.119   5.197  20.444  0.00  0.00    +0.000 A 
ATOM     23  C   UNL     1       1.806   3.937  20.951  0.00  0.00    +0.000 A 
ATOM     24  C   UNL     1       2.664   2.865  20.718  0.00  0.00    +0.000 A 
ATOM     25  C   UNL     1       3.838   3.060  19.989  0.00  0.00    +0.000 A 
ATOM     26  F   UNL     1       4.635   1.998  19.794  0.00  0.00    +0.000 F 
ENDBRANCH  17  20
ENDBRANCH  15  16
ENDBRANCH   2  15
TORSDOF 6
ENDMDL
MODEL 8
REMARK VINA RESULT:      -8.2      2.085      7.148
REMARK  Name = 
REMARK  7 active torsions:
REMARK  status: ('A' for Active; 'I' for Inactive)
REMARK    1  A    between atoms: C_1  and  C_2
REMARK    2  A    between atoms: C_2  and  C_3
REMARK    3  A    between atoms: C_3  and  C_4
REMARK    4  A    between atoms: N_10  and  N_11
REMARK    5  A    between atoms: C_12  and  C_14
REMARK    6  A    between atoms: C_14  and  N_15
REMARK    7  A    between atoms: C_16  and  C_18
REMARK                            x       y       z     vdW  Elec       q    Type
REMARK                         _______ _______ _______ _____ _____    ______ ____
ROOT
ATOM      1  N   UNL     1       5.188   6.204  18.049  0.00  0.00    +0.000 N 
ATOM      2  C   UNL     1       6.505   5.911  18.376  0.00  0.00    +0.000 C 
ATOM      3  O   UNL     1       6.872   5.258  19.352  0.00  0.00    +0.000 OA
ATOM      4  H   UNL     1       4.979   6.530  17.107  0.00  0.00    +0.000 HD
ENDROOT
BRANCH   1   7
ATOM      5  C   UNL     1       2.846   7.760  18.069  0.00  0.00    +0.000 C 
ATOM      6  C   UNL     1       3.109   6.563  18.952  0.00  0.00    +0.000 C 
ATOM      7  N   UNL     1       4.190   5.842  18.904  0.00  0.00    +0.000 NA
BRANCH   6   8
ATOM      8  C   UNL     1       2.021   6.151  19.932  0.00  0.00    +0.000 C 
BRANCH   8   9
ATOM      9  C   UNL     1       1.769   4.662  19.999  0.00  0.00    +0.000 A 
ATOM     10  C   UNL     1       1.920   3.967  21.209  0.00  0.00    +0.000 A 
ATOM     11  C   UNL     1       1.593   2.612  21.297  0.00  0.00    +0.000 A 
ATOM     12  C   UNL     1       1.108   1.935  20.179  0.00  0.00    +0.000 A 
ATOM     13  C   UNL     1       0.954   2.612  18.971  0.00  0.00    +0.000 A 
ATOM     14  C   UNL     1       1.279   3.968  18.881  0.00  0.00    +0.000 A 
ENDBRANCH   8   9
ENDBRANCH   6   8
ENDBRANCH   1   7
BRANCH   2  15
ATOM     15  C   UNL     1       7.496   6.391  17.320  0.00  0.00    +0.000 C 
BRANCH  15  16
ATOM     16  N   UNL     1       7.417   5.576  16.125  0.00  0.00    +0.000 N 
ATOM     17  C   UNL     1       6.459   5.788  15.161  0.00  0.00    +0.000 C 
ATOM     18  O   UNL     1       5.615   6.674  15.274  0.00  0.00    +0.000 OA
ATOM     19  H   UNL     1       7.979   4.730  16.098  0.00  0.00    +0.000 HD
BRANCH  17  20
ATOM     20  C   UNL     1       6.475   4.891  13.967  0.00  0.00    +0.000 A 
ATOM     21  C   UNL     1       5.418   3.985  13.792  0.00  0.00    +0.000 A 
ATOM     22  C   UNL     1       5.391   3.130  12.683  0.00  0.00    +0.000 A 
ATOM     23  C   UNL     1       6.420   3.169  11.743  0.00  0.00    +0.000 A 
ATOM     24  C   UNL     1       7.470   4.070  11.903  0.00  0.00    +0.000 A 
ATOM     25  C   UNL     1       7.493   4.921  13.010  0.00  0.00    +0.000 A 
ATOM     26  F   UNL     1       8.528   5.768  13.123  0.00  0.00    +0.000 F 
ENDBRANCH  17  20
ENDBRANCH  15  16
ENDBRANCH   2  15
TORSDOF 6
ENDMDL
MODEL 9
REMARK VINA RESULT:      -8.2      1.431      1.907
REMARK  Name = 
REMARK  7 active torsions:
REMARK  status: ('A' for Active; 'I' for Inactive)
REMARK    1  A    between atoms: C_1  and  C_2
REMARK    2  A    between atoms: C_2  and  C_3
REMARK    3  A    between atoms: C_3  and  C_4
REMARK    4  A    between atoms: N_10  and  N_11
REMARK    5  A    between atoms: C_12  and  C_14
REMARK    6  A    between atoms: C_14  and  N_15
REMARK    7  A    between atoms: C_16  and  C_18
REMARK                            x       y       z     vdW  Elec       q    Type
REMARK                         _______ _______ _______ _____ _____    ______ ____
ROOT
ATOM      1  N   UNL     1       6.805   5.767  16.819  0.00  0.00    +0.000 N 
ATOM      2  C   UNL     1       7.323   4.951  17.816  0.00  0.00    +0.000 C 
ATOM      3  O   UNL     1       8.259   4.163  17.682  0.00  0.00    +0.000 OA
ATOM      4  H   UNL     1       6.209   6.548  17.088  0.00  0.00    +0.000 HD
ENDROOT
BRANCH   1   7
ATOM      5  C   UNL     1       5.263   4.304  14.979  0.00  0.00    +0.000 C 
ATOM      6  C   UNL     1       6.595   4.952  14.684  0.00  0.00    +0.000 C 
ATOM      7  N   UNL     1       7.276   5.649  15.546  0.00  0.00    +0.000 NA
BRANCH   6   8
ATOM      8  C   UNL     1       7.155   4.816  13.277  0.00  0.00    +0.000 C 
BRANCH   8   9
ATOM      9  C   UNL     1       6.594   3.656  12.488  0.00  0.00    +0.000 A 
ATOM     10  C   UNL     1       5.223   3.589  12.197  0.00  0.00    +0.000 A 
ATOM     11  C   UNL     1       4.716   2.571  11.385  0.00  0.00    +0.000 A 
ATOM     12  C   UNL     1       5.574   1.609  10.851  0.00  0.00    +0.000 A 
ATOM     13  C   UNL     1       6.937   1.663  11.134  0.00  0.00    +0.000 A 
ATOM     14  C   UNL     1       7.446   2.681  11.944  0.00  0.00    +0.000 A 
ENDBRANCH   8   9
ENDBRANCH   6   8
ENDBRANCH   1   7
BRANCH   2  15
ATOM     15  C   UNL     1       6.684   5.203  19.178  0.00  0.00    +0.000 C 
BRANCH  15  16
ATOM     16  N   UNL     1       5.260   4.940  19.140  0.00  0.00    +0.000 N 
ATOM     17  C   UNL     1       4.738   3.707  19.453  0.00  0.00    +0.000 C 
ATOM     18  O   UNL     1       5.459   2.763  19.769  0.00  0.00    +0.000 OA
ATOM     19  H   UNL     1       4.667   5.642  18.707  0.00  0.00    +0.000 HD
BRANCH  17  20
ATOM     20  C   UNL     1       3.254   3.551  19.386  0.00  0.00    +0.000 A 
ATOM     21  C   UNL     1       2.598   3.870  18.188  0.00  0.00    +0.000 A 
ATOM     22  C   UNL     1       1.209   3.733  18.080  0.00  0.00    +0.000 A 
ATOM     23  C   UNL     1       0.463   3.281  19.167  0.00  0.00    +0.000 A 
ATOM     24  C   UNL     1       1.105   2.954  20.359  0.00  0.00    +0.000 A 
ATOM     25  C   UNL     1       2.490   3.092  20.463  0.00  0.00    +0.000 A 
ATOM     26  F   UNL     1       3.063   2.768  21.632  0.00  0.00    +0.000 F 
ENDBRANCH  17  20
ENDBRANCH  15  16
ENDBRANCH   2  15
TORSDOF 6
ENDMDL
