MODEL 1
REMARK VINA RESULT:      -7.2      0.000      0.000
REMARK  Name = 
REMARK  10 active torsions:
REMARK  status: ('A' for Active; 'I' for Inactive)
REMARK    1  A    between atoms: C_1  and  O_2
REMARK    2  A    between atoms: O_2  and  C_3
REMARK    3  A    between atoms: C_5  and  C_6
REMARK    4  A    between atoms: C_6  and  O_7
REMARK    5  A    between atoms: O_7  and  C_8
REMARK    6  A    between atoms: C_8  and  C_10
REMARK    7  A    between atoms: C_16  and  O_17
REMARK    8  A    between atoms: O_17  and  C_18
REMARK    9  A    between atoms: C_19  and  O_20
REMARK   10  A    between atoms: O_20  and  C_21
REMARK                            x       y       z     vdW  Elec       q    Type
REMARK                         _______ _______ _______ _____ _____    ______ ____
ROOT
ATOM      1  C   UNL     1       2.508   3.559  18.455  0.00  0.00    +0.000 A 
ATOM      2  C   UNL     1       3.322   4.287  17.575  0.00  0.00    +0.000 A 
ATOM      3  C   UNL     1       3.680   5.603  17.850  0.00  0.00    +0.000 A 
ATOM      4  C   UNL     1       3.066   6.248  18.920  0.00  0.00    +0.000 A 
ATOM      5  C   UNL     1       2.162   5.575  19.758  0.00  0.00    +0.000 A 
ATOM      6  C   UNL     1       1.891   4.204  19.551  0.00  0.00    +0.000 A 
ENDROOT
BRANCH   1   8
ATOM      7  C   UNL     1       3.468   1.394  18.406  0.00  0.00    +0.000 C 
ATOM      8  O   UNL     1       2.312   2.219  18.233  0.00  0.00    +0.000 OA
ENDBRANCH   1   8
BRANCH   5   9
ATOM      9  O   UNL     1       1.690   6.411  20.741  0.00  0.00    +0.000 OA
ATOM     10  C   UNL     1       1.691   7.813  20.530  0.00  0.00    +0.000 C 
ENDBRANCH   5   9
BRANCH   6  11
ATOM     11  O   UNL     1       1.036   3.621  20.447  0.00  0.00    +0.000 OA
ATOM     12  C   UNL     1       1.522   2.858  21.536  0.00  0.00    +0.000 C 
ENDBRANCH   6  11
BRANCH   3  13
ATOM     13  C   UNL     1       4.767   6.269  17.053  0.00  0.00    +0.000 C 
BRANCH  13  14
ATOM     14  O   UNL     1       6.016   6.204  17.726  0.00  0.00    +0.000 OA
BRANCH  14  15
ATOM     15  C   UNL     1       6.742   5.078  17.488  0.00  0.00    +0.000 C 
ATOM     16  O   UNL     1       7.336   4.426  18.339  0.00  0.00    +0.000 OA
BRANCH  15  17
ATOM     17  C   UNL     1       6.716   4.784  16.079  0.00  0.00    +0.000 A 
ATOM     18  C   UNL     1       6.018   3.828  15.359  0.00  0.00    +0.000 A 
ATOM     19  C   UNL     1       6.385   3.986  14.007  0.00  0.00    +0.000 A 
ATOM     20  C   UNL     1       7.292   5.018  13.970  0.00  0.00    +0.000 A 
ATOM     21  O   UNL     1       7.497   5.509  15.216  0.00  0.00    +0.000 OA
ENDBRANCH  15  17
ENDBRANCH  14  15
ENDBRANCH  13  14
ENDBRANCH   3  13
TORSDOF 7
ENDMDL
MODEL 2
REMARK VINA RESULT:      -7.0      1.017      3.043
REMARK  Name = 
REMARK  10 active torsions:
REMARK  status: ('A' for Active; 'I' for Inactive)
REMARK    1  A    between atoms: C_1  and  O_2
REMARK    2  A    between atoms: O_2  and  C_3
REMARK    3  A    between atoms: C_5  and  C_6
REMARK    4  A    between atoms: C_6  and  O_7
REMARK    5  A    between atoms: O_7  and  C_8
REMARK    6  A    between atoms: C_8  and  C_10
REMARK    7  A    between atoms: C_16  and  O_17
REMARK    8  A    between atoms: O_17  and  C_18
REMARK    9  A    between atoms: C_19  and  O_20
REMARK   10  A    between atoms: O_20  and  C_21
REMARK                            x       y       z     vdW  Elec       q    Type
REMARK                         _______ _______ _______ _____ _____    ______ ____
ROOT
ATOM      1  C   UNL     1       2.914   6.193  19.075  0.00  0.00    +0.000 A 
ATOM      2  C   UNL     1       3.900   6.611  18.169  0.00  0.00    +0.000 A 
ATOM      3  C   UNL     1       4.303   5.794  17.118  0.00  0.00    +0.000 A 
ATOM      4  C   UNL     1       3.846   4.478  17.088  0.00  0.00    +0.000 A 
ATOM      5  C   UNL     1       2.939   3.998  18.046  0.00  0.00    +0.000 A 
ATOM      6  C   UNL     1       2.437   4.864  19.043  0.00  0.00    +0.000 A 
ENDROOT
BRANCH   1   8
ATOM      7  C   UNL     1       1.767   8.232  19.450  0.00  0.00    +0.000 C 
ATOM      8  O   UNL     1       2.429   7.087  19.997  0.00  0.00    +0.000 OA
ENDBRANCH   1   8
BRANCH   5   9
ATOM      9  O   UNL     1       2.633   2.679  17.811  0.00  0.00    +0.000 OA
ATOM     10  C   UNL     1       3.433   1.659  18.385  0.00  0.00    +0.000 C 
ENDBRANCH   5   9
BRANCH   6  11
ATOM     11  O   UNL     1       1.521   4.319  19.902  0.00  0.00    +0.000 OA
ATOM     12  C   UNL     1       1.916   3.786  21.154  0.00  0.00    +0.000 C 
ENDBRANCH   6  11
BRANCH   3  13
ATOM     13  C   UNL     1       5.141   6.357  16.005  0.00  0.00    +0.000 C 
BRANCH  13  14
ATOM     14  O   UNL     1       6.521   6.344  16.339  0.00  0.00    +0.000 OA
BRANCH  14  15
ATOM     15  C   UNL     1       7.158   5.163  16.117  0.00  0.00    +0.000 C 
ATOM     16  O   UNL     1       7.740   4.503  16.970  0.00  0.00    +0.000 OA
BRANCH  15  17
ATOM     17  C   UNL     1       7.056   4.822  14.722  0.00  0.00    +0.000 A 
ATOM     18  C   UNL     1       6.271   3.888  14.067  0.00  0.00    +0.000 A 
ATOM     19  C   UNL     1       6.591   3.975  12.696  0.00  0.00    +0.000 A 
ATOM     20  C   UNL     1       7.559   4.945  12.585  0.00  0.00    +0.000 A 
ATOM     21  O   UNL     1       7.845   5.466  13.803  0.00  0.00    +0.000 OA
ENDBRANCH  15  17
ENDBRANCH  14  15
ENDBRANCH  13  14
ENDBRANCH   3  13
TORSDOF 7
ENDMDL
MODEL 3
REMARK VINA RESULT:      -7.0      1.504      5.971
REMARK  Name = 
REMARK  10 active torsions:
REMARK  status: ('A' for Active; 'I' for Inactive)
REMARK    1  A    between atoms: C_1  and  O_2
REMARK    2  A    between atoms: O_2  and  C_3
REMARK    3  A    between atoms: C_5  and  C_6
REMARK    4  A    between atoms: C_6  and  O_7
REMARK    5  A    between atoms: O_7  and  C_8
REMARK    6  A    between atoms: C_8  and  C_10
REMARK    7  A    between atoms: C_16  and  O_17
REMARK    8  A    between atoms: O_17  and  C_18
REMARK    9  A    between atoms: C_19  and  O_20
REMARK   10  A    between atoms: O_20  and  C_21
REMARK                            x       y       z     vdW  Elec       q    Type
REMARK                         _______ _______ _______ _____ _____    ______ ____
ROOT
ATOM      1  C   UNL     1       6.039   5.012  16.295  0.00  0.00    +0.000 A 
ATOM      2  C   UNL     1       5.149   3.953  16.533  0.00  0.00    +0.000 A 
ATOM      3  C   UNL     1       3.882   4.184  17.058  0.00  0.00    +0.000 A 
ATOM      4  C   UNL     1       3.578   5.463  17.520  0.00  0.00    +0.000 A 
ATOM      5  C   UNL     1       4.491   6.522  17.393  0.00  0.00    +0.000 A 
ATOM      6  C   UNL     1       5.732   6.314  16.749  0.00  0.00    +0.000 A 
ENDROOT
BRANCH   1   8
ATOM      7  C   UNL     1       7.081   4.559  14.217  0.00  0.00    +0.000 C 
ATOM      8  O   UNL     1       7.212   4.764  15.627  0.00  0.00    +0.000 OA
ENDBRANCH   1   8
BRANCH   5   9
ATOM      9  O   UNL     1       3.971   7.681  17.915  0.00  0.00    +0.000 OA
ATOM     10  C   UNL     1       2.586   7.760  18.210  0.00  0.00    +0.000 C 
ENDBRANCH   5   9
BRANCH   6  11
ATOM     11  O   UNL     1       6.535   7.416  16.630  0.00  0.00    +0.000 OA
ATOM     12  C   UNL     1       7.580   7.666  17.553  0.00  0.00    +0.000 C 
ENDBRANCH   6  11
BRANCH   3  13
ATOM     13  C   UNL     1       2.850   3.092  17.043  0.00  0.00    +0.000 C 
BRANCH  13  14
ATOM     14  O   UNL     1       1.589   3.564  17.493  0.00  0.00    +0.000 OA
BRANCH  14  15
ATOM     15  C   UNL     1       1.009   2.818  18.471  0.00  0.00    +0.000 C 
ATOM     16  O   UNL     1       0.190   1.925  18.287  0.00  0.00    +0.000 OA
BRANCH  15  17
ATOM     17  C   UNL     1       1.494   3.254  19.754  0.00  0.00    +0.000 A 
ATOM     18  C   UNL     1       1.830   2.540  20.893  0.00  0.00    +0.000 A 
ATOM     19  C   UNL     1       2.235   3.482  21.861  0.00  0.00    +0.000 A 
ATOM     20  C   UNL     1       2.118   4.718  21.271  0.00  0.00    +0.000 A 
ATOM     21  O   UNL     1       1.673   4.592  19.997  0.00  0.00    +0.000 OA
ENDBRANCH  15  17
ENDBRANCH  14  15
ENDBRANCH  13  14
ENDBRANCH   3  13
TORSDOF 7
ENDMDL
MODEL 4
REMARK VINA RESULT:      -6.9      1.638      2.656
REMARK  Name = 
REMARK  10 active torsions:
REMARK  status: ('A' for Active; 'I' for Inactive)
REMARK    1  A    between atoms: C_1  and  O_2
REMARK    2  A    between atoms: O_2  and  C_3
REMARK    3  A    between atoms: C_5  and  C_6
REMARK    4  A    between atoms: C_6  and  O_7
REMARK    5  A    between atoms: O_7  and  C_8
REMARK    6  A    between atoms: C_8  and  C_10
REMARK    7  A    between atoms: C_16  and  O_17
REMARK    8  A    between atoms: O_17  and  C_18
REMARK    9  A    between atoms: C_19  and  O_20
REMARK   10  A    between atoms: O_20  and  C_21
REMARK                            x       y       z     vdW  Elec       q    Type
REMARK                         _______ _______ _______ _____ _____    ______ ____
ROOT
ATOM      1  C   UNL     1       3.585   3.242  18.831  0.00  0.00    +0.000 A 
ATOM      2  C   UNL     1       4.018   3.197  17.497  0.00  0.00    +0.000 A 
ATOM      3  C   UNL     1       4.211   4.364  16.765  0.00  0.00    +0.000 A 
ATOM      4  C   UNL     1       3.789   5.571  17.317  0.00  0.00    +0.000 A 
ATOM      5  C   UNL     1       3.251   5.634  18.613  0.00  0.00    +0.000 A 
ATOM      6  C   UNL     1       3.167   4.464  19.402  0.00  0.00    +0.000 A 
ENDROOT
BRANCH   1   8
ATOM      7  C   UNL     1       4.727   1.844  20.366  0.00  0.00    +0.000 C 
ATOM      8  O   UNL     1       3.564   2.084  19.568  0.00  0.00    +0.000 OA
ENDBRANCH   1   8
BRANCH   5   9
ATOM      9  O   UNL     1       2.911   6.924  18.940  0.00  0.00    +0.000 OA
ATOM     10  C   UNL     1       2.825   7.907  17.922  0.00  0.00    +0.000 C 
ENDBRANCH   5   9
BRANCH   6  11
ATOM     11  O   UNL     1       2.675   4.632  20.668  0.00  0.00    +0.000 OA
ATOM     12  C   UNL     1       1.418   4.096  21.044  0.00  0.00    +0.000 C 
ENDBRANCH   6  11
BRANCH   3  13
ATOM     13  C   UNL     1       4.936   4.316  15.449  0.00  0.00    +0.000 C 
BRANCH  13  14
ATOM     14  O   UNL     1       6.298   3.954  15.621  0.00  0.00    +0.000 OA
BRANCH  14  15
ATOM     15  C   UNL     1       7.190   4.968  15.461  0.00  0.00    +0.000 C 
ATOM     16  O   UNL     1       7.701   5.298  14.397  0.00  0.00    +0.000 OA
BRANCH  15  17
ATOM     17  C   UNL     1       7.450   5.580  16.737  0.00  0.00    +0.000 A 
ATOM     18  C   UNL     1       7.568   5.033  18.004  0.00  0.00    +0.000 A 
ATOM     19  C   UNL     1       7.814   6.103  18.890  0.00  0.00    +0.000 A 
ATOM     20  C   UNL     1       7.824   7.245  18.125  0.00  0.00    +0.000 A 
ATOM     21  O   UNL     1       7.608   6.941  16.822  0.00  0.00    +0.000 OA
ENDBRANCH  15  17
ENDBRANCH  14  15
ENDBRANCH  13  14
ENDBRANCH   3  13
TORSDOF 7
ENDMDL
MODEL 5
REMARK VINA RESULT:      -6.9      1.658      6.524
REMARK  Name = 
REMARK  10 active torsions:
REMARK  status: ('A' for Active; 'I' for Inactive)
REMARK    1  A    between atoms: C_1  and  O_2
REMARK    2  A    between atoms: O_2  and  C_3
REMARK    3  A    between atoms: C_5  and  C_6
REMARK    4  A    between atoms: C_6  and  O_7
REMARK    5  A    between atoms: O_7  and  C_8
REMARK    6  A    between atoms: C_8  and  C_10
REMARK    7  A    between atoms: C_16  and  O_17
REMARK    8  A    between atoms: O_17  and  C_18
REMARK    9  A    between atoms: C_19  and  O_20
REMARK   10  A    between atoms: O_20  and  C_21
REMARK                            x       y       z     vdW  Elec       q    Type
REMARK                         _______ _______ _______ _____ _____    ______ ____
ROOT
ATOM      1  C   UNL     1       4.401   6.530  17.383  0.00  0.00    +0.000 A 
ATOM      2  C   UNL     1       3.533   5.430  17.448  0.00  0.00    +0.000 A 
ATOM      3  C   UNL     1       3.954   4.160  17.068  0.00  0.00    +0.000 A 
ATOM      4  C   UNL     1       5.193   4.030  16.445  0.00  0.00    +0.000 A 
ATOM      5  C   UNL     1       6.042   5.135  16.269  0.00  0.00    +0.000 A 
ATOM      6  C   UNL     1       5.665   6.404  16.765  0.00  0.00    +0.000 A 
ENDROOT
BRANCH   1   8
ATOM      7  C   UNL     1       2.587   7.923  18.002  0.00  0.00    +0.000 C 
ATOM      8  O   UNL     1       4.002   7.730  17.918  0.00  0.00    +0.000 OA
ENDBRANCH   1   8
BRANCH   5   9
ATOM      9  O   UNL     1       7.204   4.764  15.637  0.00  0.00    +0.000 OA
ATOM     10  C   UNL     1       7.209   4.571  14.233  0.00  0.00    +0.000 C 
ENDBRANCH   5   9
BRANCH   6  11
ATOM     11  O   UNL     1       6.577   7.409  16.590  0.00  0.00    +0.000 OA
ATOM     12  C   UNL     1       7.572   7.675  17.562  0.00  0.00    +0.000 C 
ENDBRANCH   6  11
BRANCH   3  13
ATOM     13  C   UNL     1       3.117   2.957  17.404  0.00  0.00    +0.000 C 
BRANCH  13  14
ATOM     14  O   UNL     1       1.736   3.283  17.446  0.00  0.00    +0.000 OA
BRANCH  14  15
ATOM     15  C   UNL     1       1.036   2.703  18.458  0.00  0.00    +0.000 C 
ATOM     16  O   UNL     1       0.119   1.902  18.314  0.00  0.00    +0.000 OA
BRANCH  15  17
ATOM     17  C   UNL     1       1.530   3.189  19.719  0.00  0.00    +0.000 A 
ATOM     18  C   UNL     1       1.531   4.460  20.270  0.00  0.00    +0.000 A 
ATOM     19  C   UNL     1       2.157   4.360  21.529  0.00  0.00    +0.000 A 
ATOM     20  C   UNL     1       2.515   3.042  21.680  0.00  0.00    +0.000 A 
ATOM     21  O   UNL     1       2.139   2.324  20.593  0.00  0.00    +0.000 OA
ENDBRANCH  15  17
ENDBRANCH  14  15
ENDBRANCH  13  14
ENDBRANCH   3  13
TORSDOF 7
ENDMDL
MODEL 6
REMARK VINA RESULT:      -6.8      1.474      1.798
REMARK  Name = 
REMARK  10 active torsions:
REMARK  status: ('A' for Active; 'I' for Inactive)
REMARK    1  A    between atoms: C_1  and  O_2
REMARK    2  A    between atoms: O_2  and  C_3
REMARK    3  A    between atoms: C_5  and  C_6
REMARK    4  A    between atoms: C_6  and  O_7
REMARK    5  A    between atoms: O_7  and  C_8
REMARK    6  A    between atoms: C_8  and  C_10
REMARK    7  A    between atoms: C_16  and  O_17
REMARK    8  A    between atoms: O_17  and  C_18
REMARK    9  A    between atoms: C_19  and  O_20
REMARK   10  A    between atoms: O_20  and  C_21
REMARK                            x       y       z     vdW  Elec       q    Type
REMARK                         _______ _______ _______ _____ _____    ______ ____
ROOT
ATOM      1  C   UNL     1       3.814   3.450  19.295  0.00  0.00    +0.000 A 
ATOM      2  C   UNL     1       5.146   3.866  19.151  0.00  0.00    +0.000 A 
ATOM      3  C   UNL     1       5.465   5.207  18.965  0.00  0.00    +0.000 A 
ATOM      4  C   UNL     1       4.429   6.109  18.737  0.00  0.00    +0.000 A 
ATOM      5  C   UNL     1       3.085   5.703  18.768  0.00  0.00    +0.000 A 
ATOM      6  C   UNL     1       2.758   4.363  19.077  0.00  0.00    +0.000 A 
ENDROOT
BRANCH   1   8
ATOM      7  C   UNL     1       3.566   1.214  18.554  0.00  0.00    +0.000 C 
ATOM      8  O   UNL     1       3.551   2.147  19.638  0.00  0.00    +0.000 OA
ENDBRANCH   1   8
BRANCH   5   9
ATOM      9  O   UNL     1       2.247   6.762  18.519  0.00  0.00    +0.000 OA
ATOM     10  C   UNL     1       2.780   7.978  18.021  0.00  0.00    +0.000 C 
ENDBRANCH   5   9
BRANCH   6  11
ATOM     11  O   UNL     1       1.421   4.072  19.132  0.00  0.00    +0.000 OA
ATOM     12  C   UNL     1       0.767   3.857  20.370  0.00  0.00    +0.000 C 
ENDBRANCH   6  11
BRANCH   3  13
ATOM     13  C   UNL     1       6.889   5.667  19.095  0.00  0.00    +0.000 C 
BRANCH  13  14
ATOM     14  O   UNL     1       7.621   5.429  17.902  0.00  0.00    +0.000 OA
BRANCH  14  15
ATOM     15  C   UNL     1       7.332   6.268  16.871  0.00  0.00    +0.000 C 
ATOM     16  O   UNL     1       7.424   7.490  16.907  0.00  0.00    +0.000 OA
BRANCH  15  17
ATOM     17  C   UNL     1       6.885   5.498  15.740  0.00  0.00    +0.000 A 
ATOM     18  C   UNL     1       5.715   4.790  15.524  0.00  0.00    +0.000 A 
ATOM     19  C   UNL     1       5.816   4.214  14.241  0.00  0.00    +0.000 A 
ATOM     20  C   UNL     1       7.042   4.588  13.744  0.00  0.00    +0.000 A 
ATOM     21  O   UNL     1       7.695   5.366  14.641  0.00  0.00    +0.000 OA
ENDBRANCH  15  17
ENDBRANCH  14  15
ENDBRANCH  13  14
ENDBRANCH   3  13
TORSDOF 7
ENDMDL
MODEL 7
REMARK VINA RESULT:      -6.8      1.446      1.791
REMARK  Name = 
REMARK  10 active torsions:
REMARK  status: ('A' for Active; 'I' for Inactive)
REMARK    1  A    between atoms: C_1  and  O_2
REMARK    2  A    between atoms: O_2  and  C_3
REMARK    3  A    between atoms: C_5  and  C_6
REMARK    4  A    between atoms: C_6  and  O_7
REMARK    5  A    between atoms: O_7  and  C_8
REMARK    6  A    between atoms: C_8  and  C_10
REMARK    7  A    between atoms: C_16  and  O_17
REMARK    8  A    between atoms: O_17  and  C_18
REMARK    9  A    between atoms: C_19  and  O_20
REMARK   10  A    between atoms: O_20  and  C_21
REMARK                            x       y       z     vdW  Elec       q    Type
REMARK                         _______ _______ _______ _____ _____    ______ ____
ROOT
ATOM      1  C   UNL     1       3.991   4.013  18.695  0.00  0.00    +0.000 A 
ATOM      2  C   UNL     1       4.487   4.383  17.436  0.00  0.00    +0.000 A 
ATOM      3  C   UNL     1       4.411   5.699  16.992  0.00  0.00    +0.000 A 
ATOM      4  C   UNL     1       3.665   6.609  17.737  0.00  0.00    +0.000 A 
ATOM      5  C   UNL     1       3.064   6.240  18.952  0.00  0.00    +0.000 A 
ATOM      6  C   UNL     1       3.245   4.934  19.463  0.00  0.00    +0.000 A 
ENDROOT
BRANCH   1   8
ATOM      7  C   UNL     1       3.398   1.721  18.610  0.00  0.00    +0.000 C 
ATOM      8  O   UNL     1       4.231   2.745  19.163  0.00  0.00    +0.000 OA
ENDBRANCH   1   8
BRANCH   5   9
ATOM      9  O   UNL     1       2.388   7.299  19.506  0.00  0.00    +0.000 OA
ATOM     10  C   UNL     1       2.052   8.416  18.700  0.00  0.00    +0.000 C 
ENDBRANCH   5   9
BRANCH   6  11
ATOM     11  O   UNL     1       2.662   4.682  20.676  0.00  0.00    +0.000 OA
ATOM     12  C   UNL     1       1.350   4.156  20.765  0.00  0.00    +0.000 C 
ENDBRANCH   6  11
BRANCH   3  13
ATOM     13  C   UNL     1       5.189   6.131  15.780  0.00  0.00    +0.000 C 
BRANCH  13  14
ATOM     14  O   UNL     1       6.582   6.171  16.048  0.00  0.00    +0.000 OA
BRANCH  14  15
ATOM     15  C   UNL     1       7.251   5.012  15.803  0.00  0.00    +0.000 C 
ATOM     16  O   UNL     1       7.917   4.393  16.625  0.00  0.00    +0.000 OA
BRANCH  15  17
ATOM     17  C   UNL     1       7.067   4.638  14.426  0.00  0.00    +0.000 A 
ATOM     18  C   UNL     1       7.652   5.115  13.264  0.00  0.00    +0.000 A 
ATOM     19  C   UNL     1       7.086   4.391  12.194  0.00  0.00    +0.000 A 
ATOM     20  C   UNL     1       6.182   3.519  12.752  0.00  0.00    +0.000 A 
ATOM     21  O   UNL     1       6.163   3.658  14.099  0.00  0.00    +0.000 OA
ENDBRANCH  15  17
ENDBRANCH  14  15
ENDBRANCH  13  14
ENDBRANCH   3  13
TORSDOF 7
ENDMDL
MODEL 8
REMARK VINA RESULT:      -6.7      1.720      6.489
REMARK  Name = 
REMARK  10 active torsions:
REMARK  status: ('A' for Active; 'I' for Inactive)
REMARK    1  A    between atoms: C_1  and  O_2
REMARK    2  A    between atoms: O_2  and  C_3
REMARK    3  A    between atoms: C_5  and  C_6
REMARK    4  A    between atoms: C_6  and  O_7
REMARK    5  A    between atoms: O_7  and  C_8
REMARK    6  A    between atoms: C_8  and  C_10
REMARK    7  A    between atoms: C_16  and  O_17
REMARK    8  A    between atoms: O_17  and  C_18
REMARK    9  A    between atoms: C_19  and  O_20
REMARK   10  A    between atoms: O_20  and  C_21
REMARK                            x       y       z     vdW  Elec       q    Type
REMARK                         _______ _______ _______ _____ _____    ______ ____
ROOT
ATOM      1  C   UNL     1       6.131   5.052  18.651  0.00  0.00    +0.000 A 
ATOM      2  C   UNL     1       5.028   4.192  18.761  0.00  0.00    +0.000 A 
ATOM      3  C   UNL     1       4.482   3.577  17.639  0.00  0.00    +0.000 A 
ATOM      4  C   UNL     1       4.929   3.974  16.381  0.00  0.00    +0.000 A 
ATOM      5  C   UNL     1       5.961   4.915  16.235  0.00  0.00    +0.000 A 
ATOM      6  C   UNL     1       6.599   5.449  17.378  0.00  0.00    +0.000 A 
ENDROOT
BRANCH   1   8
ATOM      7  C   UNL     1       8.141   5.232  19.891  0.00  0.00    +0.000 C 
ATOM      8  O   UNL     1       6.741   5.509  19.792  0.00  0.00    +0.000 OA
ENDBRANCH   1   8
BRANCH   5   9
ATOM      9  O   UNL     1       6.231   5.144  14.908  0.00  0.00    +0.000 OA
ATOM     10  C   UNL     1       6.077   4.094  13.968  0.00  0.00    +0.000 C 
ENDBRANCH   5   9
BRANCH   6  11
ATOM     11  O   UNL     1       7.625   6.321  17.136  0.00  0.00    +0.000 OA
ATOM     12  C   UNL     1       7.470   7.714  17.346  0.00  0.00    +0.000 C 
ENDBRANCH   6  11
BRANCH   3  13
ATOM     13  C   UNL     1       3.496   2.454  17.801  0.00  0.00    +0.000 C 
BRANCH  13  14
ATOM     14  O   UNL     1       2.179   2.870  17.469  0.00  0.00    +0.000 OA
BRANCH  14  15
ATOM     15  C   UNL     1       1.240   2.630  18.424  0.00  0.00    +0.000 C 
ATOM     16  O   UNL     1       0.246   1.929  18.276  0.00  0.00    +0.000 OA
BRANCH  15  17
ATOM     17  C   UNL     1       1.589   3.342  19.625  0.00  0.00    +0.000 A 
ATOM     18  C   UNL     1       1.673   4.699  19.890  0.00  0.00    +0.000 A 
ATOM     19  C   UNL     1       2.073   4.829  21.236  0.00  0.00    +0.000 A 
ATOM     20  C   UNL     1       2.223   3.551  21.720  0.00  0.00    +0.000 A 
ATOM     21  O   UNL     1       1.931   2.645  20.756  0.00  0.00    +0.000 OA
ENDBRANCH  15  17
ENDBRANCH  14  15
ENDBRANCH  13  14
ENDBRANCH   3  13
TORSDOF 7
ENDMDL
MODEL 9
REMARK VINA RESULT:      -6.7      1.027      1.488
REMARK  Name = 
REMARK  10 active torsions:
REMARK  status: ('A' for Active; 'I' for Inactive)
REMARK    1  A    between atoms: C_1  and  O_2
REMARK    2  A    between atoms: O_2  and  C_3
REMARK    3  A    between atoms: C_5  and  C_6
REMARK    4  A    between atoms: C_6  and  O_7
REMARK    5  A    between atoms: O_7  and  C_8
REMARK    6  A    between atoms: C_8  and  C_10
REMARK    7  A    between atoms: C_16  and  O_17
REMARK    8  A    between atoms: O_17  and  C_18
REMARK    9  A    between atoms: C_19  and  O_20
REMARK   10  A    between atoms: O_20  and  C_21
REMARK                            x       y       z     vdW  Elec       q    Type
REMARK                         _______ _______ _______ _____ _____    ______ ____
ROOT
ATOM      1  C   UNL     1       2.579   3.424  18.529  0.00  0.00    +0.000 A 
ATOM      2  C   UNL     1       3.331   4.002  17.494  0.00  0.00    +0.000 A 
ATOM      3  C   UNL     1       3.700   5.342  17.537  0.00  0.00    +0.000 A 
ATOM      4  C   UNL     1       3.154   6.150  18.532  0.00  0.00    +0.000 A 
ATOM      5  C   UNL     1       2.310   5.620  19.521  0.00  0.00    +0.000 A 
ATOM      6  C   UNL     1       2.032   4.235  19.548  0.00  0.00    +0.000 A 
ENDROOT
BRANCH   1   8
ATOM      7  C   UNL     1       3.562   1.269  18.496  0.00  0.00    +0.000 C 
ATOM      8  O   UNL     1       2.375   2.067  18.531  0.00  0.00    +0.000 OA
ENDBRANCH   1   8
BRANCH   5   9
ATOM      9  O   UNL     1       1.899   6.602  20.390  0.00  0.00    +0.000 OA
ATOM     10  C   UNL     1       1.850   7.950  19.956  0.00  0.00    +0.000 C 
ENDBRANCH   5   9
BRANCH   6  11
ATOM     11  O   UNL     1       1.239   3.804  20.578  0.00  0.00    +0.000 OA
ATOM     12  C   UNL     1       1.764   3.004  21.623  0.00  0.00    +0.000 C 
ENDBRANCH   6  11
BRANCH   3  13
ATOM     13  C   UNL     1       4.730   5.870  16.578  0.00  0.00    +0.000 C 
BRANCH  13  14
ATOM     14  O   UNL     1       5.705   4.885  16.272  0.00  0.00    +0.000 OA
BRANCH  14  15
ATOM     15  C   UNL     1       6.794   5.341  15.597  0.00  0.00    +0.000 C 
ATOM     16  O   UNL     1       7.624   6.126  16.042  0.00  0.00    +0.000 OA
BRANCH  15  17
ATOM     17  C   UNL     1       6.809   4.772  14.275  0.00  0.00    +0.000 A 
ATOM     18  C   UNL     1       7.606   5.040  13.175  0.00  0.00    +0.000 A 
ATOM     19  C   UNL     1       7.171   4.189  12.137  0.00  0.00    +0.000 A 
ATOM     20  C   UNL     1       6.128   3.456  12.650  0.00  0.00    +0.000 A 
ATOM     21  O   UNL     1       5.902   3.797  13.941  0.00  0.00    +0.000 OA
ENDBRANCH  15  17
ENDBRANCH  14  15
ENDBRANCH  13  14
ENDBRANCH   3  13
TORSDOF 7
ENDMDL
