MODEL 1
REMARK VINA RESULT:      -8.1      0.000      0.000
REMARK  Name = 
REMARK  10 active torsions:
REMARK  status: ('A' for Active; 'I' for Inactive)
REMARK    1  A    between atoms: C_2  and  C_3
REMARK    2  A    between atoms: C_3  and  O_4
REMARK    3  A    between atoms: O_4  and  C_5
REMARK    4  A    between atoms: C_10  and  C_11
REMARK    5  A    between atoms: C_19  and  O_20
REMARK    6  A    between atoms: O_20  and  C_21
REMARK    7  A    between atoms: C_21  and  C_22
REMARK    8  A    between atoms: C_28  and  O_29
REMARK    9  A    between atoms: O_29  and  C_30
REMARK   10  A    between atoms: C_30  and  C_31
REMARK                            x       y       z     vdW  Elec       q    Type
REMARK                         _______ _______ _______ _____ _____    ______ ____
ROOT
ATOM      1  C   UNL     1       2.029   7.537  20.311  0.00  0.00    +0.000 C 
ATOM      2  O   UNL     1       0.995   7.684  21.283  0.00  0.00    +0.000 OA
ATOM      3  C   UNL     1       0.893   9.030  21.697  0.00  0.00    +0.000 C 
ATOM      4  C   UNL     1      -0.024   9.166  22.905  0.00  0.00    +0.000 C 
ATOM      5  O   UNL     1      -0.193  10.537  23.256  0.00  0.00    +0.000 OA
ATOM      6  C   UNL     1      -0.692  11.285  22.151  0.00  0.00    +0.000 C 
ATOM      7  O   UNL     1       0.206  11.204  21.053  0.00  0.00    +0.000 OA
ATOM      8  C   UNL     1       0.315   9.864  20.572  0.00  0.00    +0.000 C 
ATOM      9  C   UNL     1       1.254   9.850  19.365  0.00  0.00    +0.000 C 
ATOM     10  C   UNL     1       1.779   8.417  19.047  0.00  0.00    +0.000 C 
ENDROOT
BRANCH   6  11
ATOM     11  C   UNL     1      -0.774  12.741  22.535  0.00  0.00    +0.000 A 
ATOM     12  C   UNL     1       0.081  13.685  21.940  0.00  0.00    +0.000 A 
ATOM     13  C   UNL     1       0.020  15.028  22.307  0.00  0.00    +0.000 A 
ATOM     14  C   UNL     1      -0.900  15.445  23.265  0.00  0.00    +0.000 A 
ATOM     15  C   UNL     1      -1.767  14.523  23.849  0.00  0.00    +0.000 A 
ATOM     16  C   UNL     1      -1.708  13.177  23.483  0.00  0.00    +0.000 A 
ENDBRANCH   6  11
BRANCH   1  17
ATOM     17  O   UNL     1       2.116   6.163  19.924  0.00  0.00    +0.000 OA
BRANCH  17  18
ATOM     18  C   UNL     1       1.646   5.301  20.957  0.00  0.00    +0.000 C 
BRANCH  18  20
ATOM     19  C   UNL     1       0.861   2.995  19.883  0.00  0.00    +0.000 C 
ATOM     20  C   UNL     1       1.198   4.036  20.368  0.00  0.00    +0.000 C 
ENDBRANCH  18  20
ENDBRANCH  17  18
ENDBRANCH   1  17
BRANCH   9  21
ATOM     21  O   UNL     1       0.580  10.378  18.194  0.00  0.00    +0.000 OA
BRANCH  21  22
ATOM     22  C   UNL     1      -0.395   9.489  17.632  0.00  0.00    +0.000 C 
BRANCH  22  23
ATOM     23  C   UNL     1      -1.722  10.173  17.461  0.00  0.00    +0.000 A 
ATOM     24  C   UNL     1      -2.184  11.066  18.442  0.00  0.00    +0.000 A 
ATOM     25  C   UNL     1      -3.430  11.685  18.299  0.00  0.00    +0.000 A 
ATOM     26  C   UNL     1      -4.202  11.429  17.170  0.00  0.00    +0.000 A 
ATOM     27  C   UNL     1      -3.736  10.566  16.178  0.00  0.00    +0.000 A 
ATOM     28  C   UNL     1      -2.498   9.946  16.323  0.00  0.00    +0.000 A 
ENDBRANCH  22  23
ENDBRANCH  21  22
ENDBRANCH   9  21
BRANCH  10  29
ATOM     29  O   UNL     1       2.939   8.443  18.181  0.00  0.00    +0.000 OA
BRANCH  29  30
ATOM     30  C   UNL     1       2.945   7.511  17.102  0.00  0.00    +0.000 C 
BRANCH  30  31
ATOM     31  C   UNL     1       4.169   6.648  17.208  0.00  0.00    +0.000 A 
ATOM     32  C   UNL     1       4.044   5.256  17.311  0.00  0.00    +0.000 A 
ATOM     33  C   UNL     1       5.176   4.461  17.483  0.00  0.00    +0.000 A 
ATOM     34  C   UNL     1       6.437   5.048  17.533  0.00  0.00    +0.000 A 
ATOM     35  C   UNL     1       6.574   6.428  17.387  0.00  0.00    +0.000 A 
ATOM     36  C   UNL     1       5.444   7.226  17.218  0.00  0.00    +0.000 A 
ENDBRANCH  30  31
ENDBRANCH  29  30
ENDBRANCH  10  29
TORSDOF 10
ENDMDL
MODEL 2
REMARK VINA RESULT:      -8.1      0.588      1.310
REMARK  Name = 
REMARK  10 active torsions:
REMARK  status: ('A' for Active; 'I' for Inactive)
REMARK    1  A    between atoms: C_2  and  C_3
REMARK    2  A    between atoms: C_3  and  O_4
REMARK    3  A    between atoms: O_4  and  C_5
REMARK    4  A    between atoms: C_10  and  C_11
REMARK    5  A    between atoms: C_19  and  O_20
REMARK    6  A    between atoms: O_20  and  C_21
REMARK    7  A    between atoms: C_21  and  C_22
REMARK    8  A    between atoms: C_28  and  O_29
REMARK    9  A    between atoms: O_29  and  C_30
REMARK   10  A    between atoms: C_30  and  C_31
REMARK                            x       y       z     vdW  Elec       q    Type
REMARK                         _______ _______ _______ _____ _____    ______ ____
ROOT
ATOM      1  C   UNL     1       2.018   7.341  20.265  0.00  0.00    +0.000 C 
ATOM      2  O   UNL     1       0.989   7.557  21.229  0.00  0.00    +0.000 OA
ATOM      3  C   UNL     1       0.949   8.916  21.614  0.00  0.00    +0.000 C 
ATOM      4  C   UNL     1       0.035   9.120  22.815  0.00  0.00    +0.000 C 
ATOM      5  O   UNL     1      -0.070  10.504  23.137  0.00  0.00    +0.000 OA
ATOM      6  C   UNL     1      -0.528  11.252  22.015  0.00  0.00    +0.000 C 
ATOM      7  O   UNL     1       0.369  11.106  20.923  0.00  0.00    +0.000 OA
ATOM      8  C   UNL     1       0.416   9.752  20.470  0.00  0.00    +0.000 C 
ATOM      9  C   UNL     1       1.357   9.668  19.267  0.00  0.00    +0.000 C 
ATOM     10  C   UNL     1       1.815   8.206  18.981  0.00  0.00    +0.000 C 
ENDROOT
BRANCH   6  11
ATOM     11  C   UNL     1      -0.541  12.718  22.368  0.00  0.00    +0.000 A 
ATOM     12  C   UNL     1      -1.411  13.206  23.359  0.00  0.00    +0.000 A 
ATOM     13  C   UNL     1      -1.439  14.562  23.674  0.00  0.00    +0.000 A 
ATOM     14  C   UNL     1      -0.594  15.446  23.011  0.00  0.00    +0.000 A 
ATOM     15  C   UNL     1       0.289  14.974  22.039  0.00  0.00    +0.000 A 
ATOM     16  C   UNL     1       0.318  13.616  21.722  0.00  0.00    +0.000 A 
ENDBRANCH   6  11
BRANCH   1  17
ATOM     17  O   UNL     1       2.040   5.957  19.907  0.00  0.00    +0.000 OA
BRANCH  17  18
ATOM     18  C   UNL     1       1.999   5.121  21.059  0.00  0.00    +0.000 C 
BRANCH  18  20
ATOM     19  C   UNL     1       1.176   2.693  20.339  0.00  0.00    +0.000 C 
ATOM     20  C   UNL     1       1.560   3.778  20.670  0.00  0.00    +0.000 C 
ENDBRANCH  18  20
ENDBRANCH  17  18
ENDBRANCH   1  17
BRANCH   9  21
ATOM     21  O   UNL     1       0.714  10.203  18.084  0.00  0.00    +0.000 OA
BRANCH  21  22
ATOM     22  C   UNL     1      -0.291   9.345  17.527  0.00  0.00    +0.000 C 
BRANCH  22  23
ATOM     23  C   UNL     1      -1.591  10.075  17.342  0.00  0.00    +0.000 A 
ATOM     24  C   UNL     1      -2.293   9.965  16.130  0.00  0.00    +0.000 A 
ATOM     25  C   UNL     1      -3.491  10.663  15.944  0.00  0.00    +0.000 A 
ATOM     26  C   UNL     1      -3.996  11.452  16.973  0.00  0.00    +0.000 A 
ATOM     27  C   UNL     1      -3.320  11.542  18.190  0.00  0.00    +0.000 A 
ATOM     28  C   UNL     1      -2.125  10.851  18.373  0.00  0.00    +0.000 A 
ENDBRANCH  22  23
ENDBRANCH  21  22
ENDBRANCH   9  21
BRANCH  10  29
ATOM     29  O   UNL     1       2.978   8.159  18.121  0.00  0.00    +0.000 OA
BRANCH  29  30
ATOM     30  C   UNL     1       3.278   6.896  17.530  0.00  0.00    +0.000 C 
BRANCH  30  31
ATOM     31  C   UNL     1       4.717   6.562  17.794  0.00  0.00    +0.000 A 
ATOM     32  C   UNL     1       5.055   5.619  18.775  0.00  0.00    +0.000 A 
ATOM     33  C   UNL     1       6.392   5.363  19.071  0.00  0.00    +0.000 A 
ATOM     34  C   UNL     1       7.398   6.030  18.377  0.00  0.00    +0.000 A 
ATOM     35  C   UNL     1       7.072   6.937  17.369  0.00  0.00    +0.000 A 
ATOM     36  C   UNL     1       5.735   7.198  17.073  0.00  0.00    +0.000 A 
ENDBRANCH  30  31
ENDBRANCH  29  30
ENDBRANCH  10  29
TORSDOF 10
ENDMDL
MODEL 3
REMARK VINA RESULT:      -8.1      0.781      1.157
REMARK  Name = 
REMARK  10 active torsions:
REMARK  status: ('A' for Active; 'I' for Inactive)
REMARK    1  A    between atoms: C_2  and  C_3
REMARK    2  A    between atoms: C_3  and  O_4
REMARK    3  A    between atoms: O_4  and  C_5
REMARK    4  A    between atoms: C_10  and  C_11
REMARK    5  A    between atoms: C_19  and  O_20
REMARK    6  A    between atoms: O_20  and  C_21
REMARK    7  A    between atoms: C_21  and  C_22
REMARK    8  A    between atoms: C_28  and  O_29
REMARK    9  A    between atoms: O_29  and  C_30
REMARK   10  A    between atoms: C_30  and  C_31
REMARK                            x       y       z     vdW  Elec       q    Type
REMARK                         _______ _______ _______ _____ _____    ______ ____
ROOT
ATOM      1  C   UNL     1       2.077   7.309  19.987  0.00  0.00    +0.000 C 
ATOM      2  O   UNL     1       1.143   7.548  21.037  0.00  0.00    +0.000 OA
ATOM      3  C   UNL     1       1.117   8.919  21.375  0.00  0.00    +0.000 C 
ATOM      4  C   UNL     1       0.321   9.157  22.650  0.00  0.00    +0.000 C 
ATOM      5  O   UNL     1       0.224  10.552  22.929  0.00  0.00    +0.000 OA
ATOM      6  C   UNL     1      -0.353  11.249  21.830  0.00  0.00    +0.000 C 
ATOM      7  O   UNL     1       0.436  11.074  20.662  0.00  0.00    +0.000 OA
ATOM      8  C   UNL     1       0.462   9.704  20.257  0.00  0.00    +0.000 C 
ATOM      9  C   UNL     1       1.284   9.586  18.973  0.00  0.00    +0.000 C 
ATOM     10  C   UNL     1       1.737   8.121  18.698  0.00  0.00    +0.000 C 
ENDROOT
BRANCH   6  11
ATOM     11  C   UNL     1      -0.358  12.727  22.129  0.00  0.00    +0.000 A 
ATOM     12  C   UNL     1      -1.185  13.249  23.138  0.00  0.00    +0.000 A 
ATOM     13  C   UNL     1      -1.205  14.617  23.404  0.00  0.00    +0.000 A 
ATOM     14  C   UNL     1      -0.394  15.478  22.670  0.00  0.00    +0.000 A 
ATOM     15  C   UNL     1       0.446  14.972  21.678  0.00  0.00    +0.000 A 
ATOM     16  C   UNL     1       0.467  13.603  21.411  0.00  0.00    +0.000 A 
ENDBRANCH   6  11
BRANCH   1  17
ATOM     17  O   UNL     1       2.089   5.912  19.679  0.00  0.00    +0.000 OA
BRANCH  17  18
ATOM     18  C   UNL     1       1.785   5.125  20.827  0.00  0.00    +0.000 C 
BRANCH  18  20
ATOM     19  C   UNL     1       1.042   2.690  20.046  0.00  0.00    +0.000 C 
ATOM     20  C   UNL     1       1.391   3.778  20.403  0.00  0.00    +0.000 C 
ENDBRANCH  18  20
ENDBRANCH  17  18
ENDBRANCH   1  17
BRANCH   9  21
ATOM     21  O   UNL     1       0.520  10.067  17.838  0.00  0.00    +0.000 OA
BRANCH  21  22
ATOM     22  C   UNL     1      -0.590   9.230  17.486  0.00  0.00    +0.000 C 
BRANCH  22  23
ATOM     23  C   UNL     1      -1.839  10.039  17.276  0.00  0.00    +0.000 A 
ATOM     24  C   UNL     1      -2.353  10.822  18.324  0.00  0.00    +0.000 A 
ATOM     25  C   UNL     1      -3.529  11.557  18.141  0.00  0.00    +0.000 A 
ATOM     26  C   UNL     1      -4.177  11.526  16.910  0.00  0.00    +0.000 A 
ATOM     27  C   UNL     1      -3.656  10.775  15.857  0.00  0.00    +0.000 A 
ATOM     28  C   UNL     1      -2.488  10.039  16.040  0.00  0.00    +0.000 A 
ENDBRANCH  22  23
ENDBRANCH  21  22
ENDBRANCH   9  21
BRANCH  10  29
ATOM     29  O   UNL     1       2.811   8.056  17.731  0.00  0.00    +0.000 OA
BRANCH  29  30
ATOM     30  C   UNL     1       4.024   7.449  18.171  0.00  0.00    +0.000 C 
BRANCH  30  31
ATOM     31  C   UNL     1       4.403   6.359  17.211  0.00  0.00    +0.000 A 
ATOM     32  C   UNL     1       4.056   5.028  17.480  0.00  0.00    +0.000 A 
ATOM     33  C   UNL     1       4.472   4.008  16.627  0.00  0.00    +0.000 A 
ATOM     34  C   UNL     1       5.217   4.313  15.491  0.00  0.00    +0.000 A 
ATOM     35  C   UNL     1       5.529   5.638  15.191  0.00  0.00    +0.000 A 
ATOM     36  C   UNL     1       5.118   6.660  16.045  0.00  0.00    +0.000 A 
ENDBRANCH  30  31
ENDBRANCH  29  30
ENDBRANCH  10  29
TORSDOF 10
ENDMDL
MODEL 4
REMARK VINA RESULT:      -8.0      0.993      1.392
REMARK  Name = 
REMARK  10 active torsions:
REMARK  status: ('A' for Active; 'I' for Inactive)
REMARK    1  A    between atoms: C_2  and  C_3
REMARK    2  A    between atoms: C_3  and  O_4
REMARK    3  A    between atoms: O_4  and  C_5
REMARK    4  A    between atoms: C_10  and  C_11
REMARK    5  A    between atoms: C_19  and  O_20
REMARK    6  A    between atoms: O_20  and  C_21
REMARK    7  A    between atoms: C_21  and  C_22
REMARK    8  A    between atoms: C_28  and  O_29
REMARK    9  A    between atoms: O_29  and  C_30
REMARK   10  A    between atoms: C_30  and  C_31
REMARK                            x       y       z     vdW  Elec       q    Type
REMARK                         _______ _______ _______ _____ _____    ______ ____
ROOT
ATOM      1  C   UNL     1       1.461   7.342  20.891  0.00  0.00    +0.000 C 
ATOM      2  O   UNL     1       0.353   7.758  21.687  0.00  0.00    +0.000 OA
ATOM      3  C   UNL     1       0.472   9.124  22.026  0.00  0.00    +0.000 C 
ATOM      4  C   UNL     1      -0.558   9.523  23.073  0.00  0.00    +0.000 C 
ATOM      5  O   UNL     1      -0.489  10.922  23.339  0.00  0.00    +0.000 OA
ATOM      6  C   UNL     1      -0.661  11.674  22.141  0.00  0.00    +0.000 C 
ATOM      7  O   UNL     1       0.346  11.340  21.197  0.00  0.00    +0.000 OA
ATOM      8  C   UNL     1       0.244   9.974  20.793  0.00  0.00    +0.000 C 
ATOM      9  C   UNL     1       1.320   9.689  19.745  0.00  0.00    +0.000 C 
ATOM     10  C   UNL     1       1.579   8.162  19.569  0.00  0.00    +0.000 C 
ENDROOT
BRANCH   6  11
ATOM     11  C   UNL     1      -0.495  13.140  22.449  0.00  0.00    +0.000 A 
ATOM     12  C   UNL     1       0.424  13.922  21.728  0.00  0.00    +0.000 A 
ATOM     13  C   UNL     1       0.593  15.273  22.023  0.00  0.00    +0.000 A 
ATOM     14  C   UNL     1      -0.158  15.862  23.035  0.00  0.00    +0.000 A 
ATOM     15  C   UNL     1      -1.088  15.104  23.747  0.00  0.00    +0.000 A 
ATOM     16  C   UNL     1      -1.259  13.750  23.453  0.00  0.00    +0.000 A 
ENDBRANCH   6  11
BRANCH   1  17
ATOM     17  O   UNL     1       1.316   5.954  20.578  0.00  0.00    +0.000 OA
BRANCH  17  18
ATOM     18  C   UNL     1       2.293   5.164  21.250  0.00  0.00    +0.000 C 
BRANCH  18  20
ATOM     19  C   UNL     1       1.513   2.619  21.220  0.00  0.00    +0.000 C 
ATOM     20  C   UNL     1       1.868   3.761  21.250  0.00  0.00    +0.000 C 
ENDBRANCH  18  20
ENDBRANCH  17  18
ENDBRANCH   1  17
BRANCH   9  21
ATOM     21  O   UNL     1       0.942  10.256  18.465  0.00  0.00    +0.000 OA
BRANCH  21  22
ATOM     22  C   UNL     1      -0.033   9.485  17.750  0.00  0.00    +0.000 C 
BRANCH  22  23
ATOM     23  C   UNL     1      -1.357  10.193  17.697  0.00  0.00    +0.000 A 
ATOM     24  C   UNL     1      -1.534  11.406  18.382  0.00  0.00    +0.000 A 
ATOM     25  C   UNL     1      -2.772  12.056  18.355  0.00  0.00    +0.000 A 
ATOM     26  C   UNL     1      -3.824  11.505  17.630  0.00  0.00    +0.000 A 
ATOM     27  C   UNL     1      -3.647  10.316  16.923  0.00  0.00    +0.000 A 
ATOM     28  C   UNL     1      -2.415   9.667  16.953  0.00  0.00    +0.000 A 
ENDBRANCH  22  23
ENDBRANCH  21  22
ENDBRANCH   9  21
BRANCH  10  29
ATOM     29  O   UNL     1       2.829   7.898  18.890  0.00  0.00    +0.000 OA
BRANCH  29  30
ATOM     30  C   UNL     1       2.742   7.190  17.655  0.00  0.00    +0.000 C 
BRANCH  30  31
ATOM     31  C   UNL     1       3.194   5.775  17.868  0.00  0.00    +0.000 A 
ATOM     32  C   UNL     1       4.473   5.511  18.376  0.00  0.00    +0.000 A 
ATOM     33  C   UNL     1       4.919   4.197  18.505  0.00  0.00    +0.000 A 
ATOM     34  C   UNL     1       4.085   3.141  18.147  0.00  0.00    +0.000 A 
ATOM     35  C   UNL     1       2.795   3.393  17.681  0.00  0.00    +0.000 A 
ATOM     36  C   UNL     1       2.347   4.706  17.549  0.00  0.00    +0.000 A 
ENDBRANCH  30  31
ENDBRANCH  29  30
ENDBRANCH  10  29
TORSDOF 10
ENDMDL
MODEL 5
REMARK VINA RESULT:      -7.9      0.529      1.043
REMARK  Name = 
REMARK  10 active torsions:
REMARK  status: ('A' for Active; 'I' for Inactive)
REMARK    1  A    between atoms: C_2  and  C_3
REMARK    2  A    between atoms: C_3  and  O_4
REMARK    3  A    between atoms: O_4  and  C_5
REMARK    4  A    between atoms: C_10  and  C_11
REMARK    5  A    between atoms: C_19  and  O_20
REMARK    6  A    between atoms: O_20  and  C_21
REMARK    7  A    between atoms: C_21  and  C_22
REMARK    8  A    between atoms: C_28  and  O_29
REMARK    9  A    between atoms: O_29  and  C_30
REMARK   10  A    between atoms: C_30  and  C_31
REMARK                            x       y       z     vdW  Elec       q    Type
REMARK                         _______ _______ _______ _____ _____    ______ ____
ROOT
ATOM      1  C   UNL     1       2.129   7.400  20.281  0.00  0.00    +0.000 C 
ATOM      2  O   UNL     1       1.097   7.576  21.250  0.00  0.00    +0.000 OA
ATOM      3  C   UNL     1       1.004   8.932  21.635  0.00  0.00    +0.000 C 
ATOM      4  C   UNL     1       0.089   9.100  22.841  0.00  0.00    +0.000 C 
ATOM      5  O   UNL     1      -0.070  10.480  23.161  0.00  0.00    +0.000 OA
ATOM      6  C   UNL     1      -0.565  11.206  22.041  0.00  0.00    +0.000 C 
ATOM      7  O   UNL     1       0.331  11.096  20.943  0.00  0.00    +0.000 OA
ATOM      8  C   UNL     1       0.431   9.744  20.492  0.00  0.00    +0.000 C 
ATOM      9  C   UNL     1       1.368   9.697  19.284  0.00  0.00    +0.000 C 
ATOM     10  C   UNL     1       1.883   8.254  18.998  0.00  0.00    +0.000 C 
ENDROOT
BRANCH   6  11
ATOM     11  C   UNL     1      -0.636  12.671  22.392  0.00  0.00    +0.000 A 
ATOM     12  C   UNL     1       0.164  13.608  21.716  0.00  0.00    +0.000 A 
ATOM     13  C   UNL     1       0.113  14.959  22.051  0.00  0.00    +0.000 A 
ATOM     14  C   UNL     1      -0.742  15.392  23.060  0.00  0.00    +0.000 A 
ATOM     15  C   UNL     1      -1.557  14.477  23.727  0.00  0.00    +0.000 A 
ATOM     16  C   UNL     1      -1.507  13.123  23.392  0.00  0.00    +0.000 A 
ENDBRANCH   6  11
BRANCH   1  17
ATOM     17  O   UNL     1       2.206   6.018  19.925  0.00  0.00    +0.000 OA
BRANCH  17  18
ATOM     18  C   UNL     1       1.520   5.199  20.867  0.00  0.00    +0.000 C 
BRANCH  18  20
ATOM     19  C   UNL     1       0.824   2.917  19.684  0.00  0.00    +0.000 C 
ATOM     20  C   UNL     1       1.121   3.944  20.222  0.00  0.00    +0.000 C 
ENDBRANCH  18  20
ENDBRANCH  17  18
ENDBRANCH   1  17
BRANCH   9  21
ATOM     21  O   UNL     1       0.697  10.203  18.104  0.00  0.00    +0.000 OA
BRANCH  21  22
ATOM     22  C   UNL     1      -0.334   9.341  17.603  0.00  0.00    +0.000 C 
BRANCH  22  23
ATOM     23  C   UNL     1      -1.625  10.085  17.415  0.00  0.00    +0.000 A 
ATOM     24  C   UNL     1      -2.371   9.912  16.237  0.00  0.00    +0.000 A 
ATOM     25  C   UNL     1      -3.561  10.622  16.047  0.00  0.00    +0.000 A 
ATOM     26  C   UNL     1      -4.015  11.485  17.039  0.00  0.00    +0.000 A 
ATOM     27  C   UNL     1      -3.295  11.639  18.224  0.00  0.00    +0.000 A 
ATOM     28  C   UNL     1      -2.108  10.936  18.411  0.00  0.00    +0.000 A 
ENDBRANCH  22  23
ENDBRANCH  21  22
ENDBRANCH   9  21
BRANCH  10  29
ATOM     29  O   UNL     1       3.043   8.254  18.131  0.00  0.00    +0.000 OA
BRANCH  29  30
ATOM     30  C   UNL     1       3.079   7.245  17.123  0.00  0.00    +0.000 C 
BRANCH  30  31
ATOM     31  C   UNL     1       4.434   6.600  17.124  0.00  0.00    +0.000 A 
ATOM     32  C   UNL     1       5.115   6.386  15.918  0.00  0.00    +0.000 A 
ATOM     33  C   UNL     1       6.340   5.721  15.912  0.00  0.00    +0.000 A 
ATOM     34  C   UNL     1       6.900   5.285  17.110  0.00  0.00    +0.000 A 
ATOM     35  C   UNL     1       6.251   5.532  18.319  0.00  0.00    +0.000 A 
ATOM     36  C   UNL     1       5.024   6.194  18.328  0.00  0.00    +0.000 A 
ENDBRANCH  30  31
ENDBRANCH  29  30
ENDBRANCH  10  29
TORSDOF 10
ENDMDL
MODEL 6
REMARK VINA RESULT:      -7.9      0.800      1.580
REMARK  Name = 
REMARK  10 active torsions:
REMARK  status: ('A' for Active; 'I' for Inactive)
REMARK    1  A    between atoms: C_2  and  C_3
REMARK    2  A    between atoms: C_3  and  O_4
REMARK    3  A    between atoms: O_4  and  C_5
REMARK    4  A    between atoms: C_10  and  C_11
REMARK    5  A    between atoms: C_19  and  O_20
REMARK    6  A    between atoms: O_20  and  C_21
REMARK    7  A    between atoms: C_21  and  C_22
REMARK    8  A    between atoms: C_28  and  O_29
REMARK    9  A    between atoms: O_29  and  C_30
REMARK   10  A    between atoms: C_30  and  C_31
REMARK                            x       y       z     vdW  Elec       q    Type
REMARK                         _______ _______ _______ _____ _____    ______ ____
ROOT
ATOM      1  C   UNL     1       1.970   7.285  19.901  0.00  0.00    +0.000 C 
ATOM      2  O   UNL     1       1.051   7.541  20.962  0.00  0.00    +0.000 OA
ATOM      3  C   UNL     1       1.068   8.910  21.311  0.00  0.00    +0.000 C 
ATOM      4  C   UNL     1       0.288   9.159  22.596  0.00  0.00    +0.000 C 
ATOM      5  O   UNL     1       0.233  10.553  22.887  0.00  0.00    +0.000 OA
ATOM      6  C   UNL     1      -0.333  11.276  21.799  0.00  0.00    +0.000 C 
ATOM      7  O   UNL     1       0.441  11.088  20.622  0.00  0.00    +0.000 OA
ATOM      8  C   UNL     1       0.425   9.722  20.206  0.00  0.00    +0.000 C 
ATOM      9  C   UNL     1       1.232   9.592  18.913  0.00  0.00    +0.000 C 
ATOM     10  C   UNL     1       1.641   8.117  18.622  0.00  0.00    +0.000 C 
ENDROOT
BRANCH   6  11
ATOM     11  C   UNL     1      -0.294  12.751  22.109  0.00  0.00    +0.000 A 
ATOM     12  C   UNL     1      -1.133  13.296  23.097  0.00  0.00    +0.000 A 
ATOM     13  C   UNL     1      -1.112  14.661  23.373  0.00  0.00    +0.000 A 
ATOM     14  C   UNL     1      -0.247  15.497  22.673  0.00  0.00    +0.000 A 
ATOM     15  C   UNL     1       0.606  14.968  21.704  0.00  0.00    +0.000 A 
ATOM     16  C   UNL     1       0.586  13.601  21.426  0.00  0.00    +0.000 A 
ENDBRANCH   6  11
BRANCH   1  17
ATOM     17  O   UNL     1       1.940   5.891  19.583  0.00  0.00    +0.000 OA
BRANCH  17  18
ATOM     18  C   UNL     1       1.989   5.087  20.758  0.00  0.00    +0.000 C 
BRANCH  18  20
ATOM     19  C   UNL     1       1.136   2.636  20.164  0.00  0.00    +0.000 C 
ATOM     20  C   UNL     1       1.532   3.731  20.439  0.00  0.00    +0.000 C 
ENDBRANCH  18  20
ENDBRANCH  17  18
ENDBRANCH   1  17
BRANCH   9  21
ATOM     21  O   UNL     1       0.472  10.104  17.790  0.00  0.00    +0.000 OA
BRANCH  21  22
ATOM     22  C   UNL     1      -0.613   9.258  17.385  0.00  0.00    +0.000 C 
BRANCH  22  23
ATOM     23  C   UNL     1      -1.881  10.043  17.208  0.00  0.00    +0.000 A 
ATOM     24  C   UNL     1      -2.576   9.991  15.989  0.00  0.00    +0.000 A 
ATOM     25  C   UNL     1      -3.744  10.740  15.811  0.00  0.00    +0.000 A 
ATOM     26  C   UNL     1      -4.226  11.523  16.855  0.00  0.00    +0.000 A 
ATOM     27  C   UNL     1      -3.557  11.557  18.079  0.00  0.00    +0.000 A 
ATOM     28  C   UNL     1      -2.392  10.814  18.254  0.00  0.00    +0.000 A 
ENDBRANCH  22  23
ENDBRANCH  21  22
ENDBRANCH   9  21
BRANCH  10  29
ATOM     29  O   UNL     1       2.705   8.030  17.645  0.00  0.00    +0.000 OA
BRANCH  29  30
ATOM     30  C   UNL     1       3.969   7.575  18.124  0.00  0.00    +0.000 C 
BRANCH  30  31
ATOM     31  C   UNL     1       4.443   6.444  17.258  0.00  0.00    +0.000 A 
ATOM     32  C   UNL     1       5.027   6.707  16.012  0.00  0.00    +0.000 A 
ATOM     33  C   UNL     1       5.399   5.655  15.176  0.00  0.00    +0.000 A 
ATOM     34  C   UNL     1       5.209   4.339  15.588  0.00  0.00    +0.000 A 
ATOM     35  C   UNL     1       4.668   4.068  16.844  0.00  0.00    +0.000 A 
ATOM     36  C   UNL     1       4.292   5.118  17.681  0.00  0.00    +0.000 A 
ENDBRANCH  30  31
ENDBRANCH  29  30
ENDBRANCH  10  29
TORSDOF 10
ENDMDL
MODEL 7
REMARK VINA RESULT:      -7.8      0.906      1.232
REMARK  Name = 
REMARK  10 active torsions:
REMARK  status: ('A' for Active; 'I' for Inactive)
REMARK    1  A    between atoms: C_2  and  C_3
REMARK    2  A    between atoms: C_3  and  O_4
REMARK    3  A    between atoms: O_4  and  C_5
REMARK    4  A    between atoms: C_10  and  C_11
REMARK    5  A    between atoms: C_19  and  O_20
REMARK    6  A    between atoms: O_20  and  C_21
REMARK    7  A    between atoms: C_21  and  C_22
REMARK    8  A    between atoms: C_28  and  O_29
REMARK    9  A    between atoms: O_29  and  C_30
REMARK   10  A    between atoms: C_30  and  C_31
REMARK                            x       y       z     vdW  Elec       q    Type
REMARK                         _______ _______ _______ _____ _____    ______ ____
ROOT
ATOM      1  C   UNL     1       2.144   7.179  20.049  0.00  0.00    +0.000 C 
ATOM      2  O   UNL     1       1.211   7.414  21.102  0.00  0.00    +0.000 OA
ATOM      3  C   UNL     1       1.166   8.788  21.426  0.00  0.00    +0.000 C 
ATOM      4  C   UNL     1       0.372   9.027  22.703  0.00  0.00    +0.000 C 
ATOM      5  O   UNL     1       0.255  10.422  22.969  0.00  0.00    +0.000 OA
ATOM      6  C   UNL     1      -0.339  11.099  21.865  0.00  0.00    +0.000 C 
ATOM      7  O   UNL     1       0.446  10.924  20.695  0.00  0.00    +0.000 OA
ATOM      8  C   UNL     1       0.492   9.551  20.304  0.00  0.00    +0.000 C 
ATOM      9  C   UNL     1       1.309   9.433  19.016  0.00  0.00    +0.000 C 
ATOM     10  C   UNL     1       1.783   7.972  18.754  0.00  0.00    +0.000 C 
ENDROOT
BRANCH   6  11
ATOM     11  C   UNL     1      -0.365  12.580  22.149  0.00  0.00    +0.000 A 
ATOM     12  C   UNL     1       0.457  13.461  21.425  0.00  0.00    +0.000 A 
ATOM     13  C   UNL     1       0.449  14.827  21.698  0.00  0.00    +0.000 A 
ATOM     14  C   UNL     1      -0.387  15.331  22.690  0.00  0.00    +0.000 A 
ATOM     15  C   UNL     1      -1.223  14.472  23.404  0.00  0.00    +0.000 A 
ATOM     16  C   UNL     1      -1.216  13.104  23.132  0.00  0.00    +0.000 A 
ENDBRANCH   6  11
BRANCH   1  17
ATOM     17  O   UNL     1       2.176   5.780  19.756  0.00  0.00    +0.000 OA
BRANCH  17  18
ATOM     18  C   UNL     1       1.620   5.013  20.820  0.00  0.00    +0.000 C 
BRANCH  18  20
ATOM     19  C   UNL     1       0.989   2.597  19.894  0.00  0.00    +0.000 C 
ATOM     20  C   UNL     1       1.270   3.678  20.326  0.00  0.00    +0.000 C 
ENDBRANCH  18  20
ENDBRANCH  17  18
ENDBRANCH   1  17
BRANCH   9  21
ATOM     21  O   UNL     1       0.531   9.890  17.881  0.00  0.00    +0.000 OA
BRANCH  21  22
ATOM     22  C   UNL     1      -0.142  11.138  18.098  0.00  0.00    +0.000 C 
BRANCH  22  23
ATOM     23  C   UNL     1      -1.629  10.990  17.947  0.00  0.00    +0.000 A 
ATOM     24  C   UNL     1      -2.154  10.012  17.086  0.00  0.00    +0.000 A 
ATOM     25  C   UNL     1      -3.537   9.887  16.923  0.00  0.00    +0.000 A 
ATOM     26  C   UNL     1      -4.393  10.724  17.632  0.00  0.00    +0.000 A 
ATOM     27  C   UNL     1      -3.880  11.678  18.511  0.00  0.00    +0.000 A 
ATOM     28  C   UNL     1      -2.502  11.804  18.670  0.00  0.00    +0.000 A 
ENDBRANCH  22  23
ENDBRANCH  21  22
ENDBRANCH   9  21
BRANCH  10  29
ATOM     29  O   UNL     1       2.854   7.915  17.781  0.00  0.00    +0.000 OA
BRANCH  29  30
ATOM     30  C   UNL     1       4.062   7.290  18.206  0.00  0.00    +0.000 C 
BRANCH  30  31
ATOM     31  C   UNL     1       4.455   6.246  17.201  0.00  0.00    +0.000 A 
ATOM     32  C   UNL     1       4.167   4.895  17.436  0.00  0.00    +0.000 A 
ATOM     33  C   UNL     1       4.597   3.920  16.538  0.00  0.00    +0.000 A 
ATOM     34  C   UNL     1       5.296   4.289  15.393  0.00  0.00    +0.000 A 
ATOM     35  C   UNL     1       5.549   5.634  15.128  0.00  0.00    +0.000 A 
ATOM     36  C   UNL     1       5.123   6.612  16.026  0.00  0.00    +0.000 A 
ENDBRANCH  30  31
ENDBRANCH  29  30
ENDBRANCH  10  29
TORSDOF 10
ENDMDL
MODEL 8
REMARK VINA RESULT:      -7.7      0.701      1.080
REMARK  Name = 
REMARK  10 active torsions:
REMARK  status: ('A' for Active; 'I' for Inactive)
REMARK    1  A    between atoms: C_2  and  C_3
REMARK    2  A    between atoms: C_3  and  O_4
REMARK    3  A    between atoms: O_4  and  C_5
REMARK    4  A    between atoms: C_10  and  C_11
REMARK    5  A    between atoms: C_19  and  O_20
REMARK    6  A    between atoms: O_20  and  C_21
REMARK    7  A    between atoms: C_21  and  C_22
REMARK    8  A    between atoms: C_28  and  O_29
REMARK    9  A    between atoms: O_29  and  C_30
REMARK   10  A    between atoms: C_30  and  C_31
REMARK                            x       y       z     vdW  Elec       q    Type
REMARK                         _______ _______ _______ _____ _____    ______ ____
ROOT
ATOM      1  C   UNL     1       2.274   7.208  20.362  0.00  0.00    +0.000 C 
ATOM      2  O   UNL     1       1.248   7.400  21.334  0.00  0.00    +0.000 OA
ATOM      3  C   UNL     1       1.125   8.769  21.662  0.00  0.00    +0.000 C 
ATOM      4  C   UNL     1       0.219   8.966  22.869  0.00  0.00    +0.000 C 
ATOM      5  O   UNL     1       0.029  10.354  23.132  0.00  0.00    +0.000 OA
ATOM      6  C   UNL     1      -0.495  11.020  21.987  0.00  0.00    +0.000 C 
ATOM      7  O   UNL     1       0.392  10.884  20.886  0.00  0.00    +0.000 OA
ATOM      8  C   UNL     1       0.521   9.517  20.492  0.00  0.00    +0.000 C 
ATOM      9  C   UNL     1       1.447   9.441  19.277  0.00  0.00    +0.000 C 
ATOM     10  C   UNL     1       1.995   8.001  19.046  0.00  0.00    +0.000 C 
ENDROOT
BRANCH   6  11
ATOM     11  C   UNL     1      -0.599  12.496  22.277  0.00  0.00    +0.000 A 
ATOM     12  C   UNL     1       0.172  13.422  21.554  0.00  0.00    +0.000 A 
ATOM     13  C   UNL     1       0.092  14.785  21.832  0.00  0.00    +0.000 A 
ATOM     14  C   UNL     1      -0.765  15.240  22.830  0.00  0.00    +0.000 A 
ATOM     15  C   UNL     1      -1.551  14.335  23.543  0.00  0.00    +0.000 A 
ATOM     16  C   UNL     1      -1.472  12.970  23.266  0.00  0.00    +0.000 A 
ENDBRANCH   6  11
BRANCH   1  17
ATOM     17  O   UNL     1       2.381   5.814  20.064  0.00  0.00    +0.000 OA
BRANCH  17  18
ATOM     18  C   UNL     1       1.195   5.112  20.424  0.00  0.00    +0.000 C 
BRANCH  18  20
ATOM     19  C   UNL     1       1.852   2.753  21.469  0.00  0.00    +0.000 C 
ATOM     20  C   UNL     1       1.555   3.820  21.015  0.00  0.00    +0.000 C 
ENDBRANCH  18  20
ENDBRANCH  17  18
ENDBRANCH   1  17
BRANCH   9  21
ATOM     21  O   UNL     1       0.752   9.881  18.083  0.00  0.00    +0.000 OA
BRANCH  21  22
ATOM     22  C   UNL     1       0.062  11.129  18.235  0.00  0.00    +0.000 C 
BRANCH  22  23
ATOM     23  C   UNL     1      -1.415  10.966  18.018  0.00  0.00    +0.000 A 
ATOM     24  C   UNL     1      -2.321  11.813  18.679  0.00  0.00    +0.000 A 
ATOM     25  C   UNL     1      -3.698  11.649  18.499  0.00  0.00    +0.000 A 
ATOM     26  C   UNL     1      -4.168  10.656  17.645  0.00  0.00    +0.000 A 
ATOM     27  C   UNL     1      -3.274   9.831  16.962  0.00  0.00    +0.000 A 
ATOM     28  C   UNL     1      -1.903   9.992  17.145  0.00  0.00    +0.000 A 
ENDBRANCH  22  23
ENDBRANCH  21  22
ENDBRANCH   9  21
BRANCH  10  29
ATOM     29  O   UNL     1       3.145   7.991  18.167  0.00  0.00    +0.000 OA
BRANCH  29  30
ATOM     30  C   UNL     1       3.150   6.999  17.143  0.00  0.00    +0.000 C 
BRANCH  30  31
ATOM     31  C   UNL     1       4.496   6.334  17.112  0.00  0.00    +0.000 A 
ATOM     32  C   UNL     1       5.661   7.089  17.299  0.00  0.00    +0.000 A 
ATOM     33  C   UNL     1       6.912   6.484  17.197  0.00  0.00    +0.000 A 
ATOM     34  C   UNL     1       7.006   5.121  16.928  0.00  0.00    +0.000 A 
ATOM     35  C   UNL     1       5.852   4.353  16.784  0.00  0.00    +0.000 A 
ATOM     36  C   UNL     1       4.599   4.956  16.882  0.00  0.00    +0.000 A 
ENDBRANCH  30  31
ENDBRANCH  29  30
ENDBRANCH  10  29
TORSDOF 10
ENDMDL
MODEL 9
REMARK VINA RESULT:      -7.6      0.775      1.588
REMARK  Name = 
REMARK  10 active torsions:
REMARK  status: ('A' for Active; 'I' for Inactive)
REMARK    1  A    between atoms: C_2  and  C_3
REMARK    2  A    between atoms: C_3  and  O_4
REMARK    3  A    between atoms: O_4  and  C_5
REMARK    4  A    between atoms: C_10  and  C_11
REMARK    5  A    between atoms: C_19  and  O_20
REMARK    6  A    between atoms: O_20  and  C_21
REMARK    7  A    between atoms: C_21  and  C_22
REMARK    8  A    between atoms: C_28  and  O_29
REMARK    9  A    between atoms: O_29  and  C_30
REMARK   10  A    between atoms: C_30  and  C_31
REMARK                            x       y       z     vdW  Elec       q    Type
REMARK                         _______ _______ _______ _____ _____    ______ ____
ROOT
ATOM      1  C   UNL     1       1.501   7.361  20.766  0.00  0.00    +0.000 C 
ATOM      2  O   UNL     1       0.424   7.732  21.624  0.00  0.00    +0.000 OA
ATOM      3  C   UNL     1       0.516   9.099  21.970  0.00  0.00    +0.000 C 
ATOM      4  C   UNL     1      -0.470   9.454  23.075  0.00  0.00    +0.000 C 
ATOM      5  O   UNL     1      -0.434  10.852  23.350  0.00  0.00    +0.000 OA
ATOM      6  C   UNL     1      -0.697  11.607  22.171  0.00  0.00    +0.000 C 
ATOM      7  O   UNL     1       0.269  11.316  21.171  0.00  0.00    +0.000 OA
ATOM      8  C   UNL     1       0.192   9.950  20.759  0.00  0.00    +0.000 C 
ATOM      9  C   UNL     1       1.219   9.711  19.652  0.00  0.00    +0.000 C 
ATOM     10  C   UNL     1       1.520   8.196  19.447  0.00  0.00    +0.000 C 
ENDROOT
BRANCH   6  11
ATOM     11  C   UNL     1      -0.564  13.076  22.484  0.00  0.00    +0.000 A 
ATOM     12  C   UNL     1      -1.338  13.663  23.500  0.00  0.00    +0.000 A 
ATOM     13  C   UNL     1      -1.231  15.024  23.779  0.00  0.00    +0.000 A 
ATOM     14  C   UNL     1      -0.344  15.813  23.052  0.00  0.00    +0.000 A 
ATOM     15  C   UNL     1       0.445  15.241  22.054  0.00  0.00    +0.000 A 
ATOM     16  C   UNL     1       0.339  13.878  21.774  0.00  0.00    +0.000 A 
ENDBRANCH   6  11
BRANCH   1  17
ATOM     17  O   UNL     1       1.388   5.971  20.447  0.00  0.00    +0.000 OA
BRANCH  17  18
ATOM     18  C   UNL     1       2.464   5.221  21.001  0.00  0.00    +0.000 C 
BRANCH  18  20
ATOM     19  C   UNL     1       1.637   2.745  21.523  0.00  0.00    +0.000 C 
ATOM     20  C   UNL     1       2.005   3.862  21.304  0.00  0.00    +0.000 C 
ENDBRANCH  18  20
ENDBRANCH  17  18
ENDBRANCH   1  17
BRANCH   9  21
ATOM     21  O   UNL     1       0.753  10.275  18.400  0.00  0.00    +0.000 OA
BRANCH  21  22
ATOM     22  C   UNL     1      -0.084  11.429  18.556  0.00  0.00    +0.000 C 
BRANCH  22  23
ATOM     23  C   UNL     1      -1.505  11.128  18.173  0.00  0.00    +0.000 A 
ATOM     24  C   UNL     1      -1.784  10.105  17.252  0.00  0.00    +0.000 A 
ATOM     25  C   UNL     1      -3.103   9.838  16.874  0.00  0.00    +0.000 A 
ATOM     26  C   UNL     1      -4.143  10.578  17.429  0.00  0.00    +0.000 A 
ATOM     27  C   UNL     1      -3.876  11.576  18.367  0.00  0.00    +0.000 A 
ATOM     28  C   UNL     1      -2.561  11.844  18.740  0.00  0.00    +0.000 A 
ENDBRANCH  22  23
ENDBRANCH  21  22
ENDBRANCH   9  21
BRANCH  10  29
ATOM     29  O   UNL     1       2.740   7.980  18.700  0.00  0.00    +0.000 OA
BRANCH  29  30
ATOM     30  C   UNL     1       2.629   7.181  17.524  0.00  0.00    +0.000 C 
BRANCH  30  31
ATOM     31  C   UNL     1       3.812   6.259  17.445  0.00  0.00    +0.000 A 
ATOM     32  C   UNL     1       5.103   6.780  17.284  0.00  0.00    +0.000 A 
ATOM     33  C   UNL     1       6.192   5.923  17.136  0.00  0.00    +0.000 A 
ATOM     34  C   UNL     1       6.000   4.544  17.168  0.00  0.00    +0.000 A 
ATOM     35  C   UNL     1       4.726   4.017  17.371  0.00  0.00    +0.000 A 
ATOM     36  C   UNL     1       3.634   4.872  17.516  0.00  0.00    +0.000 A 
ENDBRANCH  30  31
ENDBRANCH  29  30
ENDBRANCH  10  29
TORSDOF 10
ENDMDL
