MODEL 1
REMARK VINA RESULT:      -8.0      0.000      0.000
REMARK  Name = 
REMARK  9 active torsions:
REMARK  status: ('A' for Active; 'I' for Inactive)
REMARK    1  A    between atoms: C_1  and  O_2
REMARK    2  A    between atoms: O_2  and  C_3
REMARK    3  A    between atoms: C_6  and  N_7
REMARK    4  A    between atoms: N_7  and  C_8
REMARK    5  A    between atoms: C_11  and  N_12
REMARK    6  A    between atoms: C_16  and  C_17
REMARK    7  A    between atoms: C_21  and  N_22
REMARK    8  A    between atoms: N_22  and  C_23
REMARK    9  A    between atoms: C_23  and  C_24
REMARK                            x       y       z     vdW  Elec       q    Type
REMARK                         _______ _______ _______ _____ _____    ______ ____
ROOT
ATOM      1  C   UNL     1       3.355   3.762  19.782  0.00  0.00    +0.000 A 
ATOM      2  C   UNL     1       2.178   3.699  20.528  0.00  0.00    +0.000 A 
ATOM      3  N   UNL     1       1.393   4.758  20.833  0.00  0.00    +0.000 NA
ATOM      4  C   UNL     1       1.783   5.963  20.396  0.00  0.00    +0.000 A 
ATOM      5  C   UNL     1       2.942   6.114  19.637  0.00  0.00    +0.000 A 
ATOM      6  C   UNL     1       3.780   5.022  19.335  0.00  0.00    +0.000 A 
ENDROOT
BRANCH   6   7
ATOM      7  C   UNL     1       5.035   5.291  18.589  0.00  0.00    +0.000 A 
ATOM      8  C   UNL     1       6.247   5.592  19.207  0.00  0.00    +0.000 A 
ATOM      9  C   UNL     1       7.340   5.942  18.422  0.00  0.00    +0.000 A 
ATOM     10  C   UNL     1       7.190   6.002  17.043  0.00  0.00    +0.000 A 
ATOM     11  C   UNL     1       5.967   5.668  16.473  0.00  0.00    +0.000 A 
ATOM     12  N   UNL     1       4.907   5.321  17.228  0.00  0.00    +0.000 NA
BRANCH  11  13
ATOM     13  N   UNL     1       5.881   5.701  15.080  0.00  0.00    +0.000 N 
ATOM     14  H   UNL     1       4.980   5.346  14.778  0.00  0.00    +0.000 HD
BRANCH  13  15
ATOM     15  C   UNL     1       6.991   5.122  14.342  0.00  0.00    +0.000 C 
BRANCH  15  16
ATOM     16  C   UNL     1       6.422   4.194  13.285  0.00  0.00    +0.000 A 
ATOM     17  C   UNL     1       5.038   4.076  13.080  0.00  0.00    +0.000 A 
ATOM     18  C   UNL     1       4.536   3.190  12.117  0.00  0.00    +0.000 A 
ATOM     19  C   UNL     1       5.408   2.416  11.353  0.00  0.00    +0.000 A 
ATOM     20  C   UNL     1       6.777   2.530  11.555  0.00  0.00    +0.000 A 
ATOM     21  F   UNL     1       7.617   1.785  10.824  0.00  0.00    +0.000 F 
ATOM     22  C   UNL     1       7.287   3.403  12.510  0.00  0.00    +0.000 A 
ENDBRANCH  15  16
ENDBRANCH  13  15
ENDBRANCH  11  13
ENDBRANCH   6   7
BRANCH   1  24
ATOM     23  C   UNL     1       4.583   1.940  20.645  0.00  0.00    +0.000 C 
ATOM     24  O   UNL     1       4.117   2.659  19.505  0.00  0.00    +0.000 OA
ENDBRANCH   1  24
BRANCH   4  25
ATOM     25  N   UNL     1       1.011   7.104  20.643  0.00  0.00    +0.000 N 
ATOM     26  H   UNL     1       0.224   7.125  20.005  0.00  0.00    +0.000 HD
BRANCH  25  27
ATOM     27  C   UNL     1       1.719   8.393  20.704  0.00  0.00    +0.000 C 
ATOM     28  C   UNL     1       1.103   9.433  19.754  0.00  0.00    +0.000 C 
ATOM     29  C   UNL     1      -0.316   9.836  20.162  0.00  0.00    +0.000 C 
ATOM     30  C   UNL     1      -0.404  10.327  21.614  0.00  0.00    +0.000 C 
ATOM     31  C   UNL     1       0.244   9.326  22.579  0.00  0.00    +0.000 C 
ATOM     32  C   UNL     1       1.655   8.898  22.159  0.00  0.00    +0.000 C 
BRANCH  30  33
ATOM     33  N   UNL     1       0.212  11.651  21.735  0.00  0.00    +0.000 NA
ATOM     34  H   UNL     1      -0.389  12.369  21.342  0.00  0.00    +0.000 HD
ATOM     35  H   UNL     1       1.075  11.675  21.196  0.00  0.00    +0.000 HD
ENDBRANCH  30  33
ENDBRANCH  25  27
ENDBRANCH   4  25
TORSDOF 8
ENDMDL
MODEL 2
REMARK VINA RESULT:      -8.0      0.950      1.284
REMARK  Name = 
REMARK  9 active torsions:
REMARK  status: ('A' for Active; 'I' for Inactive)
REMARK    1  A    between atoms: C_1  and  O_2
REMARK    2  A    between atoms: O_2  and  C_3
REMARK    3  A    between atoms: C_6  and  N_7
REMARK    4  A    between atoms: N_7  and  C_8
REMARK    5  A    between atoms: C_11  and  N_12
REMARK    6  A    between atoms: C_16  and  C_17
REMARK    7  A    between atoms: C_21  and  N_22
REMARK    8  A    between atoms: N_22  and  C_23
REMARK    9  A    between atoms: C_23  and  C_24
REMARK                            x       y       z     vdW  Elec       q    Type
REMARK                         _______ _______ _______ _____ _____    ______ ____
ROOT
ATOM      1  C   UNL     1       3.319   3.646  19.819  0.00  0.00    +0.000 A 
ATOM      2  C   UNL     1       2.181   3.600  20.625  0.00  0.00    +0.000 A 
ATOM      3  N   UNL     1       1.412   4.667  20.943  0.00  0.00    +0.000 NA
ATOM      4  C   UNL     1       1.778   5.861  20.458  0.00  0.00    +0.000 A 
ATOM      5  C   UNL     1       2.897   5.993  19.639  0.00  0.00    +0.000 A 
ATOM      6  C   UNL     1       3.720   4.893  19.321  0.00  0.00    +0.000 A 
ENDROOT
BRANCH   6   7
ATOM      7  C   UNL     1       4.935   5.145  18.507  0.00  0.00    +0.000 A 
ATOM      8  C   UNL     1       6.153   5.551  19.048  0.00  0.00    +0.000 A 
ATOM      9  C   UNL     1       7.202   5.872  18.194  0.00  0.00    +0.000 A 
ATOM     10  C   UNL     1       7.003   5.799  16.822  0.00  0.00    +0.000 A 
ATOM     11  C   UNL     1       5.777   5.363  16.332  0.00  0.00    +0.000 A 
ATOM     12  N   UNL     1       4.760   5.043  17.155  0.00  0.00    +0.000 NA
BRANCH  11  13
ATOM     13  N   UNL     1       5.643   5.263  14.946  0.00  0.00    +0.000 N 
ATOM     14  H   UNL     1       4.818   4.720  14.714  0.00  0.00    +0.000 HD
BRANCH  13  15
ATOM     15  C   UNL     1       6.820   4.845  14.202  0.00  0.00    +0.000 C 
BRANCH  15  16
ATOM     16  C   UNL     1       6.372   3.910  13.095  0.00  0.00    +0.000 A 
ATOM     17  C   UNL     1       7.291   3.128  12.377  0.00  0.00    +0.000 A 
ATOM     18  C   UNL     1       6.855   2.294  11.339  0.00  0.00    +0.000 A 
ATOM     19  C   UNL     1       5.502   2.232  11.009  0.00  0.00    +0.000 A 
ATOM     20  C   UNL     1       4.592   3.006  11.716  0.00  0.00    +0.000 A 
ATOM     21  F   UNL     1       3.291   2.950  11.400  0.00  0.00    +0.000 F 
ATOM     22  C   UNL     1       5.012   3.840  12.746  0.00  0.00    +0.000 A 
ENDBRANCH  15  16
ENDBRANCH  13  15
ENDBRANCH  11  13
ENDBRANCH   6   7
BRANCH   1  24
ATOM     23  C   UNL     1       3.510   1.662  18.553  0.00  0.00    +0.000 C 
ATOM     24  O   UNL     1       4.068   2.536  19.531  0.00  0.00    +0.000 OA
ENDBRANCH   1  24
BRANCH   4  25
ATOM     25  N   UNL     1       1.018   7.007  20.716  0.00  0.00    +0.000 N 
ATOM     26  H   UNL     1       0.210   7.023  20.105  0.00  0.00    +0.000 HD
BRANCH  25  27
ATOM     27  C   UNL     1       1.731   8.295  20.736  0.00  0.00    +0.000 C 
ATOM     28  C   UNL     1       1.124   9.304  19.748  0.00  0.00    +0.000 C 
ATOM     29  C   UNL     1      -0.295   9.727  20.137  0.00  0.00    +0.000 C 
ATOM     30  C   UNL     1      -0.387  10.268  21.570  0.00  0.00    +0.000 C 
ATOM     31  C   UNL     1       0.253   9.298  22.572  0.00  0.00    +0.000 C 
ATOM     32  C   UNL     1       1.664   8.850  22.172  0.00  0.00    +0.000 C 
BRANCH  30  33
ATOM     33  N   UNL     1       0.235  11.593  21.649  0.00  0.00    +0.000 NA
ATOM     34  H   UNL     1      -0.459  12.309  21.840  0.00  0.00    +0.000 HD
ATOM     35  H   UNL     1       0.647  11.829  20.748  0.00  0.00    +0.000 HD
ENDBRANCH  30  33
ENDBRANCH  25  27
ENDBRANCH   4  25
TORSDOF 8
ENDMDL
MODEL 3
REMARK VINA RESULT:      -8.0      3.591      5.612
REMARK  Name = 
REMARK  9 active torsions:
REMARK  status: ('A' for Active; 'I' for Inactive)
REMARK    1  A    between atoms: C_1  and  O_2
REMARK    2  A    between atoms: O_2  and  C_3
REMARK    3  A    between atoms: C_6  and  N_7
REMARK    4  A    between atoms: N_7  and  C_8
REMARK    5  A    between atoms: C_11  and  N_12
REMARK    6  A    between atoms: C_16  and  C_17
REMARK    7  A    between atoms: C_21  and  N_22
REMARK    8  A    between atoms: N_22  and  C_23
REMARK    9  A    between atoms: C_23  and  C_24
REMARK                            x       y       z     vdW  Elec       q    Type
REMARK                         _______ _______ _______ _____ _____    ______ ____
ROOT
ATOM      1  C   UNL     1       2.913   5.325  19.677  0.00  0.00    +0.000 A 
ATOM      2  C   UNL     1       1.946   5.715  20.604  0.00  0.00    +0.000 A 
ATOM      3  N   UNL     1       1.367   6.937  20.654  0.00  0.00    +0.000 NA
ATOM      4  C   UNL     1       1.762   7.847  19.754  0.00  0.00    +0.000 A 
ATOM      5  C   UNL     1       2.717   7.537  18.788  0.00  0.00    +0.000 A 
ATOM      6  C   UNL     1       3.345   6.275  18.742  0.00  0.00    +0.000 A 
ENDROOT
BRANCH   6   7
ATOM      7  C   UNL     1       4.408   6.063  17.727  0.00  0.00    +0.000 A 
ATOM      8  C   UNL     1       4.415   4.994  16.833  0.00  0.00    +0.000 A 
ATOM      9  C   UNL     1       5.511   4.816  15.997  0.00  0.00    +0.000 A 
ATOM     10  C   UNL     1       6.582   5.695  16.090  0.00  0.00    +0.000 A 
ATOM     11  C   UNL     1       6.516   6.760  16.980  0.00  0.00    +0.000 A 
ATOM     12  N   UNL     1       5.453   6.943  17.787  0.00  0.00    +0.000 NA
BRANCH  11  13
ATOM     13  N   UNL     1       7.598   7.642  17.003  0.00  0.00    +0.000 N 
ATOM     14  H   UNL     1       8.273   7.383  16.291  0.00  0.00    +0.000 HD
BRANCH  13  15
ATOM     15  C   UNL     1       8.213   7.892  18.296  0.00  0.00    +0.000 C 
BRANCH  15  16
ATOM     16  C   UNL     1       8.548   9.369  18.382  0.00  0.00    +0.000 A 
ATOM     17  C   UNL     1       9.435   9.865  19.351  0.00  0.00    +0.000 A 
ATOM     18  C   UNL     1       9.706  11.238  19.430  0.00  0.00    +0.000 A 
ATOM     19  C   UNL     1       9.096  12.125  18.544  0.00  0.00    +0.000 A 
ATOM     20  C   UNL     1       8.217  11.637  17.587  0.00  0.00    +0.000 A 
ATOM     21  F   UNL     1       7.627  12.488  16.736  0.00  0.00    +0.000 F 
ATOM     22  C   UNL     1       7.937  10.277  17.502  0.00  0.00    +0.000 A 
ENDBRANCH  15  16
ENDBRANCH  13  15
ENDBRANCH  11  13
ENDBRANCH   6   7
BRANCH   1  24
ATOM     23  C   UNL     1       2.846   3.124  20.530  0.00  0.00    +0.000 C 
ATOM     24  O   UNL     1       3.473   4.075  19.672  0.00  0.00    +0.000 OA
ENDBRANCH   1  24
BRANCH   4  25
ATOM     25  N   UNL     1       1.190   9.123  19.720  0.00  0.00    +0.000 N 
ATOM     26  H   UNL     1       0.310   9.113  20.223  0.00  0.00    +0.000 HD
BRANCH  25  27
ATOM     27  C   UNL     1       1.078   9.774  18.405  0.00  0.00    +0.000 C 
ATOM     28  C   UNL     1      -0.365   9.759  17.876  0.00  0.00    +0.000 C 
ATOM     29  C   UNL     1      -1.313  10.608  18.727  0.00  0.00    +0.000 C 
ATOM     30  C   UNL     1      -0.828  12.054  18.901  0.00  0.00    +0.000 C 
ATOM     31  C   UNL     1       0.627  12.097  19.386  0.00  0.00    +0.000 C 
ATOM     32  C   UNL     1       1.575  11.226  18.553  0.00  0.00    +0.000 C 
BRANCH  30  33
ATOM     33  N   UNL     1      -0.987  12.792  17.644  0.00  0.00    +0.000 NA
ATOM     34  H   UNL     1      -1.668  13.539  17.746  0.00  0.00    +0.000 HD
ATOM     35  H   UNL     1      -1.353  12.168  16.927  0.00  0.00    +0.000 HD
ENDBRANCH  30  33
ENDBRANCH  25  27
ENDBRANCH   4  25
TORSDOF 8
ENDMDL
MODEL 4
REMARK VINA RESULT:      -8.0      4.732      9.952
REMARK  Name = 
REMARK  9 active torsions:
REMARK  status: ('A' for Active; 'I' for Inactive)
REMARK    1  A    between atoms: C_1  and  O_2
REMARK    2  A    between atoms: O_2  and  C_3
REMARK    3  A    between atoms: C_6  and  N_7
REMARK    4  A    between atoms: N_7  and  C_8
REMARK    5  A    between atoms: C_11  and  N_12
REMARK    6  A    between atoms: C_16  and  C_17
REMARK    7  A    between atoms: C_21  and  N_22
REMARK    8  A    between atoms: N_22  and  C_23
REMARK    9  A    between atoms: C_23  and  C_24
REMARK                            x       y       z     vdW  Elec       q    Type
REMARK                         _______ _______ _______ _____ _____    ______ ____
ROOT
ATOM      1  C   UNL     1       1.401   9.780  18.747  0.00  0.00    +0.000 A 
ATOM      2  C   UNL     1       2.169   9.121  17.785  0.00  0.00    +0.000 A 
ATOM      3  N   UNL     1       2.719   7.895  17.939  0.00  0.00    +0.000 NA
ATOM      4  C   UNL     1       2.525   7.270  19.108  0.00  0.00    +0.000 A 
ATOM      5  C   UNL     1       1.765   7.854  20.119  0.00  0.00    +0.000 A 
ATOM      6  C   UNL     1       1.207   9.142  19.980  0.00  0.00    +0.000 A 
ENDROOT
BRANCH   6   7
ATOM      7  C   UNL     1       0.479   9.716  21.139  0.00  0.00    +0.000 A 
ATOM      8  C   UNL     1       0.550   9.190  22.427  0.00  0.00    +0.000 A 
ATOM      9  C   UNL     1      -0.256   9.727  23.425  0.00  0.00    +0.000 A 
ATOM     10  C   UNL     1      -1.127  10.760  23.106  0.00  0.00    +0.000 A 
ATOM     11  C   UNL     1      -1.142  11.267  21.812  0.00  0.00    +0.000 A 
ATOM     12  N   UNL     1      -0.357  10.756  20.844  0.00  0.00    +0.000 NA
BRANCH  11  13
ATOM     13  N   UNL     1      -2.003  12.335  21.554  0.00  0.00    +0.000 N 
ATOM     14  H   UNL     1      -2.940  12.113  21.875  0.00  0.00    +0.000 HD
BRANCH  13  15
ATOM     15  C   UNL     1      -1.984  12.882  20.207  0.00  0.00    +0.000 C 
BRANCH  15  16
ATOM     16  C   UNL     1      -3.123  12.254  19.427  0.00  0.00    +0.000 A 
ATOM     17  C   UNL     1      -4.464  12.495  19.764  0.00  0.00    +0.000 A 
ATOM     18  C   UNL     1      -5.499  11.880  19.046  0.00  0.00    +0.000 A 
ATOM     19  C   UNL     1      -5.205  11.022  17.988  0.00  0.00    +0.000 A 
ATOM     20  C   UNL     1      -3.879  10.781  17.653  0.00  0.00    +0.000 A 
ATOM     21  F   UNL     1      -3.594   9.955  16.638  0.00  0.00    +0.000 F 
ATOM     22  C   UNL     1      -2.844  11.383  18.361  0.00  0.00    +0.000 A 
ENDBRANCH  15  16
ENDBRANCH  13  15
ENDBRANCH  11  13
ENDBRANCH   6   7
BRANCH   1  24
ATOM     23  C   UNL     1       1.817  12.090  18.490  0.00  0.00    +0.000 C 
ATOM     24  O   UNL     1       0.870  11.025  18.543  0.00  0.00    +0.000 OA
ENDBRANCH   1  24
BRANCH   4  25
ATOM     25  N   UNL     1       3.036   5.987  19.334  0.00  0.00    +0.000 N 
ATOM     26  H   UNL     1       3.789   5.803  18.681  0.00  0.00    +0.000 HD
BRANCH  25  27
ATOM     27  C   UNL     1       2.067   4.881  19.400  0.00  0.00    +0.000 C 
ATOM     28  C   UNL     1       1.730   4.326  18.007  0.00  0.00    +0.000 C 
ATOM     29  C   UNL     1       2.929   3.652  17.336  0.00  0.00    +0.000 C 
ATOM     30  C   UNL     1       3.562   2.555  18.204  0.00  0.00    +0.000 C 
ATOM     31  C   UNL     1       3.867   3.071  19.616  0.00  0.00    +0.000 C 
ATOM     32  C   UNL     1       2.676   3.772  20.281  0.00  0.00    +0.000 C 
BRANCH  30  33
ATOM     33  N   UNL     1       2.684   1.382  18.250  0.00  0.00    +0.000 NA
ATOM     34  H   UNL     1       1.852   1.529  17.688  0.00  0.00    +0.000 HD
ATOM     35  H   UNL     1       2.362   1.236  19.204  0.00  0.00    +0.000 HD
ENDBRANCH  30  33
ENDBRANCH  25  27
ENDBRANCH   4  25
TORSDOF 8
ENDMDL
MODEL 5
REMARK VINA RESULT:      -7.9      5.414     10.632
REMARK  Name = 
REMARK  9 active torsions:
REMARK  status: ('A' for Active; 'I' for Inactive)
REMARK    1  A    between atoms: C_1  and  O_2
REMARK    2  A    between atoms: O_2  and  C_3
REMARK    3  A    between atoms: C_6  and  N_7
REMARK    4  A    between atoms: N_7  and  C_8
REMARK    5  A    between atoms: C_11  and  N_12
REMARK    6  A    between atoms: C_16  and  C_17
REMARK    7  A    between atoms: C_21  and  N_22
REMARK    8  A    between atoms: N_22  and  C_23
REMARK    9  A    between atoms: C_23  and  C_24
REMARK                            x       y       z     vdW  Elec       q    Type
REMARK                         _______ _______ _______ _____ _____    ______ ____
ROOT
ATOM      1  C   UNL     1       0.974   9.050  20.585  0.00  0.00    +0.000 A 
ATOM      2  C   UNL     1       1.455   7.768  20.854  0.00  0.00    +0.000 A 
ATOM      3  N   UNL     1       2.132   6.993  19.976  0.00  0.00    +0.000 NA
ATOM      4  C   UNL     1       2.346   7.487  18.749  0.00  0.00    +0.000 A 
ATOM      5  C   UNL     1       1.905   8.762  18.400  0.00  0.00    +0.000 A 
ATOM      6  C   UNL     1       1.177   9.569  19.298  0.00  0.00    +0.000 A 
ENDROOT
BRANCH   6   7
ATOM      7  C   UNL     1       0.680  10.881  18.812  0.00  0.00    +0.000 A 
ATOM      8  C   UNL     1       1.452  12.040  18.804  0.00  0.00    +0.000 A 
ATOM      9  C   UNL     1       0.863  13.245  18.437  0.00  0.00    +0.000 A 
ATOM     10  C   UNL     1      -0.485  13.265  18.107  0.00  0.00    +0.000 A 
ATOM     11  C   UNL     1      -1.206  12.076  18.105  0.00  0.00    +0.000 A 
ATOM     12  N   UNL     1      -0.639  10.905  18.452  0.00  0.00    +0.000 NA
BRANCH  11  13
ATOM     13  N   UNL     1      -2.547  12.143  17.721  0.00  0.00    +0.000 N 
ATOM     14  H   UNL     1      -2.913  13.073  17.894  0.00  0.00    +0.000 HD
BRANCH  13  15
ATOM     15  C   UNL     1      -3.422  11.093  18.214  0.00  0.00    +0.000 C 
BRANCH  15  16
ATOM     16  C   UNL     1      -4.842  11.626  18.222  0.00  0.00    +0.000 A 
ATOM     17  C   UNL     1      -5.413  12.211  17.080  0.00  0.00    +0.000 A 
ATOM     18  C   UNL     1      -6.716  12.723  17.120  0.00  0.00    +0.000 A 
ATOM     19  C   UNL     1      -7.461  12.656  18.297  0.00  0.00    +0.000 A 
ATOM     20  C   UNL     1      -6.898  12.079  19.428  0.00  0.00    +0.000 A 
ATOM     21  F   UNL     1      -7.611  12.015  20.561  0.00  0.00    +0.000 F 
ATOM     22  C   UNL     1      -5.604  11.571  19.401  0.00  0.00    +0.000 A 
ENDBRANCH  15  16
ENDBRANCH  13  15
ENDBRANCH  11  13
ENDBRANCH   6   7
BRANCH   1  24
ATOM     23  C   UNL     1      -0.439   9.040  22.476  0.00  0.00    +0.000 C 
ATOM     24  O   UNL     1       0.288   9.792  21.508  0.00  0.00    +0.000 OA
ENDBRANCH   1  24
BRANCH   4  25
ATOM     25  N   UNL     1       3.064   6.760  17.794  0.00  0.00    +0.000 N 
ATOM     26  H   UNL     1       2.459   6.066  17.372  0.00  0.00    +0.000 HD
BRANCH  25  27
ATOM     27  C   UNL     1       4.358   6.197  18.212  0.00  0.00    +0.000 C 
ATOM     28  C   UNL     1       4.318   4.662  18.297  0.00  0.00    +0.000 C 
ATOM     29  C   UNL     1       4.116   4.003  16.930  0.00  0.00    +0.000 C 
ATOM     30  C   UNL     1       5.155   4.448  15.892  0.00  0.00    +0.000 C 
ATOM     31  C   UNL     1       5.247   5.978  15.820  0.00  0.00    +0.000 C 
ATOM     32  C   UNL     1       5.421   6.645  17.190  0.00  0.00    +0.000 C 
BRANCH  30  33
ATOM     33  N   UNL     1       6.460   3.856  16.200  0.00  0.00    +0.000 NA
ATOM     34  H   UNL     1       7.196   4.552  16.148  0.00  0.00    +0.000 HD
ATOM     35  H   UNL     1       6.686   3.150  15.501  0.00  0.00    +0.000 HD
ENDBRANCH  30  33
ENDBRANCH  25  27
ENDBRANCH   4  25
TORSDOF 8
ENDMDL
MODEL 6
REMARK VINA RESULT:      -7.8      5.315     10.239
REMARK  Name = 
REMARK  9 active torsions:
REMARK  status: ('A' for Active; 'I' for Inactive)
REMARK    1  A    between atoms: C_1  and  O_2
REMARK    2  A    between atoms: O_2  and  C_3
REMARK    3  A    between atoms: C_6  and  N_7
REMARK    4  A    between atoms: N_7  and  C_8
REMARK    5  A    between atoms: C_11  and  N_12
REMARK    6  A    between atoms: C_16  and  C_17
REMARK    7  A    between atoms: C_21  and  N_22
REMARK    8  A    between atoms: N_22  and  C_23
REMARK    9  A    between atoms: C_23  and  C_24
REMARK                            x       y       z     vdW  Elec       q    Type
REMARK                         _______ _______ _______ _____ _____    ______ ____
ROOT
ATOM      1  C   UNL     1       1.451   9.625  18.831  0.00  0.00    +0.000 A 
ATOM      2  C   UNL     1       2.253   8.879  17.967  0.00  0.00    +0.000 A 
ATOM      3  N   UNL     1       2.778   7.664  18.249  0.00  0.00    +0.000 NA
ATOM      4  C   UNL     1       2.518   7.142  19.455  0.00  0.00    +0.000 A 
ATOM      5  C   UNL     1       1.720   7.818  20.375  0.00  0.00    +0.000 A 
ATOM      6  C   UNL     1       1.189   9.095  20.102  0.00  0.00    +0.000 A 
ENDROOT
BRANCH   6   7
ATOM      7  C   UNL     1       0.416   9.772  21.173  0.00  0.00    +0.000 A 
ATOM      8  C   UNL     1       0.329   9.294  22.479  0.00  0.00    +0.000 A 
ATOM      9  C   UNL     1      -0.511   9.934  23.382  0.00  0.00    +0.000 A 
ATOM     10  C   UNL     1      -1.260  11.022  22.954  0.00  0.00    +0.000 A 
ATOM     11  C   UNL     1      -1.119  11.477  21.648  0.00  0.00    +0.000 A 
ATOM     12  N   UNL     1      -0.300  10.865  20.771  0.00  0.00    +0.000 NA
BRANCH  11  13
ATOM     13  N   UNL     1      -1.860  12.602  21.280  0.00  0.00    +0.000 N 
ATOM     14  H   UNL     1      -2.776  12.574  21.716  0.00  0.00    +0.000 HD
BRANCH  13  15
ATOM     15  C   UNL     1      -1.921  12.911  19.861  0.00  0.00    +0.000 C 
BRANCH  15  16
ATOM     16  C   UNL     1      -3.129  12.204  19.276  0.00  0.00    +0.000 A 
ATOM     17  C   UNL     1      -3.003  11.290  18.217  0.00  0.00    +0.000 A 
ATOM     18  C   UNL     1      -4.137  10.672  17.674  0.00  0.00    +0.000 A 
ATOM     19  C   UNL     1      -5.404  10.961  18.180  0.00  0.00    +0.000 A 
ATOM     20  C   UNL     1      -5.531  11.865  19.226  0.00  0.00    +0.000 A 
ATOM     21  F   UNL     1      -6.747  12.145  19.713  0.00  0.00    +0.000 F 
ATOM     22  C   UNL     1      -4.413  12.487  19.771  0.00  0.00    +0.000 A 
ENDBRANCH  15  16
ENDBRANCH  13  15
ENDBRANCH  11  13
ENDBRANCH   6   7
BRANCH   1  24
ATOM     23  C   UNL     1       1.919  11.889  18.354  0.00  0.00    +0.000 C 
ATOM     24  O   UNL     1       0.949  10.855  18.499  0.00  0.00    +0.000 OA
ENDBRANCH   1  24
BRANCH   4  25
ATOM     25  N   UNL     1       2.998   5.877  19.812  0.00  0.00    +0.000 N 
ATOM     26  H   UNL     1       3.851   5.682  19.301  0.00  0.00    +0.000 HD
BRANCH  25  27
ATOM     27  C   UNL     1       2.045   4.757  19.759  0.00  0.00    +0.000 C 
ATOM     28  C   UNL     1       1.672   4.386  18.314  0.00  0.00    +0.000 C 
ATOM     29  C   UNL     1       2.858   3.824  17.526  0.00  0.00    +0.000 C 
ATOM     30  C   UNL     1       3.528   2.632  18.223  0.00  0.00    +0.000 C 
ATOM     31  C   UNL     1       3.870   2.962  19.682  0.00  0.00    +0.000 C 
ATOM     32  C   UNL     1       2.692   3.552  20.467  0.00  0.00    +0.000 C 
BRANCH  30  33
ATOM     33  N   UNL     1       2.665   1.450  18.138  0.00  0.00    +0.000 NA
ATOM     34  H   UNL     1       2.662   0.940  19.016  0.00  0.00    +0.000 HD
ATOM     35  H   UNL     1       3.035   0.809  17.438  0.00  0.00    +0.000 HD
ENDBRANCH  30  33
ENDBRANCH  25  27
ENDBRANCH   4  25
TORSDOF 8
ENDMDL
MODEL 7
REMARK VINA RESULT:      -7.7      5.745     11.577
REMARK  Name = 
REMARK  9 active torsions:
REMARK  status: ('A' for Active; 'I' for Inactive)
REMARK    1  A    between atoms: C_1  and  O_2
REMARK    2  A    between atoms: O_2  and  C_3
REMARK    3  A    between atoms: C_6  and  N_7
REMARK    4  A    between atoms: N_7  and  C_8
REMARK    5  A    between atoms: C_11  and  N_12
REMARK    6  A    between atoms: C_16  and  C_17
REMARK    7  A    between atoms: C_21  and  N_22
REMARK    8  A    between atoms: N_22  and  C_23
REMARK    9  A    between atoms: C_23  and  C_24
REMARK                            x       y       z     vdW  Elec       q    Type
REMARK                         _______ _______ _______ _____ _____    ______ ____
ROOT
ATOM      1  C   UNL     1       1.363   9.818  18.817  0.00  0.00    +0.000 A 
ATOM      2  C   UNL     1       2.124   9.108  17.887  0.00  0.00    +0.000 A 
ATOM      3  N   UNL     1       2.597   7.853  18.067  0.00  0.00    +0.000 NA
ATOM      4  C   UNL     1       2.325   7.250  19.233  0.00  0.00    +0.000 A 
ATOM      5  C   UNL     1       1.565   7.885  20.212  0.00  0.00    +0.000 A 
ATOM      6  C   UNL     1       1.089   9.202  20.046  0.00  0.00    +0.000 A 
ENDROOT
BRANCH   6   7
ATOM      7  C   UNL     1       0.355   9.826  21.176  0.00  0.00    +0.000 A 
ATOM      8  C   UNL     1       0.406   9.347  22.483  0.00  0.00    +0.000 A 
ATOM      9  C   UNL     1      -0.405   9.929  23.450  0.00  0.00    +0.000 A 
ATOM     10  C   UNL     1      -1.261  10.959  23.084  0.00  0.00    +0.000 A 
ATOM     11  C   UNL     1      -1.256  11.418  21.772  0.00  0.00    +0.000 A 
ATOM     12  N   UNL     1      -0.466  10.863  20.832  0.00  0.00    +0.000 NA
BRANCH  11  13
ATOM     13  N   UNL     1      -2.101  12.486  21.466  0.00  0.00    +0.000 N 
ATOM     14  H   UNL     1      -1.632  13.135  20.843  0.00  0.00    +0.000 HD
BRANCH  13  15
ATOM     15  C   UNL     1      -2.750  13.150  22.585  0.00  0.00    +0.000 C 
BRANCH  15  16
ATOM     16  C   UNL     1      -4.245  12.924  22.466  0.00  0.00    +0.000 A 
ATOM     17  C   UNL     1      -4.850  12.649  21.229  0.00  0.00    +0.000 A 
ATOM     18  C   UNL     1      -6.238  12.473  21.140  0.00  0.00    +0.000 A 
ATOM     19  C   UNL     1      -7.032  12.570  22.282  0.00  0.00    +0.000 A 
ATOM     20  C   UNL     1      -6.436  12.843  23.506  0.00  0.00    +0.000 A 
ATOM     21  F   UNL     1      -7.197  12.939  24.605  0.00  0.00    +0.000 F 
ATOM     22  C   UNL     1      -5.061  13.023  23.606  0.00  0.00    +0.000 A 
ENDBRANCH  15  16
ENDBRANCH  13  15
ENDBRANCH  11  13
ENDBRANCH   6   7
BRANCH   1  24
ATOM     23  C   UNL     1       1.930  12.077  18.432  0.00  0.00    +0.000 C 
ATOM     24  O   UNL     1       0.913  11.090  18.587  0.00  0.00    +0.000 OA
ENDBRANCH   1  24
BRANCH   4  25
ATOM     25  N   UNL     1       2.753   5.941  19.484  0.00  0.00    +0.000 N 
ATOM     26  H   UNL     1       3.468   5.951  20.202  0.00  0.00    +0.000 HD
BRANCH  25  27
ATOM     27  C   UNL     1       3.136   5.125  18.321  0.00  0.00    +0.000 C 
ATOM     28  C   UNL     1       4.290   4.163  18.648  0.00  0.00    +0.000 C 
ATOM     29  C   UNL     1       3.892   3.091  19.665  0.00  0.00    +0.000 C 
ATOM     30  C   UNL     1       2.647   2.299  19.243  0.00  0.00    +0.000 C 
ATOM     31  C   UNL     1       1.493   3.238  18.868  0.00  0.00    +0.000 C 
ATOM     32  C   UNL     1       1.894   4.332  17.871  0.00  0.00    +0.000 C 
BRANCH  30  33
ATOM     33  N   UNL     1       2.975   1.398  18.135  0.00  0.00    +0.000 NA
ATOM     34  H   UNL     1       2.287   1.472  17.392  0.00  0.00    +0.000 HD
ATOM     35  H   UNL     1       2.942   0.434  18.459  0.00  0.00    +0.000 HD
ENDBRANCH  30  33
ENDBRANCH  25  27
ENDBRANCH   4  25
TORSDOF 8
ENDMDL
MODEL 8
REMARK VINA RESULT:      -7.7      5.444     11.516
REMARK  Name = 
REMARK  9 active torsions:
REMARK  status: ('A' for Active; 'I' for Inactive)
REMARK    1  A    between atoms: C_1  and  O_2
REMARK    2  A    between atoms: O_2  and  C_3
REMARK    3  A    between atoms: C_6  and  N_7
REMARK    4  A    between atoms: N_7  and  C_8
REMARK    5  A    between atoms: C_11  and  N_12
REMARK    6  A    between atoms: C_16  and  C_17
REMARK    7  A    between atoms: C_21  and  N_22
REMARK    8  A    between atoms: N_22  and  C_23
REMARK    9  A    between atoms: C_23  and  C_24
REMARK                            x       y       z     vdW  Elec       q    Type
REMARK                         _______ _______ _______ _____ _____    ______ ____
ROOT
ATOM      1  C   UNL     1       1.409   9.782  18.710  0.00  0.00    +0.000 A 
ATOM      2  C   UNL     1       2.163   9.142  17.725  0.00  0.00    +0.000 A 
ATOM      3  N   UNL     1       2.723   7.918  17.849  0.00  0.00    +0.000 NA
ATOM      4  C   UNL     1       2.554   7.274  19.012  0.00  0.00    +0.000 A 
ATOM      5  C   UNL     1       1.809   7.837  20.045  0.00  0.00    +0.000 A 
ATOM      6  C   UNL     1       1.240   9.123  19.936  0.00  0.00    +0.000 A 
ENDROOT
BRANCH   6   7
ATOM      7  C   UNL     1       0.530   9.674  21.118  0.00  0.00    +0.000 A 
ATOM      8  C   UNL     1       0.648   9.145  22.401  0.00  0.00    +0.000 A 
ATOM      9  C   UNL     1      -0.144   9.658  23.422  0.00  0.00    +0.000 A 
ATOM     10  C   UNL     1      -1.048  10.671  23.131  0.00  0.00    +0.000 A 
ATOM     11  C   UNL     1      -1.111  11.182  21.840  0.00  0.00    +0.000 A 
ATOM     12  N   UNL     1      -0.339  10.695  20.849  0.00  0.00    +0.000 NA
BRANCH  11  13
ATOM     13  N   UNL     1      -2.004  12.230  21.611  0.00  0.00    +0.000 N 
ATOM     14  H   UNL     1      -1.744  12.731  20.768  0.00  0.00    +0.000 HD
BRANCH  13  15
ATOM     15  C   UNL     1      -2.276  13.116  22.731  0.00  0.00    +0.000 C 
BRANCH  15  16
ATOM     16  C   UNL     1      -3.733  12.955  23.118  0.00  0.00    +0.000 A 
ATOM     17  C   UNL     1      -4.109  12.537  24.405  0.00  0.00    +0.000 A 
ATOM     18  C   UNL     1      -5.462  12.367  24.729  0.00  0.00    +0.000 A 
ATOM     19  C   UNL     1      -6.449  12.611  23.775  0.00  0.00    +0.000 A 
ATOM     20  C   UNL     1      -6.079  13.023  22.502  0.00  0.00    +0.000 A 
ATOM     21  F   UNL     1      -7.025  13.256  21.582  0.00  0.00    +0.000 F 
ATOM     22  C   UNL     1      -4.740  13.192  22.167  0.00  0.00    +0.000 A 
ENDBRANCH  15  16
ENDBRANCH  13  15
ENDBRANCH  11  13
ENDBRANCH   6   7
BRANCH   1  24
ATOM     23  C   UNL     1       1.803  12.101  18.511  0.00  0.00    +0.000 C 
ATOM     24  O   UNL     1       0.866  11.027  18.536  0.00  0.00    +0.000 OA
ENDBRANCH   1  24
BRANCH   4  25
ATOM     25  N   UNL     1       3.077   5.991  19.208  0.00  0.00    +0.000 N 
ATOM     26  H   UNL     1       3.974   6.059  19.675  0.00  0.00    +0.000 HD
BRANCH  25  27
ATOM     27  C   UNL     1       3.119   5.097  18.040  0.00  0.00    +0.000 C 
ATOM     28  C   UNL     1       4.210   4.022  18.176  0.00  0.00    +0.000 C 
ATOM     29  C   UNL     1       3.927   3.037  19.314  0.00  0.00    +0.000 C 
ATOM     30  C   UNL     1       2.545   2.378  19.204  0.00  0.00    +0.000 C 
ATOM     31  C   UNL     1       1.442   3.429  19.022  0.00  0.00    +0.000 C 
ATOM     32  C   UNL     1       1.734   4.435  17.902  0.00  0.00    +0.000 C 
BRANCH  30  33
ATOM     33  N   UNL     1       2.536   1.408  18.105  0.00  0.00    +0.000 NA
ATOM     34  H   UNL     1       3.391   0.861  18.097  0.00  0.00    +0.000 HD
ATOM     35  H   UNL     1       2.505   1.903  17.216  0.00  0.00    +0.000 HD
ENDBRANCH  30  33
ENDBRANCH  25  27
ENDBRANCH   4  25
TORSDOF 8
ENDMDL
MODEL 9
REMARK VINA RESULT:      -7.7      5.110     10.453
REMARK  Name = 
REMARK  9 active torsions:
REMARK  status: ('A' for Active; 'I' for Inactive)
REMARK    1  A    between atoms: C_1  and  O_2
REMARK    2  A    between atoms: O_2  and  C_3
REMARK    3  A    between atoms: C_6  and  N_7
REMARK    4  A    between atoms: N_7  and  C_8
REMARK    5  A    between atoms: C_11  and  N_12
REMARK    6  A    between atoms: C_16  and  C_17
REMARK    7  A    between atoms: C_21  and  N_22
REMARK    8  A    between atoms: N_22  and  C_23
REMARK    9  A    between atoms: C_23  and  C_24
REMARK                            x       y       z     vdW  Elec       q    Type
REMARK                         _______ _______ _______ _____ _____    ______ ____
ROOT
ATOM      1  C   UNL     1       1.467   9.563  18.804  0.00  0.00    +0.000 A 
ATOM      2  C   UNL     1       2.296   8.660  18.137  0.00  0.00    +0.000 A 
ATOM      3  N   UNL     1       2.660   7.445  18.609  0.00  0.00    +0.000 NA
ATOM      4  C   UNL     1       2.201   7.087  19.816  0.00  0.00    +0.000 A 
ATOM      5  C   UNL     1       1.362   7.927  20.545  0.00  0.00    +0.000 A 
ATOM      6  C   UNL     1       0.996   9.204  20.074  0.00  0.00    +0.000 A 
ENDROOT
BRANCH   6   7
ATOM      7  C   UNL     1       0.163  10.060  20.956  0.00  0.00    +0.000 A 
ATOM      8  C   UNL     1       0.117   9.922  22.341  0.00  0.00    +0.000 A 
ATOM      9  C   UNL     1      -0.779  10.694  23.071  0.00  0.00    +0.000 A 
ATOM     10  C   UNL     1      -1.620  11.570  22.398  0.00  0.00    +0.000 A 
ATOM     11  C   UNL     1      -1.518  11.690  21.017  0.00  0.00    +0.000 A 
ATOM     12  N   UNL     1      -0.646  10.950  20.306  0.00  0.00    +0.000 NA
BRANCH  11  13
ATOM     13  N   UNL     1      -2.355  12.618  20.393  0.00  0.00    +0.000 N 
ATOM     14  H   UNL     1      -1.852  13.484  20.227  0.00  0.00    +0.000 HD
BRANCH  13  15
ATOM     15  C   UNL     1      -3.660  12.831  20.995  0.00  0.00    +0.000 C 
BRANCH  15  16
ATOM     16  C   UNL     1      -4.713  12.291  20.046  0.00  0.00    +0.000 A 
ATOM     17  C   UNL     1      -6.052  12.143  20.442  0.00  0.00    +0.000 A 
ATOM     18  C   UNL     1      -7.000  11.614  19.556  0.00  0.00    +0.000 A 
ATOM     19  C   UNL     1      -6.621  11.228  18.271  0.00  0.00    +0.000 A 
ATOM     20  C   UNL     1      -5.297  11.372  17.878  0.00  0.00    +0.000 A 
ATOM     21  F   UNL     1      -4.930  11.001  16.644  0.00  0.00    +0.000 F 
ATOM     22  C   UNL     1      -4.347  11.893  18.749  0.00  0.00    +0.000 A 
ENDBRANCH  15  16
ENDBRANCH  13  15
ENDBRANCH  11  13
ENDBRANCH   6   7
BRANCH   1  24
ATOM     23  C   UNL     1       2.197  11.732  18.222  0.00  0.00    +0.000 C 
ATOM     24  O   UNL     1       1.133  10.784  18.283  0.00  0.00    +0.000 OA
ENDBRANCH   1  24
BRANCH   4  25
ATOM     25  N   UNL     1       2.507   5.835  20.361  0.00  0.00    +0.000 N 
ATOM     26  H   UNL     1       3.462   5.590  20.129  0.00  0.00    +0.000 HD
BRANCH  25  27
ATOM     27  C   UNL     1       1.564   4.737  20.092  0.00  0.00    +0.000 C 
ATOM     28  C   UNL     1       1.508   4.379  18.598  0.00  0.00    +0.000 C 
ATOM     29  C   UNL     1       2.826   3.793  18.084  0.00  0.00    +0.000 C 
ATOM     30  C   UNL     1       3.302   2.585  18.900  0.00  0.00    +0.000 C 
ATOM     31  C   UNL     1       3.324   2.902  20.401  0.00  0.00    +0.000 C 
ATOM     32  C   UNL     1       2.016   3.515  20.915  0.00  0.00    +0.000 C 
BRANCH  30  33
ATOM     33  N   UNL     1       2.455   1.422  18.620  0.00  0.00    +0.000 NA
ATOM     34  H   UNL     1       1.956   1.127  19.453  0.00  0.00    +0.000 HD
ATOM     35  H   UNL     1       3.038   0.635  18.343  0.00  0.00    +0.000 HD
ENDBRANCH  30  33
ENDBRANCH  25  27
ENDBRANCH   4  25
TORSDOF 8
ENDMDL
