MODEL 1
REMARK VINA RESULT:      -7.2      0.000      0.000
REMARK  Name = 
REMARK  6 active torsions:
REMARK  status: ('A' for Active; 'I' for Inactive)
REMARK    1  A    between atoms: C_2  and  C_3
REMARK    2  A    between atoms: C_3  and  O_4
REMARK    3  A    between atoms: O_4  and  C_5
REMARK    4  A    between atoms: C_5  and  C_7
REMARK    5  A    between atoms: N_13  and  C_14
REMARK    6  A    between atoms: C_14  and  C_15
REMARK                            x       y       z     vdW  Elec       q    Type
REMARK                         _______ _______ _______ _____ _____    ______ ____
ROOT
ATOM      1  O   UNL     1       7.057   7.694  16.884  0.00  0.00    +0.000 OA
ATOM      2  C   UNL     1       7.734   7.544  17.899  0.00  0.00    +0.000 C 
ATOM      3  N   UNL     1       8.467   8.555  18.480  0.00  0.00    +0.000 N 
ATOM      4  H   UNL     1       8.843   8.410  19.408  0.00  0.00    +0.000 HD
ENDROOT
BRANCH   2   5
ATOM      5  C   UNL     1       7.821   6.197  18.621  0.00  0.00    +0.000 C 
BRANCH   5   6
ATOM      6  O   UNL     1       6.528   5.618  18.802  0.00  0.00    +0.000 OA
BRANCH   6   7
ATOM      7  C   UNL     1       6.165   4.769  17.813  0.00  0.00    +0.000 C 
ATOM      8  O   UNL     1       6.921   4.241  17.009  0.00  0.00    +0.000 OA
BRANCH   7   9
ATOM      9  C   UNL     1       4.695   4.616  17.766  0.00  0.00    +0.000 A 
ATOM     10  C   UNL     1       4.087   3.422  17.385  0.00  0.00    +0.000 A 
ATOM     11  C   UNL     1       2.705   3.381  17.368  0.00  0.00    +0.000 A 
ATOM     12  N   UNL     1       1.919   4.429  17.700  0.00  0.00    +0.000 NA
ATOM     13  C   UNL     1       2.536   5.575  18.057  0.00  0.00    +0.000 A 
ATOM     14  C   UNL     1       3.909   5.720  18.101  0.00  0.00    +0.000 A 
ENDBRANCH   7   9
ENDBRANCH   6   7
ENDBRANCH   5   6
ENDBRANCH   2   5
BRANCH   3  15
ATOM     15  C   UNL     1       8.443   9.916  17.987  0.00  0.00    +0.000 C 
BRANCH  15  16
ATOM     16  C   UNL     1       9.505  10.749  18.661  0.00  0.00    +0.000 A 
ATOM     17  C   UNL     1      10.571  11.285  17.923  0.00  0.00    +0.000 A 
ATOM     18  C   UNL     1      11.585  12.003  18.561  0.00  0.00    +0.000 A 
ATOM     19  C   UNL     1      11.545  12.194  19.940  0.00  0.00    +0.000 A 
ATOM     20  C   UNL     1      10.485  11.676  20.682  0.00  0.00    +0.000 A 
ATOM     21  C   UNL     1       9.471  10.954  20.048  0.00  0.00    +0.000 A 
ENDBRANCH  15  16
ENDBRANCH   3  15
TORSDOF 6
ENDMDL
MODEL 2
REMARK VINA RESULT:      -7.1      4.888      7.715
REMARK  Name = 
REMARK  6 active torsions:
REMARK  status: ('A' for Active; 'I' for Inactive)
REMARK    1  A    between atoms: C_2  and  C_3
REMARK    2  A    between atoms: C_3  and  O_4
REMARK    3  A    between atoms: O_4  and  C_5
REMARK    4  A    between atoms: C_5  and  C_7
REMARK    5  A    between atoms: N_13  and  C_14
REMARK    6  A    between atoms: C_14  and  C_15
REMARK                            x       y       z     vdW  Elec       q    Type
REMARK                         _______ _______ _______ _____ _____    ______ ____
ROOT
ATOM      1  O   UNL     1       5.418   5.741  18.542  0.00  0.00    +0.000 OA
ATOM      2  C   UNL     1       4.758   6.217  17.621  0.00  0.00    +0.000 C 
ATOM      3  N   UNL     1       3.446   6.616  17.753  0.00  0.00    +0.000 N 
ATOM      4  H   UNL     1       3.029   7.166  17.013  0.00  0.00    +0.000 HD
ENDROOT
BRANCH   2   5
ATOM      5  C   UNL     1       5.347   6.413  16.222  0.00  0.00    +0.000 C 
BRANCH   5   6
ATOM      6  O   UNL     1       6.773   6.336  16.241  0.00  0.00    +0.000 OA
BRANCH   6   7
ATOM      7  C   UNL     1       7.257   5.098  15.993  0.00  0.00    +0.000 C 
ATOM      8  O   UNL     1       7.835   4.380  16.798  0.00  0.00    +0.000 OA
BRANCH   7   9
ATOM      9  C   UNL     1       7.075   4.738  14.571  0.00  0.00    +0.000 A 
ATOM     10  C   UNL     1       7.805   5.350  13.554  0.00  0.00    +0.000 A 
ATOM     11  C   UNL     1       7.558   4.947  12.254  0.00  0.00    +0.000 A 
ATOM     12  N   UNL     1       6.656   3.999  11.920  0.00  0.00    +0.000 NA
ATOM     13  C   UNL     1       5.958   3.430  12.926  0.00  0.00    +0.000 A 
ATOM     14  C   UNL     1       6.126   3.764  14.255  0.00  0.00    +0.000 A 
ENDBRANCH   7   9
ENDBRANCH   6   7
ENDBRANCH   5   6
ENDBRANCH   2   5
BRANCH   3  15
ATOM     15  C   UNL     1       2.746   6.583  19.020  0.00  0.00    +0.000 C 
BRANCH  15  16
ATOM     16  C   UNL     1       2.119   5.230  19.251  0.00  0.00    +0.000 A 
ATOM     17  C   UNL     1       1.828   4.382  18.172  0.00  0.00    +0.000 A 
ATOM     18  C   UNL     1       1.191   3.157  18.385  0.00  0.00    +0.000 A 
ATOM     19  C   UNL     1       0.840   2.767  19.675  0.00  0.00    +0.000 A 
ATOM     20  C   UNL     1       1.135   3.596  20.757  0.00  0.00    +0.000 A 
ATOM     21  C   UNL     1       1.768   4.823  20.547  0.00  0.00    +0.000 A 
ENDBRANCH  15  16
ENDBRANCH   3  15
TORSDOF 6
ENDMDL
MODEL 3
REMARK VINA RESULT:      -6.9      4.776      7.795
REMARK  Name = 
REMARK  6 active torsions:
REMARK  status: ('A' for Active; 'I' for Inactive)
REMARK    1  A    between atoms: C_2  and  C_3
REMARK    2  A    between atoms: C_3  and  O_4
REMARK    3  A    between atoms: O_4  and  C_5
REMARK    4  A    between atoms: C_5  and  C_7
REMARK    5  A    between atoms: N_13  and  C_14
REMARK    6  A    between atoms: C_14  and  C_15
REMARK                            x       y       z     vdW  Elec       q    Type
REMARK                         _______ _______ _______ _____ _____    ______ ____
ROOT
ATOM      1  O   UNL     1       4.762   5.520  18.747  0.00  0.00    +0.000 OA
ATOM      2  C   UNL     1       5.442   4.617  18.263  0.00  0.00    +0.000 C 
ATOM      3  N   UNL     1       4.909   3.458  17.745  0.00  0.00    +0.000 N 
ATOM      4  H   UNL     1       5.507   2.851  17.198  0.00  0.00    +0.000 HD
ENDROOT
BRANCH   2   5
ATOM      5  C   UNL     1       6.969   4.707  18.189  0.00  0.00    +0.000 C 
BRANCH   5   6
ATOM      6  O   UNL     1       7.449   4.373  16.887  0.00  0.00    +0.000 OA
BRANCH   6   7
ATOM      7  C   UNL     1       7.346   5.382  15.991  0.00  0.00    +0.000 C 
ATOM      8  O   UNL     1       7.405   6.577  16.248  0.00  0.00    +0.000 OA
BRANCH   7   9
ATOM      9  C   UNL     1       7.062   4.856  14.639  0.00  0.00    +0.000 A 
ATOM     10  C   UNL     1       7.811   5.234  13.526  0.00  0.00    +0.000 A 
ATOM     11  C   UNL     1       7.463   4.690  12.303  0.00  0.00    +0.000 A 
ATOM     12  N   UNL     1       6.446   3.818  12.131  0.00  0.00    +0.000 NA
ATOM     13  C   UNL     1       5.734   3.477  13.226  0.00  0.00    +0.000 A 
ATOM     14  C   UNL     1       5.997   3.967  14.490  0.00  0.00    +0.000 A 
ENDBRANCH   7   9
ENDBRANCH   6   7
ENDBRANCH   5   6
ENDBRANCH   2   5
BRANCH   3  15
ATOM     15  C   UNL     1       3.482   3.230  17.653  0.00  0.00    +0.000 C 
BRANCH  15  16
ATOM     16  C   UNL     1       2.846   3.256  19.021  0.00  0.00    +0.000 A 
ATOM     17  C   UNL     1       3.390   2.511  20.078  0.00  0.00    +0.000 A 
ATOM     18  C   UNL     1       2.762   2.489  21.326  0.00  0.00    +0.000 A 
ATOM     19  C   UNL     1       1.589   3.210  21.531  0.00  0.00    +0.000 A 
ATOM     20  C   UNL     1       1.046   3.964  20.492  0.00  0.00    +0.000 A 
ATOM     21  C   UNL     1       1.668   3.985  19.242  0.00  0.00    +0.000 A 
ENDBRANCH  15  16
ENDBRANCH   3  15
TORSDOF 6
ENDMDL
MODEL 4
REMARK VINA RESULT:      -6.9      4.896      6.782
REMARK  Name = 
REMARK  6 active torsions:
REMARK  status: ('A' for Active; 'I' for Inactive)
REMARK    1  A    between atoms: C_2  and  C_3
REMARK    2  A    between atoms: C_3  and  O_4
REMARK    3  A    between atoms: O_4  and  C_5
REMARK    4  A    between atoms: C_5  and  C_7
REMARK    5  A    between atoms: N_13  and  C_14
REMARK    6  A    between atoms: C_14  and  C_15
REMARK                            x       y       z     vdW  Elec       q    Type
REMARK                         _______ _______ _______ _____ _____    ______ ____
ROOT
ATOM      1  O   UNL     1       0.743   4.154  20.231  0.00  0.00    +0.000 OA
ATOM      2  C   UNL     1       1.952   4.358  20.311  0.00  0.00    +0.000 C 
ATOM      3  N   UNL     1       2.498   5.581  20.633  0.00  0.00    +0.000 N 
ATOM      4  H   UNL     1       3.483   5.626  20.863  0.00  0.00    +0.000 HD
ENDROOT
BRANCH   2   5
ATOM      5  C   UNL     1       2.976   3.248  20.056  0.00  0.00    +0.000 C 
BRANCH   5   6
ATOM      6  O   UNL     1       4.099   3.734  19.319  0.00  0.00    +0.000 OA
BRANCH   6   7
ATOM      7  C   UNL     1       3.961   3.624  17.977  0.00  0.00    +0.000 C 
ATOM      8  O   UNL     1       3.000   3.144  17.393  0.00  0.00    +0.000 OA
BRANCH   7   9
ATOM      9  C   UNL     1       5.182   4.089  17.285  0.00  0.00    +0.000 A 
ATOM     10  C   UNL     1       5.286   4.100  15.896  0.00  0.00    +0.000 A 
ATOM     11  C   UNL     1       6.472   4.549  15.344  0.00  0.00    +0.000 A 
ATOM     12  N   UNL     1       7.526   4.976  16.074  0.00  0.00    +0.000 NA
ATOM     13  C   UNL     1       7.399   4.946  17.417  0.00  0.00    +0.000 A 
ATOM     14  C   UNL     1       6.260   4.511  18.066  0.00  0.00    +0.000 A 
ENDBRANCH   7   9
ENDBRANCH   6   7
ENDBRANCH   5   6
ENDBRANCH   2   5
BRANCH   3  15
ATOM     15  C   UNL     1       1.687   6.726  20.987  0.00  0.00    +0.000 C 
BRANCH  15  16
ATOM     16  C   UNL     1       1.758   7.785  19.915  0.00  0.00    +0.000 A 
ATOM     17  C   UNL     1       1.094   9.010  20.073  0.00  0.00    +0.000 A 
ATOM     18  C   UNL     1       1.111   9.963  19.052  0.00  0.00    +0.000 A 
ATOM     19  C   UNL     1       1.791   9.703  17.865  0.00  0.00    +0.000 A 
ATOM     20  C   UNL     1       2.464   8.494  17.700  0.00  0.00    +0.000 A 
ATOM     21  C   UNL     1       2.446   7.537  18.718  0.00  0.00    +0.000 A 
ENDBRANCH  15  16
ENDBRANCH   3  15
TORSDOF 6
ENDMDL
MODEL 5
REMARK VINA RESULT:      -6.8      4.873      8.099
REMARK  Name = 
REMARK  6 active torsions:
REMARK  status: ('A' for Active; 'I' for Inactive)
REMARK    1  A    between atoms: C_2  and  C_3
REMARK    2  A    between atoms: C_3  and  O_4
REMARK    3  A    between atoms: O_4  and  C_5
REMARK    4  A    between atoms: C_5  and  C_7
REMARK    5  A    between atoms: N_13  and  C_14
REMARK    6  A    between atoms: C_14  and  C_15
REMARK                            x       y       z     vdW  Elec       q    Type
REMARK                         _______ _______ _______ _____ _____    ______ ____
ROOT
ATOM      1  O   UNL     1       5.882   4.114  19.059  0.00  0.00    +0.000 OA
ATOM      2  C   UNL     1       5.217   4.553  18.124  0.00  0.00    +0.000 C 
ATOM      3  N   UNL     1       4.189   3.856  17.528  0.00  0.00    +0.000 N 
ATOM      4  H   UNL     1       3.571   4.350  16.897  0.00  0.00    +0.000 HD
ENDROOT
BRANCH   2   5
ATOM      5  C   UNL     1       5.478   5.940  17.528  0.00  0.00    +0.000 C 
BRANCH   5   6
ATOM      6  O   UNL     1       5.485   5.902  16.101  0.00  0.00    +0.000 OA
BRANCH   6   7
ATOM      7  C   UNL     1       6.714   5.722  15.564  0.00  0.00    +0.000 C 
ATOM      8  O   UNL     1       7.760   6.179  16.003  0.00  0.00    +0.000 OA
BRANCH   7   9
ATOM      9  C   UNL     1       6.628   4.958  14.302  0.00  0.00    +0.000 A 
ATOM     10  C   UNL     1       7.564   5.110  13.280  0.00  0.00    +0.000 A 
ATOM     11  C   UNL     1       7.394   4.353  12.135  0.00  0.00    +0.000 A 
ATOM     12  N   UNL     1       6.378   3.480  11.956  0.00  0.00    +0.000 NA
ATOM     13  C   UNL     1       5.483   3.361  12.959  0.00  0.00    +0.000 A 
ATOM     14  C   UNL     1       5.560   4.074  14.139  0.00  0.00    +0.000 A 
ENDBRANCH   7   9
ENDBRANCH   6   7
ENDBRANCH   5   6
ENDBRANCH   2   5
BRANCH   3  15
ATOM     15  C   UNL     1       3.744   2.565  18.008  0.00  0.00    +0.000 C 
BRANCH  15  16
ATOM     16  C   UNL     1       2.846   2.720  19.209  0.00  0.00    +0.000 A 
ATOM     17  C   UNL     1       3.333   2.482  20.503  0.00  0.00    +0.000 A 
ATOM     18  C   UNL     1       2.482   2.566  21.608  0.00  0.00    +0.000 A 
ATOM     19  C   UNL     1       1.139   2.890  21.433  0.00  0.00    +0.000 A 
ATOM     20  C   UNL     1       0.647   3.141  20.153  0.00  0.00    +0.000 A 
ATOM     21  C   UNL     1       1.494   3.054  19.046  0.00  0.00    +0.000 A 
ENDBRANCH  15  16
ENDBRANCH   3  15
TORSDOF 6
ENDMDL
MODEL 6
REMARK VINA RESULT:      -6.8      4.847      6.543
REMARK  Name = 
REMARK  6 active torsions:
REMARK  status: ('A' for Active; 'I' for Inactive)
REMARK    1  A    between atoms: C_2  and  C_3
REMARK    2  A    between atoms: C_3  and  O_4
REMARK    3  A    between atoms: O_4  and  C_5
REMARK    4  A    between atoms: C_5  and  C_7
REMARK    5  A    between atoms: N_13  and  C_14
REMARK    6  A    between atoms: C_14  and  C_15
REMARK                            x       y       z     vdW  Elec       q    Type
REMARK                         _______ _______ _______ _____ _____    ______ ____
ROOT
ATOM      1  O   UNL     1       7.979   4.494  18.148  0.00  0.00    +0.000 OA
ATOM      2  C   UNL     1       6.798   4.745  17.919  0.00  0.00    +0.000 C 
ATOM      3  N   UNL     1       6.355   5.317  16.747  0.00  0.00    +0.000 N 
ATOM      4  H   UNL     1       5.362   5.320  16.554  0.00  0.00    +0.000 HD
ENDROOT
BRANCH   2   5
ATOM      5  C   UNL     1       5.695   4.437  18.935  0.00  0.00    +0.000 C 
BRANCH   5   6
ATOM      6  O   UNL     1       4.996   3.238  18.599  0.00  0.00    +0.000 OA
BRANCH   6   7
ATOM      7  C   UNL     1       4.448   2.607  19.664  0.00  0.00    +0.000 C 
ATOM      8  O   UNL     1       5.052   1.926  20.481  0.00  0.00    +0.000 OA
BRANCH   7   9
ATOM      9  C   UNL     1       2.980   2.775  19.674  0.00  0.00    +0.000 A 
ATOM     10  C   UNL     1       2.153   2.109  18.772  0.00  0.00    +0.000 A 
ATOM     11  C   UNL     1       0.791   2.337  18.859  0.00  0.00    +0.000 A 
ATOM     12  N   UNL     1       0.225   3.163  19.766  0.00  0.00    +0.000 NA
ATOM     13  C   UNL     1       1.052   3.800  20.622  0.00  0.00    +0.000 A 
ATOM     14  C   UNL     1       2.424   3.646  20.614  0.00  0.00    +0.000 A 
ENDBRANCH   7   9
ENDBRANCH   6   7
ENDBRANCH   5   6
ENDBRANCH   2   5
BRANCH   3  15
ATOM     15  C   UNL     1       7.241   5.603  15.638  0.00  0.00    +0.000 C 
BRANCH  15  16
ATOM     16  C   UNL     1       6.780   4.896  14.388  0.00  0.00    +0.000 A 
ATOM     17  C   UNL     1       5.552   4.217  14.360  0.00  0.00    +0.000 A 
ATOM     18  C   UNL     1       5.157   3.512  13.221  0.00  0.00    +0.000 A 
ATOM     19  C   UNL     1       5.982   3.477  12.100  0.00  0.00    +0.000 A 
ATOM     20  C   UNL     1       7.199   4.157  12.111  0.00  0.00    +0.000 A 
ATOM     21  C   UNL     1       7.598   4.860  13.250  0.00  0.00    +0.000 A 
ENDBRANCH  15  16
ENDBRANCH   3  15
TORSDOF 6
ENDMDL
MODEL 7
REMARK VINA RESULT:      -6.8      5.134      6.748
REMARK  Name = 
REMARK  6 active torsions:
REMARK  status: ('A' for Active; 'I' for Inactive)
REMARK    1  A    between atoms: C_2  and  C_3
REMARK    2  A    between atoms: C_3  and  O_4
REMARK    3  A    between atoms: O_4  and  C_5
REMARK    4  A    between atoms: C_5  and  C_7
REMARK    5  A    between atoms: N_13  and  C_14
REMARK    6  A    between atoms: C_14  and  C_15
REMARK                            x       y       z     vdW  Elec       q    Type
REMARK                         _______ _______ _______ _____ _____    ______ ____
ROOT
ATOM      1  O   UNL     1       5.770   5.713  18.333  0.00  0.00    +0.000 OA
ATOM      2  C   UNL     1       4.913   5.918  17.476  0.00  0.00    +0.000 C 
ATOM      3  N   UNL     1       4.851   5.232  16.283  0.00  0.00    +0.000 N 
ATOM      4  H   UNL     1       4.018   5.321  15.716  0.00  0.00    +0.000 HD
ENDROOT
BRANCH   2   5
ATOM      5  C   UNL     1       3.820   6.974  17.663  0.00  0.00    +0.000 C 
BRANCH   5   6
ATOM      6  O   UNL     1       2.562   6.373  17.973  0.00  0.00    +0.000 OA
BRANCH   6   7
ATOM      7  C   UNL     1       2.267   6.375  19.294  0.00  0.00    +0.000 C 
ATOM      8  O   UNL     1       2.272   7.354  20.028  0.00  0.00    +0.000 OA
BRANCH   7   9
ATOM      9  C   UNL     1       2.012   5.001  19.775  0.00  0.00    +0.000 A 
ATOM     10  C   UNL     1       2.216   4.633  21.104  0.00  0.00    +0.000 A 
ATOM     11  C   UNL     1       1.953   3.321  21.455  0.00  0.00    +0.000 A 
ATOM     12  N   UNL     1       1.511   2.385  20.586  0.00  0.00    +0.000 NA
ATOM     13  C   UNL     1       1.329   2.769  19.305  0.00  0.00    +0.000 A 
ATOM     14  C   UNL     1       1.568   4.052  18.852  0.00  0.00    +0.000 A 
ENDBRANCH   7   9
ENDBRANCH   6   7
ENDBRANCH   5   6
ENDBRANCH   2   5
BRANCH   3  15
ATOM     15  C   UNL     1       5.750   4.142  15.965  0.00  0.00    +0.000 C 
BRANCH  15  16
ATOM     16  C   UNL     1       6.236   4.247  14.541  0.00  0.00    +0.000 A 
ATOM     17  C   UNL     1       5.660   3.465  13.528  0.00  0.00    +0.000 A 
ATOM     18  C   UNL     1       6.155   3.520  12.223  0.00  0.00    +0.000 A 
ATOM     19  C   UNL     1       7.226   4.355  11.916  0.00  0.00    +0.000 A 
ATOM     20  C   UNL     1       7.798   5.146  12.911  0.00  0.00    +0.000 A 
ATOM     21  C   UNL     1       7.309   5.091  14.218  0.00  0.00    +0.000 A 
ENDBRANCH  15  16
ENDBRANCH   3  15
TORSDOF 6
ENDMDL
MODEL 8
REMARK VINA RESULT:      -6.8      4.676      7.305
REMARK  Name = 
REMARK  6 active torsions:
REMARK  status: ('A' for Active; 'I' for Inactive)
REMARK    1  A    between atoms: C_2  and  C_3
REMARK    2  A    between atoms: C_3  and  O_4
REMARK    3  A    between atoms: O_4  and  C_5
REMARK    4  A    between atoms: C_5  and  C_7
REMARK    5  A    between atoms: N_13  and  C_14
REMARK    6  A    between atoms: C_14  and  C_15
REMARK                            x       y       z     vdW  Elec       q    Type
REMARK                         _______ _______ _______ _____ _____    ______ ____
ROOT
ATOM      1  O   UNL     1       5.616   6.195  14.963  0.00  0.00    +0.000 OA
ATOM      2  C   UNL     1       6.596   5.537  15.309  0.00  0.00    +0.000 C 
ATOM      3  N   UNL     1       7.461   4.938  14.420  0.00  0.00    +0.000 N 
ATOM      4  H   UNL     1       8.340   4.576  14.768  0.00  0.00    +0.000 HD
ENDROOT
BRANCH   2   5
ATOM      5  C   UNL     1       6.946   5.324  16.784  0.00  0.00    +0.000 C 
BRANCH   5   6
ATOM      6  O   UNL     1       6.356   4.127  17.292  0.00  0.00    +0.000 OA
BRANCH   6   7
ATOM      7  C   UNL     1       5.606   4.315  18.402  0.00  0.00    +0.000 C 
ATOM      8  O   UNL     1       6.027   4.641  19.504  0.00  0.00    +0.000 OA
BRANCH   7   9
ATOM      9  C   UNL     1       4.188   3.990  18.139  0.00  0.00    +0.000 A 
ATOM     10  C   UNL     1       3.757   2.683  17.923  0.00  0.00    +0.000 A 
ATOM     11  C   UNL     1       2.410   2.483  17.680  0.00  0.00    +0.000 A 
ATOM     12  N   UNL     1       1.498   3.478  17.642  0.00  0.00    +0.000 NA
ATOM     13  C   UNL     1       1.946   4.734  17.847  0.00  0.00    +0.000 A 
ATOM     14  C   UNL     1       3.270   5.041  18.093  0.00  0.00    +0.000 A 
ENDBRANCH   7   9
ENDBRANCH   6   7
ENDBRANCH   5   6
ENDBRANCH   2   5
BRANCH   3  15
ATOM     15  C   UNL     1       7.338   5.097  12.987  0.00  0.00    +0.000 C 
BRANCH  15  16
ATOM     16  C   UNL     1       6.782   3.846  12.354  0.00  0.00    +0.000 A 
ATOM     17  C   UNL     1       7.637   2.896  11.775  0.00  0.00    +0.000 A 
ATOM     18  C   UNL     1       7.115   1.769  11.136  0.00  0.00    +0.000 A 
ATOM     19  C   UNL     1       5.737   1.578  11.069  0.00  0.00    +0.000 A 
ATOM     20  C   UNL     1       4.878   2.509  11.651  0.00  0.00    +0.000 A 
ATOM     21  C   UNL     1       5.396   3.639  12.288  0.00  0.00    +0.000 A 
ENDBRANCH  15  16
ENDBRANCH   3  15
TORSDOF 6
ENDMDL
MODEL 9
REMARK VINA RESULT:      -6.8      5.049      6.668
REMARK  Name = 
REMARK  6 active torsions:
REMARK  status: ('A' for Active; 'I' for Inactive)
REMARK    1  A    between atoms: C_2  and  C_3
REMARK    2  A    between atoms: C_3  and  O_4
REMARK    3  A    between atoms: O_4  and  C_5
REMARK    4  A    between atoms: C_5  and  C_7
REMARK    5  A    between atoms: N_13  and  C_14
REMARK    6  A    between atoms: C_14  and  C_15
REMARK                            x       y       z     vdW  Elec       q    Type
REMARK                         _______ _______ _______ _____ _____    ______ ____
ROOT
ATOM      1  O   UNL     1       5.906   6.034  18.142  0.00  0.00    +0.000 OA
ATOM      2  C   UNL     1       4.974   6.107  17.343  0.00  0.00    +0.000 C 
ATOM      3  N   UNL     1       4.857   5.297  16.235  0.00  0.00    +0.000 N 
ATOM      4  H   UNL     1       3.978   5.285  15.734  0.00  0.00    +0.000 HD
ENDROOT
BRANCH   2   5
ATOM      5  C   UNL     1       3.841   7.123  17.514  0.00  0.00    +0.000 C 
BRANCH   5   6
ATOM      6  O   UNL     1       2.605   6.479  17.824  0.00  0.00    +0.000 OA
BRANCH   6   7
ATOM      7  C   UNL     1       2.348   6.400  19.151  0.00  0.00    +0.000 C 
ATOM      8  O   UNL     1       2.388   7.330  19.944  0.00  0.00    +0.000 OA
BRANCH   7   9
ATOM      9  C   UNL     1       2.088   5.001  19.552  0.00  0.00    +0.000 A 
ATOM     10  C   UNL     1       1.841   3.998  18.618  0.00  0.00    +0.000 A 
ATOM     11  C   UNL     1       1.604   2.721  19.094  0.00  0.00    +0.000 A 
ATOM     12  N   UNL     1       1.601   2.397  20.406  0.00  0.00    +0.000 NA
ATOM     13  C   UNL     1       1.836   3.392  21.287  0.00  0.00    +0.000 A 
ATOM     14  C   UNL     1       2.079   4.700  20.915  0.00  0.00    +0.000 A 
ENDBRANCH   7   9
ENDBRANCH   6   7
ENDBRANCH   5   6
ENDBRANCH   2   5
BRANCH   3  15
ATOM     15  C   UNL     1       5.788   4.224  15.954  0.00  0.00    +0.000 C 
BRANCH  15  16
ATOM     16  C   UNL     1       6.254   4.281  14.521  0.00  0.00    +0.000 A 
ATOM     17  C   UNL     1       5.664   3.467  13.542  0.00  0.00    +0.000 A 
ATOM     18  C   UNL     1       6.140   3.479  12.229  0.00  0.00    +0.000 A 
ATOM     19  C   UNL     1       7.208   4.302  11.880  0.00  0.00    +0.000 A 
ATOM     20  C   UNL     1       7.794   5.124  12.841  0.00  0.00    +0.000 A 
ATOM     21  C   UNL     1       7.323   5.112  14.155  0.00  0.00    +0.000 A 
ENDBRANCH  15  16
ENDBRANCH   3  15
TORSDOF 6
ENDMDL
