MODEL 1
REMARK VINA RESULT:      -7.1      0.000      0.000
REMARK  Name = 
REMARK  11 active torsions:
REMARK  status: ('A' for Active; 'I' for Inactive)
REMARK    1  A    between atoms: C_2  and  C_3
REMARK    2  A    between atoms: C_2  and  C_4
REMARK    3  A    between atoms: C_4  and  O_5
REMARK    4  A    between atoms: O_5  and  C_6
REMARK    5  A    between atoms: C_10  and  C_11
REMARK    6  A    between atoms: C_11  and  N_12
REMARK    7  A    between atoms: N_12  and  C_13
REMARK    8  A    between atoms: C_13  and  C_14
REMARK    9  A    between atoms: C_14  and  C_15
REMARK   10  A    between atoms: C_14  and  O_16
REMARK   11  A    between atoms: O_16  and  C_17
REMARK                            x       y       z     vdW  Elec       q    Type
REMARK                         _______ _______ _______ _____ _____    ______ ____
ROOT
ATOM      1  C   UNL     1       5.224   4.270  18.864  0.00  0.00    +0.000 C 
ENDROOT
BRANCH   1   6
ATOM      2  C   UNL     1       5.689   4.379  15.067  0.00  0.00    +0.000 A 
ATOM      3  C   UNL     1       7.002   4.843  14.975  0.00  0.00    +0.000 A 
ATOM      4  C   UNL     1       7.721   5.169  16.125  0.00  0.00    +0.000 A 
ATOM      5  C   UNL     1       7.133   5.016  17.379  0.00  0.00    +0.000 A 
ATOM      6  C   UNL     1       5.817   4.541  17.495  0.00  0.00    +0.000 A 
ATOM      7  C   UNL     1       5.103   4.217  16.326  0.00  0.00    +0.000 A 
BRANCH   2   8
ATOM      8  O   UNL     1       5.108   4.043  13.874  0.00  0.00    +0.000 OA
BRANCH   8   9
ATOM      9  C   UNL     1       6.001   3.679  12.823  0.00  0.00    +0.000 C 
BRANCH   9  11
ATOM     10  C   UNL     1       4.042   3.290  11.308  0.00  0.00    +0.000 C 
ATOM     11  C   UNL     1       5.229   2.886  11.791  0.00  0.00    +0.000 C 
ATOM     12  C   UNL     1       5.851   1.590  11.352  0.00  0.00    +0.000 C 
ENDBRANCH   9  11
ENDBRANCH   8   9
ENDBRANCH   2   8
ENDBRANCH   1   6
BRANCH   1  13
ATOM     13  N   UNL     1       4.731   2.899  18.902  0.00  0.00    +0.000 NA
ATOM     14  H   UNL     1       5.514   2.295  19.161  0.00  0.00    +0.000 HD
BRANCH  13  15
ATOM     15  C   UNL     1       3.647   2.680  19.860  0.00  0.00    +0.000 C 
BRANCH  15  16
ATOM     16  C   UNL     1       2.331   2.261  19.145  0.00  0.00    +0.000 C 
ATOM     17  C   UNL     1       2.598   2.050  17.653  0.00  0.00    +0.000 C 
BRANCH  16  18
ATOM     18  O   UNL     1       1.334   3.296  19.230  0.00  0.00    +0.000 OA
BRANCH  18  19
ATOM     19  C   UNL     1       1.721   4.606  19.195  0.00  0.00    +0.000 A 
ATOM     20  C   UNL     1       2.105   5.334  18.071  0.00  0.00    +0.000 A 
ATOM     21  C   UNL     1       2.385   6.697  18.186  0.00  0.00    +0.000 A 
ATOM     22  C   UNL     1       2.293   7.286  19.433  0.00  0.00    +0.000 A 
ATOM     23  N   UNL     1       1.954   6.613  20.553  0.00  0.00    +0.000 NA
ATOM     24  C   UNL     1       1.676   5.293  20.403  0.00  0.00    +0.000 A 
ENDBRANCH  18  19
ENDBRANCH  16  18
ENDBRANCH  15  16
ENDBRANCH  13  15
ENDBRANCH   1  13
TORSDOF 9
ENDMDL
MODEL 2
REMARK VINA RESULT:      -6.9      1.172      1.830
REMARK  Name = 
REMARK  11 active torsions:
REMARK  status: ('A' for Active; 'I' for Inactive)
REMARK    1  A    between atoms: C_2  and  C_3
REMARK    2  A    between atoms: C_2  and  C_4
REMARK    3  A    between atoms: C_4  and  O_5
REMARK    4  A    between atoms: O_5  and  C_6
REMARK    5  A    between atoms: C_10  and  C_11
REMARK    6  A    between atoms: C_11  and  N_12
REMARK    7  A    between atoms: N_12  and  C_13
REMARK    8  A    between atoms: C_13  and  C_14
REMARK    9  A    between atoms: C_14  and  C_15
REMARK   10  A    between atoms: C_14  and  O_16
REMARK   11  A    between atoms: O_16  and  C_17
REMARK                            x       y       z     vdW  Elec       q    Type
REMARK                         _______ _______ _______ _____ _____    ______ ____
ROOT
ATOM      1  C   UNL     1       4.645   3.435  19.353  0.00  0.00    +0.000 C 
ENDROOT
BRANCH   1   6
ATOM      2  C   UNL     1       6.173   5.376  16.431  0.00  0.00    +0.000 A 
ATOM      3  C   UNL     1       7.124   6.150  17.098  0.00  0.00    +0.000 A 
ATOM      4  C   UNL     1       7.242   6.089  18.486  0.00  0.00    +0.000 A 
ATOM      5  C   UNL     1       6.417   5.236  19.217  0.00  0.00    +0.000 A 
ATOM      6  C   UNL     1       5.460   4.441  18.566  0.00  0.00    +0.000 A 
ATOM      7  C   UNL     1       5.352   4.514  17.164  0.00  0.00    +0.000 A 
BRANCH   2   8
ATOM      8  O   UNL     1       6.191   5.483  15.067  0.00  0.00    +0.000 OA
BRANCH   8   9
ATOM      9  C   UNL     1       5.655   4.376  14.345  0.00  0.00    +0.000 C 
BRANCH   9  11
ATOM     10  C   UNL     1       6.200   3.228  12.183  0.00  0.00    +0.000 C 
ATOM     11  C   UNL     1       6.495   4.162  13.104  0.00  0.00    +0.000 C 
ATOM     12  C   UNL     1       7.710   5.037  12.969  0.00  0.00    +0.000 C 
ENDBRANCH   9  11
ENDBRANCH   8   9
ENDBRANCH   2   8
ENDBRANCH   1   6
BRANCH   1  13
ATOM     13  N   UNL     1       4.466   2.235  18.545  0.00  0.00    +0.000 NA
ATOM     14  H   UNL     1       4.762   1.434  19.107  0.00  0.00    +0.000 HD
BRANCH  13  15
ATOM     15  C   UNL     1       3.087   2.006  18.111  0.00  0.00    +0.000 C 
BRANCH  15  16
ATOM     16  C   UNL     1       2.098   2.970  18.824  0.00  0.00    +0.000 C 
ATOM     17  C   UNL     1       0.738   2.288  18.985  0.00  0.00    +0.000 C 
BRANCH  16  18
ATOM     18  O   UNL     1       1.860   4.154  18.040  0.00  0.00    +0.000 OA
BRANCH  18  19
ATOM     19  C   UNL     1       2.002   5.383  18.619  0.00  0.00    +0.000 A 
ATOM     20  C   UNL     1       2.366   6.568  17.984  0.00  0.00    +0.000 A 
ATOM     21  C   UNL     1       2.376   7.767  18.699  0.00  0.00    +0.000 A 
ATOM     22  C   UNL     1       2.042   7.737  20.041  0.00  0.00    +0.000 A 
ATOM     23  N   UNL     1       1.712   6.608  20.702  0.00  0.00    +0.000 NA
ATOM     24  C   UNL     1       1.700   5.463  19.974  0.00  0.00    +0.000 A 
ENDBRANCH  18  19
ENDBRANCH  16  18
ENDBRANCH  15  16
ENDBRANCH  13  15
ENDBRANCH   1  13
TORSDOF 9
ENDMDL
MODEL 3
REMARK VINA RESULT:      -6.9      0.900      1.206
REMARK  Name = 
REMARK  11 active torsions:
REMARK  status: ('A' for Active; 'I' for Inactive)
REMARK    1  A    between atoms: C_2  and  C_3
REMARK    2  A    between atoms: C_2  and  C_4
REMARK    3  A    between atoms: C_4  and  O_5
REMARK    4  A    between atoms: O_5  and  C_6
REMARK    5  A    between atoms: C_10  and  C_11
REMARK    6  A    between atoms: C_11  and  N_12
REMARK    7  A    between atoms: N_12  and  C_13
REMARK    8  A    between atoms: C_13  and  C_14
REMARK    9  A    between atoms: C_14  and  C_15
REMARK   10  A    between atoms: C_14  and  O_16
REMARK   11  A    between atoms: O_16  and  C_17
REMARK                            x       y       z     vdW  Elec       q    Type
REMARK                         _______ _______ _______ _____ _____    ______ ____
ROOT
ATOM      1  C   UNL     1       5.361   4.134  19.364  0.00  0.00    +0.000 C 
ENDROOT
BRANCH   1   6
ATOM      2  C   UNL     1       5.712   4.710  15.598  0.00  0.00    +0.000 A 
ATOM      3  C   UNL     1       6.633   5.759  15.576  0.00  0.00    +0.000 A 
ATOM      4  C   UNL     1       7.103   6.315  16.766  0.00  0.00    +0.000 A 
ATOM      5  C   UNL     1       6.665   5.810  17.989  0.00  0.00    +0.000 A 
ATOM      6  C   UNL     1       5.746   4.750  18.034  0.00  0.00    +0.000 A 
ATOM      7  C   UNL     1       5.279   4.200  16.825  0.00  0.00    +0.000 A 
BRANCH   2   8
ATOM      8  O   UNL     1       5.367   4.215  14.369  0.00  0.00    +0.000 OA
BRANCH   8   9
ATOM      9  C   UNL     1       6.449   3.886  13.501  0.00  0.00    +0.000 C 
BRANCH   9  11
ATOM     10  C   UNL     1       4.607   3.392  11.872  0.00  0.00    +0.000 C 
ATOM     11  C   UNL     1       5.885   3.231  12.258  0.00  0.00    +0.000 C 
ATOM     12  C   UNL     1       6.830   2.354  11.486  0.00  0.00    +0.000 C 
ENDBRANCH   9  11
ENDBRANCH   8   9
ENDBRANCH   2   8
ENDBRANCH   1   6
BRANCH   1  13
ATOM     13  N   UNL     1       4.743   2.836  19.123  0.00  0.00    +0.000 NA
ATOM     14  H   UNL     1       5.457   2.120  19.268  0.00  0.00    +0.000 HD
BRANCH  13  15
ATOM     15  C   UNL     1       3.611   2.539  20.002  0.00  0.00    +0.000 C 
BRANCH  15  16
ATOM     16  C   UNL     1       2.359   2.099  19.191  0.00  0.00    +0.000 C 
ATOM     17  C   UNL     1       2.724   1.966  17.711  0.00  0.00    +0.000 C 
BRANCH  16  18
ATOM     18  O   UNL     1       1.315   3.088  19.258  0.00  0.00    +0.000 OA
BRANCH  18  19
ATOM     19  C   UNL     1       1.647   4.411  19.324  0.00  0.00    +0.000 A 
ATOM     20  C   UNL     1       1.751   5.190  20.475  0.00  0.00    +0.000 A 
ATOM     21  C   UNL     1       2.193   6.511  20.385  0.00  0.00    +0.000 A 
ATOM     22  C   UNL     1       2.495   7.021  19.136  0.00  0.00    +0.000 A 
ATOM     23  N   UNL     1       2.380   6.313  17.993  0.00  0.00    +0.000 NA
ATOM     24  C   UNL     1       1.960   5.028  18.119  0.00  0.00    +0.000 A 
ENDBRANCH  18  19
ENDBRANCH  16  18
ENDBRANCH  15  16
ENDBRANCH  13  15
ENDBRANCH   1  13
TORSDOF 9
ENDMDL
MODEL 4
REMARK VINA RESULT:      -6.7      3.430      5.833
REMARK  Name = 
REMARK  11 active torsions:
REMARK  status: ('A' for Active; 'I' for Inactive)
REMARK    1  A    between atoms: C_2  and  C_3
REMARK    2  A    between atoms: C_2  and  C_4
REMARK    3  A    between atoms: C_4  and  O_5
REMARK    4  A    between atoms: O_5  and  C_6
REMARK    5  A    between atoms: C_10  and  C_11
REMARK    6  A    between atoms: C_11  and  N_12
REMARK    7  A    between atoms: N_12  and  C_13
REMARK    8  A    between atoms: C_13  and  C_14
REMARK    9  A    between atoms: C_14  and  C_15
REMARK   10  A    between atoms: C_14  and  O_16
REMARK   11  A    between atoms: O_16  and  C_17
REMARK                            x       y       z     vdW  Elec       q    Type
REMARK                         _______ _______ _______ _____ _____    ______ ____
ROOT
ATOM      1  C   UNL     1       1.666   5.874  20.688  0.00  0.00    +0.000 C 
ENDROOT
BRANCH   1   6
ATOM      2  C   UNL     1       3.037   3.511  18.009  0.00  0.00    +0.000 A 
ATOM      3  C   UNL     1       2.079   2.496  18.038  0.00  0.00    +0.000 A 
ATOM      4  C   UNL     1       1.023   2.542  18.948  0.00  0.00    +0.000 A 
ATOM      5  C   UNL     1       0.910   3.618  19.827  0.00  0.00    +0.000 A 
ATOM      6  C   UNL     1       1.857   4.654  19.808  0.00  0.00    +0.000 A 
ATOM      7  C   UNL     1       2.918   4.593  18.885  0.00  0.00    +0.000 A 
BRANCH   2   8
ATOM      8  O   UNL     1       3.992   3.379  17.037  0.00  0.00    +0.000 OA
BRANCH   8   9
ATOM      9  C   UNL     1       5.132   4.227  17.162  0.00  0.00    +0.000 C 
BRANCH   9  11
ATOM     10  C   UNL     1       5.605   4.413  14.707  0.00  0.00    +0.000 C 
ATOM     11  C   UNL     1       5.295   5.003  15.873  0.00  0.00    +0.000 C 
ATOM     12  C   UNL     1       5.122   6.494  15.973  0.00  0.00    +0.000 C 
ENDBRANCH   9  11
ENDBRANCH   8   9
ENDBRANCH   2   8
ENDBRANCH   1   6
BRANCH   1  13
ATOM     13  N   UNL     1       2.365   7.004  20.087  0.00  0.00    +0.000 NA
ATOM     14  H   UNL     1       2.462   6.813  19.088  0.00  0.00    +0.000 HD
BRANCH  13  15
ATOM     15  C   UNL     1       1.676   8.285  20.245  0.00  0.00    +0.000 C 
BRANCH  15  16
ATOM     16  C   UNL     1       1.362   8.937  18.868  0.00  0.00    +0.000 C 
ATOM     17  C   UNL     1       2.363   8.439  17.822  0.00  0.00    +0.000 C 
BRANCH  16  18
ATOM     18  O   UNL     1       1.513  10.367  18.916  0.00  0.00    +0.000 OA
BRANCH  18  19
ATOM     19  C   UNL     1       0.653  11.108  19.677  0.00  0.00    +0.000 A 
ATOM     20  C   UNL     1      -0.738  11.113  19.598  0.00  0.00    +0.000 A 
ATOM     21  C   UNL     1      -1.485  11.858  20.512  0.00  0.00    +0.000 A 
ATOM     22  C   UNL     1      -0.810  12.598  21.466  0.00  0.00    +0.000 A 
ATOM     23  N   UNL     1       0.536  12.646  21.560  0.00  0.00    +0.000 NA
ATOM     24  C   UNL     1       1.229  11.899  20.664  0.00  0.00    +0.000 A 
ENDBRANCH  18  19
ENDBRANCH  16  18
ENDBRANCH  15  16
ENDBRANCH  13  15
ENDBRANCH   1  13
TORSDOF 9
ENDMDL
MODEL 5
REMARK VINA RESULT:      -6.7      1.618      2.125
REMARK  Name = 
REMARK  11 active torsions:
REMARK  status: ('A' for Active; 'I' for Inactive)
REMARK    1  A    between atoms: C_2  and  C_3
REMARK    2  A    between atoms: C_2  and  C_4
REMARK    3  A    between atoms: C_4  and  O_5
REMARK    4  A    between atoms: O_5  and  C_6
REMARK    5  A    between atoms: C_10  and  C_11
REMARK    6  A    between atoms: C_11  and  N_12
REMARK    7  A    between atoms: N_12  and  C_13
REMARK    8  A    between atoms: C_13  and  C_14
REMARK    9  A    between atoms: C_14  and  C_15
REMARK   10  A    between atoms: C_14  and  O_16
REMARK   11  A    between atoms: O_16  and  C_17
REMARK                            x       y       z     vdW  Elec       q    Type
REMARK                         _______ _______ _______ _____ _____    ______ ____
ROOT
ATOM      1  C   UNL     1       4.376   3.456  18.155  0.00  0.00    +0.000 C 
ENDROOT
BRANCH   1   6
ATOM      2  C   UNL     1       5.961   4.084  14.729  0.00  0.00    +0.000 A 
ATOM      3  C   UNL     1       5.846   5.472  14.636  0.00  0.00    +0.000 A 
ATOM      4  C   UNL     1       5.218   6.201  15.645  0.00  0.00    +0.000 A 
ATOM      5  C   UNL     1       4.714   5.544  16.766  0.00  0.00    +0.000 A 
ATOM      6  C   UNL     1       4.826   4.150  16.884  0.00  0.00    +0.000 A 
ATOM      7  C   UNL     1       5.461   3.427  15.857  0.00  0.00    +0.000 A 
BRANCH   2   8
ATOM      8  O   UNL     1       6.643   3.488  13.703  0.00  0.00    +0.000 OA
BRANCH   8   9
ATOM      9  C   UNL     1       6.343   3.963  12.392  0.00  0.00    +0.000 C 
BRANCH   9  11
ATOM     10  C   UNL     1       4.132   3.284  11.424  0.00  0.00    +0.000 C 
ATOM     11  C   UNL     1       5.406   2.979  11.728  0.00  0.00    +0.000 C 
ATOM     12  C   UNL     1       5.969   1.613  11.451  0.00  0.00    +0.000 C 
ENDBRANCH   9  11
ENDBRANCH   8   9
ENDBRANCH   2   8
ENDBRANCH   1   6
BRANCH   1  13
ATOM     13  N   UNL     1       4.489   4.390  19.268  0.00  0.00    +0.000 NA
ATOM     14  H   UNL     1       4.338   5.332  18.900  0.00  0.00    +0.000 HD
BRANCH  13  15
ATOM     15  C   UNL     1       3.523   4.158  20.344  0.00  0.00    +0.000 C 
BRANCH  15  16
ATOM     16  C   UNL     1       2.333   5.155  20.265  0.00  0.00    +0.000 C 
ATOM     17  C   UNL     1       1.012   4.383  20.272  0.00  0.00    +0.000 C 
BRANCH  16  18
ATOM     18  O   UNL     1       2.353   5.902  19.035  0.00  0.00    +0.000 OA
BRANCH  18  19
ATOM     19  C   UNL     1       2.071   7.239  19.056  0.00  0.00    +0.000 A 
ATOM     20  C   UNL     1       2.132   8.122  17.979  0.00  0.00    +0.000 A 
ATOM     21  C   UNL     1       1.722   9.446  18.141  0.00  0.00    +0.000 A 
ATOM     22  C   UNL     1       1.283   9.853  19.387  0.00  0.00    +0.000 A 
ATOM     23  N   UNL     1       1.235   9.040  20.464  0.00  0.00    +0.000 NA
ATOM     24  C   UNL     1       1.629   7.756  20.267  0.00  0.00    +0.000 A 
ENDBRANCH  18  19
ENDBRANCH  16  18
ENDBRANCH  15  16
ENDBRANCH  13  15
ENDBRANCH   1  13
TORSDOF 9
ENDMDL
MODEL 6
REMARK VINA RESULT:      -6.6      2.972      6.901
REMARK  Name = 
REMARK  11 active torsions:
REMARK  status: ('A' for Active; 'I' for Inactive)
REMARK    1  A    between atoms: C_2  and  C_3
REMARK    2  A    between atoms: C_2  and  C_4
REMARK    3  A    between atoms: C_4  and  O_5
REMARK    4  A    between atoms: O_5  and  C_6
REMARK    5  A    between atoms: C_10  and  C_11
REMARK    6  A    between atoms: C_11  and  N_12
REMARK    7  A    between atoms: N_12  and  C_13
REMARK    8  A    between atoms: C_13  and  C_14
REMARK    9  A    between atoms: C_14  and  C_15
REMARK   10  A    between atoms: C_14  and  O_16
REMARK   11  A    between atoms: O_16  and  C_17
REMARK                            x       y       z     vdW  Elec       q    Type
REMARK                         _______ _______ _______ _____ _____    ______ ____
ROOT
ATOM      1  C   UNL     1       2.503   5.851  20.474  0.00  0.00    +0.000 C 
ENDROOT
BRANCH   1   6
ATOM      2  C   UNL     1       1.384   9.291  19.226  0.00  0.00    +0.000 A 
ATOM      3  C   UNL     1       1.879   9.271  17.921  0.00  0.00    +0.000 A 
ATOM      4  C   UNL     1       2.614   8.180  17.457  0.00  0.00    +0.000 A 
ATOM      5  C   UNL     1       2.843   7.090  18.295  0.00  0.00    +0.000 A 
ATOM      6  C   UNL     1       2.346   7.085  19.607  0.00  0.00    +0.000 A 
ATOM      7  C   UNL     1       1.608   8.193  20.062  0.00  0.00    +0.000 A 
BRANCH   2   8
ATOM      8  O   UNL     1       0.635  10.391  19.546  0.00  0.00    +0.000 OA
BRANCH   8   9
ATOM      9  C   UNL     1      -0.768  10.175  19.681  0.00  0.00    +0.000 C 
BRANCH   9  11
ATOM     10  C   UNL     1      -1.803   9.921  17.411  0.00  0.00    +0.000 C 
ATOM     11  C   UNL     1      -1.456  10.709  18.443  0.00  0.00    +0.000 C 
ATOM     12  C   UNL     1      -1.705  12.192  18.413  0.00  0.00    +0.000 C 
ENDBRANCH   9  11
ENDBRANCH   8   9
ENDBRANCH   2   8
ENDBRANCH   1   6
BRANCH   1  13
ATOM     13  N   UNL     1       1.302   5.034  20.355  0.00  0.00    +0.000 NA
ATOM     14  H   UNL     1       0.506   5.666  20.241  0.00  0.00    +0.000 HD
BRANCH  13  15
ATOM     15  C   UNL     1       1.317   4.108  19.222  0.00  0.00    +0.000 C 
BRANCH  15  16
ATOM     16  C   UNL     1       1.424   2.631  19.694  0.00  0.00    +0.000 C 
ATOM     17  C   UNL     1       1.448   2.578  21.223  0.00  0.00    +0.000 C 
BRANCH  16  18
ATOM     18  O   UNL     1       2.654   2.026  19.254  0.00  0.00    +0.000 OA
BRANCH  18  19
ATOM     19  C   UNL     1       3.599   2.796  18.639  0.00  0.00    +0.000 A 
ATOM     20  C   UNL     1       3.607   3.203  17.306  0.00  0.00    +0.000 A 
ATOM     21  C   UNL     1       4.600   4.070  16.848  0.00  0.00    +0.000 A 
ATOM     22  C   UNL     1       5.572   4.487  17.739  0.00  0.00    +0.000 A 
ATOM     23  N   UNL     1       5.620   4.096  19.029  0.00  0.00    +0.000 NA
ATOM     24  C   UNL     1       4.632   3.262  19.443  0.00  0.00    +0.000 A 
ENDBRANCH  18  19
ENDBRANCH  16  18
ENDBRANCH  15  16
ENDBRANCH  13  15
ENDBRANCH   1  13
TORSDOF 9
ENDMDL
MODEL 7
REMARK VINA RESULT:      -6.5      5.779      8.397
REMARK  Name = 
REMARK  11 active torsions:
REMARK  status: ('A' for Active; 'I' for Inactive)
REMARK    1  A    between atoms: C_2  and  C_3
REMARK    2  A    between atoms: C_2  and  C_4
REMARK    3  A    between atoms: C_4  and  O_5
REMARK    4  A    between atoms: O_5  and  C_6
REMARK    5  A    between atoms: C_10  and  C_11
REMARK    6  A    between atoms: C_11  and  N_12
REMARK    7  A    between atoms: N_12  and  C_13
REMARK    8  A    between atoms: C_13  and  C_14
REMARK    9  A    between atoms: C_14  and  C_15
REMARK   10  A    between atoms: C_14  and  O_16
REMARK   11  A    between atoms: O_16  and  C_17
REMARK                            x       y       z     vdW  Elec       q    Type
REMARK                         _______ _______ _______ _____ _____    ______ ____
ROOT
ATOM      1  C   UNL     1       7.701   6.882  18.112  0.00  0.00    +0.000 C 
ENDROOT
BRANCH   1   6
ATOM      2  C   UNL     1       4.609   4.737  17.416  0.00  0.00    +0.000 A 
ATOM      3  C   UNL     1       4.933   4.206  16.167  0.00  0.00    +0.000 A 
ATOM      4  C   UNL     1       6.116   4.572  15.525  0.00  0.00    +0.000 A 
ATOM      5  C   UNL     1       6.993   5.463  16.140  0.00  0.00    +0.000 A 
ATOM      6  C   UNL     1       6.692   6.002  17.401  0.00  0.00    +0.000 A 
ATOM      7  C   UNL     1       5.494   5.625  18.036  0.00  0.00    +0.000 A 
BRANCH   2   8
ATOM      8  O   UNL     1       3.450   4.261  17.966  0.00  0.00    +0.000 OA
BRANCH   8   9
ATOM      9  C   UNL     1       3.497   3.956  19.359  0.00  0.00    +0.000 C 
BRANCH   9  11
ATOM     10  C   UNL     1       1.736   3.429  21.063  0.00  0.00    +0.000 C 
ATOM     11  C   UNL     1       2.140   3.436  19.782  0.00  0.00    +0.000 C 
ATOM     12  C   UNL     1       1.269   2.891  18.684  0.00  0.00    +0.000 C 
ENDBRANCH   9  11
ENDBRANCH   8   9
ENDBRANCH   2   8
ENDBRANCH   1   6
BRANCH   1  13
ATOM     13  N   UNL     1       8.000   8.034  17.271  0.00  0.00    +0.000 NA
ATOM     14  H   UNL     1       7.469   7.931  16.403  0.00  0.00    +0.000 HD
BRANCH  13  15
ATOM     15  C   UNL     1       7.650   9.321  17.872  0.00  0.00    +0.000 C 
BRANCH  15  16
ATOM     16  C   UNL     1       8.912  10.193  18.128  0.00  0.00    +0.000 C 
ATOM     17  C   UNL     1       9.259  10.174  19.618  0.00  0.00    +0.000 C 
BRANCH  16  18
ATOM     18  O   UNL     1       8.677  11.572  17.789  0.00  0.00    +0.000 OA
BRANCH  18  19
ATOM     19  C   UNL     1       9.731  12.438  17.728  0.00  0.00    +0.000 A 
ATOM     20  C   UNL     1      11.054  12.122  17.423  0.00  0.00    +0.000 A 
ATOM     21  C   UNL     1      12.003  13.139  17.308  0.00  0.00    +0.000 A 
ATOM     22  C   UNL     1      11.601  14.444  17.526  0.00  0.00    +0.000 A 
ATOM     23  N   UNL     1      10.339  14.791  17.851  0.00  0.00    +0.000 NA
ATOM     24  C   UNL     1       9.439  13.779  17.942  0.00  0.00    +0.000 A 
ENDBRANCH  18  19
ENDBRANCH  16  18
ENDBRANCH  15  16
ENDBRANCH  13  15
ENDBRANCH   1  13
TORSDOF 9
ENDMDL
MODEL 8
REMARK VINA RESULT:      -6.5      3.657      8.466
REMARK  Name = 
REMARK  11 active torsions:
REMARK  status: ('A' for Active; 'I' for Inactive)
REMARK    1  A    between atoms: C_2  and  C_3
REMARK    2  A    between atoms: C_2  and  C_4
REMARK    3  A    between atoms: C_4  and  O_5
REMARK    4  A    between atoms: O_5  and  C_6
REMARK    5  A    between atoms: C_10  and  C_11
REMARK    6  A    between atoms: C_11  and  N_12
REMARK    7  A    between atoms: N_12  and  C_13
REMARK    8  A    between atoms: C_13  and  C_14
REMARK    9  A    between atoms: C_14  and  C_15
REMARK   10  A    between atoms: C_14  and  O_16
REMARK   11  A    between atoms: O_16  and  C_17
REMARK                            x       y       z     vdW  Elec       q    Type
REMARK                         _______ _______ _______ _____ _____    ______ ____
ROOT
ATOM      1  C   UNL     1       1.869   6.604  20.591  0.00  0.00    +0.000 C 
ENDROOT
BRANCH   1   6
ATOM      2  C   UNL     1       0.674  10.135  19.727  0.00  0.00    +0.000 A 
ATOM      3  C   UNL     1       1.210  10.289  18.448  0.00  0.00    +0.000 A 
ATOM      4  C   UNL     1       1.995   9.285  17.882  0.00  0.00    +0.000 A 
ATOM      5  C   UNL     1       2.235   8.108  18.590  0.00  0.00    +0.000 A 
ATOM      6  C   UNL     1       1.698   7.929  19.874  0.00  0.00    +0.000 A 
ATOM      7  C   UNL     1       0.909   8.951  20.433  0.00  0.00    +0.000 A 
BRANCH   2   8
ATOM      8  O   UNL     1      -0.122  11.165  20.151  0.00  0.00    +0.000 OA
BRANCH   8   9
ATOM      9  C   UNL     1       0.233  11.757  21.399  0.00  0.00    +0.000 C 
BRANCH   9  11
ATOM     10  C   UNL     1      -0.964  10.448  23.171  0.00  0.00    +0.000 C 
ATOM     11  C   UNL     1      -0.900  11.530  22.376  0.00  0.00    +0.000 C 
ATOM     12  C   UNL     1      -1.981  12.575  22.390  0.00  0.00    +0.000 C 
ENDBRANCH   9  11
ENDBRANCH   8   9
ENDBRANCH   2   8
ENDBRANCH   1   6
BRANCH   1  13
ATOM     13  N   UNL     1       3.020   5.908  20.029  0.00  0.00    +0.000 NA
ATOM     14  H   UNL     1       3.684   5.741  20.789  0.00  0.00    +0.000 HD
BRANCH  13  15
ATOM     15  C   UNL     1       2.699   4.621  19.411  0.00  0.00    +0.000 C 
BRANCH  15  16
ATOM     16  C   UNL     1       3.829   4.150  18.453  0.00  0.00    +0.000 C 
ATOM     17  C   UNL     1       4.958   3.509  19.263  0.00  0.00    +0.000 C 
BRANCH  16  18
ATOM     18  O   UNL     1       4.420   5.259  17.752  0.00  0.00    +0.000 OA
BRANCH  18  19
ATOM     19  C   UNL     1       5.271   5.019  16.710  0.00  0.00    +0.000 A 
ATOM     20  C   UNL     1       5.059   4.149  15.643  0.00  0.00    +0.000 A 
ATOM     21  C   UNL     1       5.987   4.084  14.603  0.00  0.00    +0.000 A 
ATOM     22  C   UNL     1       7.117   4.878  14.676  0.00  0.00    +0.000 A 
ATOM     23  N   UNL     1       7.376   5.713  15.705  0.00  0.00    +0.000 NA
ATOM     24  C   UNL     1       6.446   5.761  16.692  0.00  0.00    +0.000 A 
ENDBRANCH  18  19
ENDBRANCH  16  18
ENDBRANCH  15  16
ENDBRANCH  13  15
ENDBRANCH   1  13
TORSDOF 9
ENDMDL
MODEL 9
REMARK VINA RESULT:      -6.5      1.526      3.310
REMARK  Name = 
REMARK  11 active torsions:
REMARK  status: ('A' for Active; 'I' for Inactive)
REMARK    1  A    between atoms: C_2  and  C_3
REMARK    2  A    between atoms: C_2  and  C_4
REMARK    3  A    between atoms: C_4  and  O_5
REMARK    4  A    between atoms: O_5  and  C_6
REMARK    5  A    between atoms: C_10  and  C_11
REMARK    6  A    between atoms: C_11  and  N_12
REMARK    7  A    between atoms: N_12  and  C_13
REMARK    8  A    between atoms: C_13  and  C_14
REMARK    9  A    between atoms: C_14  and  C_15
REMARK   10  A    between atoms: C_14  and  O_16
REMARK   11  A    between atoms: O_16  and  C_17
REMARK                            x       y       z     vdW  Elec       q    Type
REMARK                         _______ _______ _______ _____ _____    ______ ____
ROOT
ATOM      1  C   UNL     1       3.913   7.299  16.843  0.00  0.00    +0.000 C 
ENDROOT
BRANCH   1   6
ATOM      2  C   UNL     1       6.459   4.778  15.498  0.00  0.00    +0.000 A 
ATOM      3  C   UNL     1       7.283   4.616  16.613  0.00  0.00    +0.000 A 
ATOM      4  C   UNL     1       7.054   5.349  17.777  0.00  0.00    +0.000 A 
ATOM      5  C   UNL     1       5.985   6.241  17.838  0.00  0.00    +0.000 A 
ATOM      6  C   UNL     1       5.138   6.413  16.731  0.00  0.00    +0.000 A 
ATOM      7  C   UNL     1       5.381   5.667  15.563  0.00  0.00    +0.000 A 
BRANCH   2   8
ATOM      8  O   UNL     1       6.752   3.965  14.437  0.00  0.00    +0.000 OA
BRANCH   8   9
ATOM      9  C   UNL     1       5.662   3.644  13.574  0.00  0.00    +0.000 C 
BRANCH   9  11
ATOM     10  C   UNL     1       7.192   4.087  11.638  0.00  0.00    +0.000 C 
ATOM     11  C   UNL     1       6.212   3.355  12.194  0.00  0.00    +0.000 C 
ATOM     12  C   UNL     1       5.574   2.212  11.454  0.00  0.00    +0.000 C 
ENDBRANCH   9  11
ENDBRANCH   8   9
ENDBRANCH   2   8
ENDBRANCH   1   6
BRANCH   1  13
ATOM     13  N   UNL     1       3.752   7.710  18.232  0.00  0.00    +0.000 NA
ATOM     14  H   UNL     1       4.137   8.653  18.323  0.00  0.00    +0.000 HD
BRANCH  13  15
ATOM     15  C   UNL     1       2.363   7.738  18.691  0.00  0.00    +0.000 C 
BRANCH  15  16
ATOM     16  C   UNL     1       1.986   6.432  19.446  0.00  0.00    +0.000 C 
ATOM     17  C   UNL     1       1.484   6.774  20.851  0.00  0.00    +0.000 C 
BRANCH  16  18
ATOM     18  O   UNL     1       3.133   5.580  19.628  0.00  0.00    +0.000 OA
BRANCH  18  19
ATOM     19  C   UNL     1       3.117   4.314  19.117  0.00  0.00    +0.000 A 
ATOM     20  C   UNL     1       2.485   3.893  17.948  0.00  0.00    +0.000 A 
ATOM     21  C   UNL     1       2.640   2.578  17.507  0.00  0.00    +0.000 A 
ATOM     22  C   UNL     1       3.407   1.714  18.267  0.00  0.00    +0.000 A 
ATOM     23  N   UNL     1       4.011   2.071  19.420  0.00  0.00    +0.000 NA
ATOM     24  C   UNL     1       3.851   3.360  19.811  0.00  0.00    +0.000 A 
ENDBRANCH  18  19
ENDBRANCH  16  18
ENDBRANCH  15  16
ENDBRANCH  13  15
ENDBRANCH   1  13
TORSDOF 9
ENDMDL
