MODEL 1
REMARK VINA RESULT:      -8.3      0.000      0.000
REMARK  Name = 
REMARK  8 active torsions:
REMARK  status: ('A' for Active; 'I' for Inactive)
REMARK    1  A    between atoms: C_1  and  C_2
REMARK    2  A    between atoms: C_2  and  O_3
REMARK    3  A    between atoms: O_3  and  C_4
REMARK    4  A    between atoms: C_4  and  C_5
REMARK    5  A    between atoms: C_6  and  C_7
REMARK    6  A    between atoms: C_11  and  C_12
REMARK    7  A    between atoms: C_14  and  O_15
REMARK    8  A    between atoms: O_15  and  C_16
REMARK                            x       y       z     vdW  Elec       q    Type
REMARK                         _______ _______ _______ _____ _____    ______ ____
ROOT
ATOM      1  C   UNL     1       4.358   5.663  17.047  0.00  0.00    +0.000 A 
ATOM      2  C   UNL     1       3.284   5.694  18.001  0.00  0.00    +0.000 A 
ATOM      3  C   UNL     1       2.966   4.381  18.340  0.00  0.00    +0.000 A 
ATOM      4  C   UNL     1       1.956   3.739  19.131  0.00  0.00    +0.000 A 
ATOM      5  N   UNL     1       0.976   4.364  19.835  0.00  0.00    +0.000 N 
ATOM      6  N   UNL     1       1.925   2.439  19.170  0.00  0.00    +0.000 NA
ATOM      7  C   UNL     1       2.854   1.733  18.469  0.00  0.00    +0.000 A 
ATOM      8  N   UNL     1       3.794   2.208  17.720  0.00  0.00    +0.000 NA
ATOM      9  N   UNL     1       3.826   3.558  17.660  0.00  0.00    +0.000 N 
ATOM     10  C   UNL     1       4.663   4.328  16.899  0.00  0.00    +0.000 A 
ATOM     11 CL   UNL     1       5.861   3.572  15.940  0.00  0.00    +0.000 Cl
ATOM     12  H   UNL     1       0.754   5.328  19.619  0.00  0.00    +0.000 HD
ATOM     13  H   UNL     1       0.210   3.784  20.151  0.00  0.00    +0.000 HD
ENDROOT
BRANCH   2  14
ATOM     14  C   UNL     1       2.604   6.918  18.529  0.00  0.00    +0.000 A 
ATOM     15  C   UNL     1       2.132   7.962  17.767  0.00  0.00    +0.000 A 
ATOM     16  C   UNL     1       1.401   8.930  18.541  0.00  0.00    +0.000 A 
ATOM     17  C   UNL     1       0.723  10.102  18.142  0.00  0.00    +0.000 A 
ATOM     18  C   UNL     1       0.016  10.862  19.085  0.00  0.00    +0.000 A 
ATOM     19  C   UNL     1      -0.656  12.141  18.681  0.00  0.00    +0.000 C 
ATOM     20  C   UNL     1      -0.059  10.430  20.414  0.00  0.00    +0.000 A 
ATOM     21  C   UNL     1       0.600   9.274  20.843  0.00  0.00    +0.000 A 
ATOM     22  C   UNL     1       1.361   8.572  19.886  0.00  0.00    +0.000 A 
ATOM     23  S   UNL     1       2.368   7.215  20.182  0.00  0.00    +0.000 S 
BRANCH  21  24
ATOM     24  O   UNL     1       0.571   8.754  22.107  0.00  0.00    +0.000 OA
ATOM     25  C   UNL     1      -0.047   9.516  23.129  0.00  0.00    +0.000 C 
ENDBRANCH  21  24
ENDBRANCH   2  14
BRANCH   1  26
ATOM     26  C   UNL     1       5.048   6.817  16.391  0.00  0.00    +0.000 C 
BRANCH  26  27
ATOM     27  O   UNL     1       6.465   6.636  16.392  0.00  0.00    +0.000 OA
BRANCH  27  29
ATOM     28  C   UNL     1       7.695   6.394  18.429  0.00  0.00    +0.000 C 
ATOM     29  C   UNL     1       7.097   7.373  17.435  0.00  0.00    +0.000 C 
ENDBRANCH  27  29
ENDBRANCH  26  27
ENDBRANCH   1  26
TORSDOF 5
ENDMDL
MODEL 2
REMARK VINA RESULT:      -8.1      1.278      2.130
REMARK  Name = 
REMARK  8 active torsions:
REMARK  status: ('A' for Active; 'I' for Inactive)
REMARK    1  A    between atoms: C_1  and  C_2
REMARK    2  A    between atoms: C_2  and  O_3
REMARK    3  A    between atoms: O_3  and  C_4
REMARK    4  A    between atoms: C_4  and  C_5
REMARK    5  A    between atoms: C_6  and  C_7
REMARK    6  A    between atoms: C_11  and  C_12
REMARK    7  A    between atoms: C_14  and  O_15
REMARK    8  A    between atoms: O_15  and  C_16
REMARK                            x       y       z     vdW  Elec       q    Type
REMARK                         _______ _______ _______ _____ _____    ______ ____
ROOT
ATOM      1  C   UNL     1       4.522   5.860  17.490  0.00  0.00    +0.000 A 
ATOM      2  C   UNL     1       3.354   5.693  18.311  0.00  0.00    +0.000 A 
ATOM      3  C   UNL     1       3.104   4.329  18.437  0.00  0.00    +0.000 A 
ATOM      4  C   UNL     1       2.068   3.522  19.018  0.00  0.00    +0.000 A 
ATOM      5  N   UNL     1       0.975   3.984  19.680  0.00  0.00    +0.000 N 
ATOM      6  N   UNL     1       2.133   2.230  18.884  0.00  0.00    +0.000 NA
ATOM      7  C   UNL     1       3.182   1.686  18.209  0.00  0.00    +0.000 A 
ATOM      8  N   UNL     1       4.156   2.316  17.640  0.00  0.00    +0.000 NA
ATOM      9  N   UNL     1       4.090   3.661  17.759  0.00  0.00    +0.000 N 
ATOM     10  C   UNL     1       4.942   4.579  17.206  0.00  0.00    +0.000 A 
ATOM     11 CL   UNL     1       6.288   4.036  16.301  0.00  0.00    +0.000 Cl
ATOM     12  H   UNL     1       0.704   4.952  19.567  0.00  0.00    +0.000 HD
ATOM     13  H   UNL     1       0.226   3.319  19.828  0.00  0.00    +0.000 HD
ENDROOT
BRANCH   2  14
ATOM     14  C   UNL     1       2.531   6.788  18.911  0.00  0.00    +0.000 A 
ATOM     15  C   UNL     1       2.029   6.800  20.193  0.00  0.00    +0.000 A 
ATOM     16  C   UNL     1       1.397   8.047  20.532  0.00  0.00    +0.000 A 
ATOM     17  C   UNL     1       0.810   8.481  21.740  0.00  0.00    +0.000 A 
ATOM     18  C   UNL     1       0.307   9.786  21.850  0.00  0.00    +0.000 A 
ATOM     19  C   UNL     1      -0.372  10.235  23.109  0.00  0.00    +0.000 C 
ATOM     20  C   UNL     1       0.434  10.675  20.776  0.00  0.00    +0.000 A 
ATOM     21  C   UNL     1       1.010  10.278  19.565  0.00  0.00    +0.000 A 
ATOM     22  C   UNL     1       1.440   8.939  19.463  0.00  0.00    +0.000 A 
ATOM     23  S   UNL     1       2.048   8.170  18.055  0.00  0.00    +0.000 S 
BRANCH  21  24
ATOM     24  O   UNL     1       1.203  11.071  18.469  0.00  0.00    +0.000 OA
ATOM     25  C   UNL     1       1.838  12.324  18.653  0.00  0.00    +0.000 C 
ENDBRANCH  21  24
ENDBRANCH   2  14
BRANCH   1  26
ATOM     26  C   UNL     1       5.186   7.132  17.072  0.00  0.00    +0.000 C 
BRANCH  26  27
ATOM     27  O   UNL     1       6.533   6.897  16.657  0.00  0.00    +0.000 OA
BRANCH  27  29
ATOM     28  C   UNL     1       7.885   6.528  18.595  0.00  0.00    +0.000 C 
ATOM     29  C   UNL     1       7.476   7.522  17.523  0.00  0.00    +0.000 C 
ENDBRANCH  27  29
ENDBRANCH  26  27
ENDBRANCH   1  26
TORSDOF 5
ENDMDL
MODEL 3
REMARK VINA RESULT:      -7.8      2.115      3.618
REMARK  Name = 
REMARK  8 active torsions:
REMARK  status: ('A' for Active; 'I' for Inactive)
REMARK    1  A    between atoms: C_1  and  C_2
REMARK    2  A    between atoms: C_2  and  O_3
REMARK    3  A    between atoms: O_3  and  C_4
REMARK    4  A    between atoms: C_4  and  C_5
REMARK    5  A    between atoms: C_6  and  C_7
REMARK    6  A    between atoms: C_11  and  C_12
REMARK    7  A    between atoms: C_14  and  O_15
REMARK    8  A    between atoms: O_15  and  C_16
REMARK                            x       y       z     vdW  Elec       q    Type
REMARK                         _______ _______ _______ _____ _____    ______ ____
ROOT
ATOM      1  C   UNL     1       2.375   4.326  18.354  0.00  0.00    +0.000 A 
ATOM      2  C   UNL     1       2.979   5.615  18.162  0.00  0.00    +0.000 A 
ATOM      3  C   UNL     1       4.168   5.438  17.460  0.00  0.00    +0.000 A 
ATOM      4  C   UNL     1       5.258   6.278  17.053  0.00  0.00    +0.000 A 
ATOM      5  N   UNL     1       5.361   7.615  17.277  0.00  0.00    +0.000 N 
ATOM      6  N   UNL     1       6.272   5.736  16.444  0.00  0.00    +0.000 NA
ATOM      7  C   UNL     1       6.261   4.397  16.205  0.00  0.00    +0.000 A 
ATOM      8  N   UNL     1       5.343   3.550  16.537  0.00  0.00    +0.000 NA
ATOM      9  N   UNL     1       4.291   4.101  17.185  0.00  0.00    +0.000 N 
ATOM     10  C   UNL     1       3.212   3.442  17.709  0.00  0.00    +0.000 A 
ATOM     11 CL   UNL     1       3.085   1.748  17.512  0.00  0.00    +0.000 Cl
ATOM     12  H   UNL     1       4.778   8.041  17.986  0.00  0.00    +0.000 HD
ATOM     13  H   UNL     1       6.277   8.023  17.139  0.00  0.00    +0.000 HD
ENDROOT
BRANCH   2  14
ATOM     14  C   UNL     1       2.443   6.924  18.649  0.00  0.00    +0.000 A 
ATOM     15  C   UNL     1       2.108   7.997  17.854  0.00  0.00    +0.000 A 
ATOM     16  C   UNL     1       1.489   9.065  18.592  0.00  0.00    +0.000 A 
ATOM     17  C   UNL     1       0.961  10.299  18.153  0.00  0.00    +0.000 A 
ATOM     18  C   UNL     1       0.337  11.163  19.066  0.00  0.00    +0.000 A 
ATOM     19  C   UNL     1      -0.172  12.501  18.620  0.00  0.00    +0.000 C 
ATOM     20  C   UNL     1       0.194  10.777  20.404  0.00  0.00    +0.000 A 
ATOM     21  C   UNL     1       0.705   9.563  20.872  0.00  0.00    +0.000 A 
ATOM     22  C   UNL     1       1.389   8.750  19.945  0.00  0.00    +0.000 A 
ATOM     23  S   UNL     1       2.222   7.291  20.290  0.00  0.00    +0.000 S 
BRANCH  21  24
ATOM     24  O   UNL     1       0.597   9.084  22.147  0.00  0.00    +0.000 OA
ATOM     25  C   UNL     1      -0.353   9.684  23.010  0.00  0.00    +0.000 C 
ENDBRANCH  21  24
ENDBRANCH   2  14
BRANCH   1  26
ATOM     26  C   UNL     1       1.090   3.998  19.045  0.00  0.00    +0.000 C 
BRANCH  26  27
ATOM     27  O   UNL     1       1.221   4.126  20.462  0.00  0.00    +0.000 OA
BRANCH  27  29
ATOM     28  C   UNL     1       2.667   2.568  21.558  0.00  0.00    +0.000 C 
ATOM     29  C   UNL     1       1.245   2.858  21.113  0.00  0.00    +0.000 C 
ENDBRANCH  27  29
ENDBRANCH  26  27
ENDBRANCH   1  26
TORSDOF 5
ENDMDL
MODEL 4
REMARK VINA RESULT:      -7.1      2.471      4.203
REMARK  Name = 
REMARK  8 active torsions:
REMARK  status: ('A' for Active; 'I' for Inactive)
REMARK    1  A    between atoms: C_1  and  C_2
REMARK    2  A    between atoms: C_2  and  O_3
REMARK    3  A    between atoms: O_3  and  C_4
REMARK    4  A    between atoms: C_4  and  C_5
REMARK    5  A    between atoms: C_6  and  C_7
REMARK    6  A    between atoms: C_11  and  C_12
REMARK    7  A    between atoms: C_14  and  O_15
REMARK    8  A    between atoms: O_15  and  C_16
REMARK                            x       y       z     vdW  Elec       q    Type
REMARK                         _______ _______ _______ _____ _____    ______ ____
ROOT
ATOM      1  C   UNL     1       2.834   4.179  18.029  0.00  0.00    +0.000 A 
ATOM      2  C   UNL     1       3.275   5.546  18.065  0.00  0.00    +0.000 A 
ATOM      3  C   UNL     1       4.530   5.614  17.465  0.00  0.00    +0.000 A 
ATOM      4  C   UNL     1       5.527   6.628  17.278  0.00  0.00    +0.000 A 
ATOM      5  N   UNL     1       5.433   7.923  17.680  0.00  0.00    +0.000 N 
ATOM      6  N   UNL     1       6.650   6.303  16.707  0.00  0.00    +0.000 NA
ATOM      7  C   UNL     1       6.837   5.019  16.298  0.00  0.00    +0.000 A 
ATOM      8  N   UNL     1       6.016   4.030  16.428  0.00  0.00    +0.000 NA
ATOM      9  N   UNL     1       4.851   4.353  17.034  0.00  0.00    +0.000 N 
ATOM     10  C   UNL     1       3.831   3.502  17.361  0.00  0.00    +0.000 A 
ATOM     11 CL   UNL     1       3.947   1.849  16.938  0.00  0.00    +0.000 Cl
ATOM     12  H   UNL     1       4.743   8.172  18.377  0.00  0.00    +0.000 HD
ATOM     13  H   UNL     1       6.295   8.455  17.687  0.00  0.00    +0.000 HD
ENDROOT
BRANCH   2  14
ATOM     14  C   UNL     1       2.532   6.700  18.660  0.00  0.00    +0.000 A 
ATOM     15  C   UNL     1       1.992   6.737  19.926  0.00  0.00    +0.000 A 
ATOM     16  C   UNL     1       1.461   8.029  20.268  0.00  0.00    +0.000 A 
ATOM     17  C   UNL     1       0.876   8.494  21.466  0.00  0.00    +0.000 A 
ATOM     18  C   UNL     1       0.487   9.836  21.585  0.00  0.00    +0.000 A 
ATOM     19  C   UNL     1      -0.191  10.323  22.831  0.00  0.00    +0.000 C 
ATOM     20  C   UNL     1       0.726  10.727  20.532  0.00  0.00    +0.000 A 
ATOM     21  C   UNL     1       1.304  10.301  19.333  0.00  0.00    +0.000 A 
ATOM     22  C   UNL     1       1.617   8.931  19.219  0.00  0.00    +0.000 A 
ATOM     23  S   UNL     1       2.200   8.133  17.816  0.00  0.00    +0.000 S 
BRANCH  21  24
ATOM     24  O   UNL     1       1.602  11.091  18.258  0.00  0.00    +0.000 OA
ATOM     25  C   UNL     1       1.944  12.445  18.497  0.00  0.00    +0.000 C 
ENDBRANCH  21  24
ENDBRANCH   2  14
BRANCH   1  26
ATOM     26  C   UNL     1       1.552   3.605  18.544  0.00  0.00    +0.000 C 
BRANCH  26  27
ATOM     27  O   UNL     1       1.796   2.641  19.570  0.00  0.00    +0.000 OA
BRANCH  27  29
ATOM     28  C   UNL     1       2.249   3.437  21.779  0.00  0.00    +0.000 C 
ATOM     29  C   UNL     1       1.174   3.002  20.800  0.00  0.00    +0.000 C 
ENDBRANCH  27  29
ENDBRANCH  26  27
ENDBRANCH   1  26
TORSDOF 5
ENDMDL
MODEL 5
REMARK VINA RESULT:      -7.1      1.361      1.603
REMARK  Name = 
REMARK  8 active torsions:
REMARK  status: ('A' for Active; 'I' for Inactive)
REMARK    1  A    between atoms: C_1  and  C_2
REMARK    2  A    between atoms: C_2  and  O_3
REMARK    3  A    between atoms: O_3  and  C_4
REMARK    4  A    between atoms: C_4  and  C_5
REMARK    5  A    between atoms: C_6  and  C_7
REMARK    6  A    between atoms: C_11  and  C_12
REMARK    7  A    between atoms: C_14  and  O_15
REMARK    8  A    between atoms: O_15  and  C_16
REMARK                            x       y       z     vdW  Elec       q    Type
REMARK                         _______ _______ _______ _____ _____    ______ ____
ROOT
ATOM      1  C   UNL     1       4.868   6.154  18.351  0.00  0.00    +0.000 A 
ATOM      2  C   UNL     1       3.619   6.105  19.060  0.00  0.00    +0.000 A 
ATOM      3  C   UNL     1       3.461   4.819  19.571  0.00  0.00    +0.000 A 
ATOM      4  C   UNL     1       2.424   4.108  20.262  0.00  0.00    +0.000 A 
ATOM      5  N   UNL     1       1.220   4.616  20.636  0.00  0.00    +0.000 N 
ATOM      6  N   UNL     1       2.605   2.849  20.538  0.00  0.00    +0.000 NA
ATOM      7  C   UNL     1       3.773   2.254  20.173  0.00  0.00    +0.000 A 
ATOM      8  N   UNL     1       4.762   2.794  19.541  0.00  0.00    +0.000 NA
ATOM      9  N   UNL     1       4.577   4.099  19.235  0.00  0.00    +0.000 N 
ATOM     10  C   UNL     1       5.421   4.903  18.518  0.00  0.00    +0.000 A 
ATOM     11 CL   UNL     1       6.912   4.274  17.964  0.00  0.00    +0.000 Cl
ATOM     12  H   UNL     1       0.892   5.471  20.204  0.00  0.00    +0.000 HD
ATOM     13  H   UNL     1       0.512   3.944  20.903  0.00  0.00    +0.000 HD
ENDROOT
BRANCH   2  14
ATOM     14  C   UNL     1       2.642   7.227  19.209  0.00  0.00    +0.000 A 
ATOM     15  C   UNL     1       2.170   8.018  18.186  0.00  0.00    +0.000 A 
ATOM     16  C   UNL     1       1.135   8.922  18.612  0.00  0.00    +0.000 A 
ATOM     17  C   UNL     1       0.366   9.850  17.878  0.00  0.00    +0.000 A 
ATOM     18  C   UNL     1      -0.646  10.585  18.512  0.00  0.00    +0.000 A 
ATOM     19  C   UNL     1      -1.426  11.616  17.753  0.00  0.00    +0.000 C 
ATOM     20  C   UNL     1      -0.928  10.358  19.865  0.00  0.00    +0.000 A 
ATOM     21  C   UNL     1      -0.187   9.446  20.621  0.00  0.00    +0.000 A 
ATOM     22  C   UNL     1       0.871   8.778  19.972  0.00  0.00    +0.000 A 
ATOM     23  S   UNL     1       2.009   7.722  20.702  0.00  0.00    +0.000 S 
BRANCH  21  24
ATOM     24  O   UNL     1      -0.396   9.135  21.936  0.00  0.00    +0.000 OA
ATOM     25  C   UNL     1      -0.455  10.196  22.873  0.00  0.00    +0.000 C 
ENDBRANCH  21  24
ENDBRANCH   2  14
BRANCH   1  26
ATOM     26  C   UNL     1       5.482   7.314  17.634  0.00  0.00    +0.000 C 
BRANCH  26  27
ATOM     27  O   UNL     1       6.092   6.898  16.411  0.00  0.00    +0.000 OA
BRANCH  27  29
ATOM     28  C   UNL     1       5.617   5.162  14.836  0.00  0.00    +0.000 C 
ATOM     29  C   UNL     1       5.131   6.459  15.455  0.00  0.00    +0.000 C 
ENDBRANCH  27  29
ENDBRANCH  26  27
ENDBRANCH   1  26
TORSDOF 5
ENDMDL
MODEL 6
REMARK VINA RESULT:      -6.9      3.239      7.256
REMARK  Name = 
REMARK  8 active torsions:
REMARK  status: ('A' for Active; 'I' for Inactive)
REMARK    1  A    between atoms: C_1  and  C_2
REMARK    2  A    between atoms: C_2  and  O_3
REMARK    3  A    between atoms: O_3  and  C_4
REMARK    4  A    between atoms: C_4  and  C_5
REMARK    5  A    between atoms: C_6  and  C_7
REMARK    6  A    between atoms: C_11  and  C_12
REMARK    7  A    between atoms: C_14  and  O_15
REMARK    8  A    between atoms: O_15  and  C_16
REMARK                            x       y       z     vdW  Elec       q    Type
REMARK                         _______ _______ _______ _____ _____    ______ ____
ROOT
ATOM      1  C   UNL     1       3.286   6.534  18.429  0.00  0.00    +0.000 A 
ATOM      2  C   UNL     1       3.759   5.212  18.119  0.00  0.00    +0.000 A 
ATOM      3  C   UNL     1       3.405   4.368  19.168  0.00  0.00    +0.000 A 
ATOM      4  C   UNL     1       3.658   2.999  19.517  0.00  0.00    +0.000 A 
ATOM      5  N   UNL     1       4.375   2.108  18.782  0.00  0.00    +0.000 N 
ATOM      6  N   UNL     1       3.206   2.548  20.650  0.00  0.00    +0.000 NA
ATOM      7  C   UNL     1       2.501   3.384  21.460  0.00  0.00    +0.000 A 
ATOM      8  N   UNL     1       2.227   4.629  21.251  0.00  0.00    +0.000 NA
ATOM      9  N   UNL     1       2.707   5.112  20.082  0.00  0.00    +0.000 N 
ATOM     10  C   UNL     1       2.627   6.402  19.631  0.00  0.00    +0.000 A 
ATOM     11 CL   UNL     1       1.797   7.569  20.566  0.00  0.00    +0.000 Cl
ATOM     12  H   UNL     1       4.996   2.453  18.060  0.00  0.00    +0.000 HD
ATOM     13  H   UNL     1       4.661   1.261  19.257  0.00  0.00    +0.000 HD
ENDROOT
BRANCH   2  14
ATOM     14  C   UNL     1       4.518   4.809  16.895  0.00  0.00    +0.000 A 
ATOM     15  C   UNL     1       4.050   3.984  15.898  0.00  0.00    +0.000 A 
ATOM     16  C   UNL     1       4.952   3.890  14.782  0.00  0.00    +0.000 A 
ATOM     17  C   UNL     1       4.828   3.202  13.556  0.00  0.00    +0.000 A 
ATOM     18  C   UNL     1       5.829   3.316  12.580  0.00  0.00    +0.000 A 
ATOM     19  C   UNL     1       5.734   2.540  11.300  0.00  0.00    +0.000 C 
ATOM     20  C   UNL     1       6.927   4.155  12.802  0.00  0.00    +0.000 A 
ATOM     21  C   UNL     1       7.081   4.852  14.005  0.00  0.00    +0.000 A 
ATOM     22  C   UNL     1       6.094   4.659  14.993  0.00  0.00    +0.000 A 
ATOM     23  S   UNL     1       6.119   5.281  16.591  0.00  0.00    +0.000 S 
BRANCH  21  24
ATOM     24  O   UNL     1       8.098   5.711  14.311  0.00  0.00    +0.000 OA
ATOM     25  C   UNL     1       9.044   6.016  13.301  0.00  0.00    +0.000 C 
ENDBRANCH  21  24
ENDBRANCH   2  14
BRANCH   1  26
ATOM     26  C   UNL     1       3.418   7.780  17.613  0.00  0.00    +0.000 C 
BRANCH  26  27
ATOM     27  O   UNL     1       2.136   8.337  17.316  0.00  0.00    +0.000 OA
BRANCH  27  29
ATOM     28  C   UNL     1       0.536   9.883  18.193  0.00  0.00    +0.000 C 
ATOM     29  C   UNL     1       1.993   9.656  17.836  0.00  0.00    +0.000 C 
ENDBRANCH  27  29
ENDBRANCH  26  27
ENDBRANCH   1  26
TORSDOF 5
ENDMDL
MODEL 7
REMARK VINA RESULT:      -6.9      2.363      3.851
REMARK  Name = 
REMARK  8 active torsions:
REMARK  status: ('A' for Active; 'I' for Inactive)
REMARK    1  A    between atoms: C_1  and  C_2
REMARK    2  A    between atoms: C_2  and  O_3
REMARK    3  A    between atoms: O_3  and  C_4
REMARK    4  A    between atoms: C_4  and  C_5
REMARK    5  A    between atoms: C_6  and  C_7
REMARK    6  A    between atoms: C_11  and  C_12
REMARK    7  A    between atoms: C_14  and  O_15
REMARK    8  A    between atoms: O_15  and  C_16
REMARK                            x       y       z     vdW  Elec       q    Type
REMARK                         _______ _______ _______ _____ _____    ______ ____
ROOT
ATOM      1  C   UNL     1       3.130   4.823  19.975  0.00  0.00    +0.000 A 
ATOM      2  C   UNL     1       3.209   6.031  19.201  0.00  0.00    +0.000 A 
ATOM      3  C   UNL     1       4.225   5.879  18.261  0.00  0.00    +0.000 A 
ATOM      4  C   UNL     1       4.861   6.721  17.288  0.00  0.00    +0.000 A 
ATOM      5  N   UNL     1       4.545   8.016  17.026  0.00  0.00    +0.000 N 
ATOM      6  N   UNL     1       5.859   6.242  16.604  0.00  0.00    +0.000 NA
ATOM      7  C   UNL     1       6.258   4.960  16.825  0.00  0.00    +0.000 A 
ATOM      8  N   UNL     1       5.768   4.125  17.680  0.00  0.00    +0.000 NA
ATOM      9  N   UNL     1       4.740   4.617  18.408  0.00  0.00    +0.000 N 
ATOM     10  C   UNL     1       4.075   3.986  19.423  0.00  0.00    +0.000 A 
ATOM     11 CL   UNL     1       4.497   2.379  19.833  0.00  0.00    +0.000 Cl
ATOM     12  H   UNL     1       4.002   8.537  17.703  0.00  0.00    +0.000 HD
ATOM     13  H   UNL     1       5.220   8.543  16.487  0.00  0.00    +0.000 HD
ENDROOT
BRANCH   2  14
ATOM     14  C   UNL     1       2.366   7.254  19.381  0.00  0.00    +0.000 A 
ATOM     15  C   UNL     1       1.987   8.119  18.379  0.00  0.00    +0.000 A 
ATOM     16  C   UNL     1       1.063   9.124  18.831  0.00  0.00    +0.000 A 
ATOM     17  C   UNL     1       0.404  10.152  18.122  0.00  0.00    +0.000 A 
ATOM     18  C   UNL     1      -0.517  10.981  18.777  0.00  0.00    +0.000 A 
ATOM     19  C   UNL     1      -1.175  12.113  18.046  0.00  0.00    +0.000 C 
ATOM     20  C   UNL     1      -0.823  10.755  20.125  0.00  0.00    +0.000 A 
ATOM     21  C   UNL     1      -0.190   9.746  20.856  0.00  0.00    +0.000 A 
ATOM     22  C   UNL     1       0.784   8.977  20.187  0.00  0.00    +0.000 A 
ATOM     23  S   UNL     1       1.795   7.781  20.888  0.00  0.00    +0.000 S 
BRANCH  21  24
ATOM     24  O   UNL     1      -0.433   9.428  22.164  0.00  0.00    +0.000 OA
ATOM     25  C   UNL     1      -0.787  10.474  23.051  0.00  0.00    +0.000 C 
ENDBRANCH  21  24
ENDBRANCH   2  14
BRANCH   1  26
ATOM     26  C   UNL     1       2.196   4.501  21.098  0.00  0.00    +0.000 C 
BRANCH  26  27
ATOM     27  O   UNL     1       0.928   4.069  20.603  0.00  0.00    +0.000 OA
BRANCH  27  29
ATOM     28  C   UNL     1       0.710   2.458  18.848  0.00  0.00    +0.000 C 
ATOM     29  C   UNL     1       0.906   2.669  20.338  0.00  0.00    +0.000 C 
ENDBRANCH  27  29
ENDBRANCH  26  27
ENDBRANCH   1  26
TORSDOF 5
ENDMDL
MODEL 8
REMARK VINA RESULT:      -6.8      1.502      2.422
REMARK  Name = 
REMARK  8 active torsions:
REMARK  status: ('A' for Active; 'I' for Inactive)
REMARK    1  A    between atoms: C_1  and  C_2
REMARK    2  A    between atoms: C_2  and  O_3
REMARK    3  A    between atoms: O_3  and  C_4
REMARK    4  A    between atoms: C_4  and  C_5
REMARK    5  A    between atoms: C_6  and  C_7
REMARK    6  A    between atoms: C_11  and  C_12
REMARK    7  A    between atoms: C_14  and  O_15
REMARK    8  A    between atoms: O_15  and  C_16
REMARK                            x       y       z     vdW  Elec       q    Type
REMARK                         _______ _______ _______ _____ _____    ______ ____
ROOT
ATOM      1  C   UNL     1       4.645   5.800  18.255  0.00  0.00    +0.000 A 
ATOM      2  C   UNL     1       3.376   5.688  18.919  0.00  0.00    +0.000 A 
ATOM      3  C   UNL     1       3.081   4.335  19.069  0.00  0.00    +0.000 A 
ATOM      4  C   UNL     1       1.961   3.572  19.540  0.00  0.00    +0.000 A 
ATOM      5  N   UNL     1       0.800   4.079  20.031  0.00  0.00    +0.000 N 
ATOM      6  N   UNL     1       2.015   2.274  19.470  0.00  0.00    +0.000 NA
ATOM      7  C   UNL     1       3.133   1.684  18.965  0.00  0.00    +0.000 A 
ATOM      8  N   UNL     1       4.187   2.273  18.504  0.00  0.00    +0.000 NA
ATOM      9  N   UNL     1       4.135   3.623  18.557  0.00  0.00    +0.000 N 
ATOM     10  C   UNL     1       5.072   4.502  18.084  0.00  0.00    +0.000 A 
ATOM     11 CL   UNL     1       6.514   3.899  17.389  0.00  0.00    +0.000 Cl
ATOM     12  H   UNL     1       0.567   5.046  19.841  0.00  0.00    +0.000 HD
ATOM     13  H   UNL     1       0.024   3.434  20.106  0.00  0.00    +0.000 HD
ENDROOT
BRANCH   2  14
ATOM     14  C   UNL     1       2.504   6.822  19.359  0.00  0.00    +0.000 A 
ATOM     15  C   UNL     1       1.874   6.920  20.578  0.00  0.00    +0.000 A 
ATOM     16  C   UNL     1       1.219   8.187  20.767  0.00  0.00    +0.000 A 
ATOM     17  C   UNL     1       0.515   8.702  21.877  0.00  0.00    +0.000 A 
ATOM     18  C   UNL     1       0.014  10.011  21.848  0.00  0.00    +0.000 A 
ATOM     19  C   UNL     1      -0.787  10.544  22.998  0.00  0.00    +0.000 C 
ATOM     20  C   UNL     1       0.257  10.826  20.736  0.00  0.00    +0.000 A 
ATOM     21  C   UNL     1       0.951  10.349  19.620  0.00  0.00    +0.000 A 
ATOM     22  C   UNL     1       1.378   9.006  19.652  0.00  0.00    +0.000 A 
ATOM     23  S   UNL     1       2.121   8.144  18.368  0.00  0.00    +0.000 S 
BRANCH  21  24
ATOM     24  O   UNL     1       1.261  11.067  18.499  0.00  0.00    +0.000 OA
ATOM     25  C   UNL     1       1.454  12.464  18.632  0.00  0.00    +0.000 C 
ENDBRANCH  21  24
ENDBRANCH   2  14
BRANCH   1  26
ATOM     26  C   UNL     1       5.386   7.043  17.876  0.00  0.00    +0.000 C 
BRANCH  26  27
ATOM     27  O   UNL     1       5.997   6.905  16.592  0.00  0.00    +0.000 OA
BRANCH  27  29
ATOM     28  C   UNL     1       5.580   5.532  14.679  0.00  0.00    +0.000 C 
ATOM     29  C   UNL     1       5.041   6.635  15.571  0.00  0.00    +0.000 C 
ENDBRANCH  27  29
ENDBRANCH  26  27
ENDBRANCH   1  26
TORSDOF 5
ENDMDL
MODEL 9
REMARK VINA RESULT:      -6.8      2.248      3.756
REMARK  Name = 
REMARK  8 active torsions:
REMARK  status: ('A' for Active; 'I' for Inactive)
REMARK    1  A    between atoms: C_1  and  C_2
REMARK    2  A    between atoms: C_2  and  O_3
REMARK    3  A    between atoms: O_3  and  C_4
REMARK    4  A    between atoms: C_4  and  C_5
REMARK    5  A    between atoms: C_6  and  C_7
REMARK    6  A    between atoms: C_11  and  C_12
REMARK    7  A    between atoms: C_14  and  O_15
REMARK    8  A    between atoms: O_15  and  C_16
REMARK                            x       y       z     vdW  Elec       q    Type
REMARK                         _______ _______ _______ _____ _____    ______ ____
ROOT
ATOM      1  C   UNL     1       3.382   3.915  18.353  0.00  0.00    +0.000 A 
ATOM      2  C   UNL     1       3.629   5.231  17.830  0.00  0.00    +0.000 A 
ATOM      3  C   UNL     1       4.520   5.116  16.767  0.00  0.00    +0.000 A 
ATOM      4  C   UNL     1       5.227   6.027  15.913  0.00  0.00    +0.000 A 
ATOM      5  N   UNL     1       5.143   7.383  15.951  0.00  0.00    +0.000 N 
ATOM      6  N   UNL     1       6.058   5.546  15.036  0.00  0.00    +0.000 NA
ATOM      7  C   UNL     1       6.223   4.198  14.950  0.00  0.00    +0.000 A 
ATOM      8  N   UNL     1       5.651   3.293  15.673  0.00  0.00    +0.000 NA
ATOM      9  N   UNL     1       4.796   3.784  16.599  0.00  0.00    +0.000 N 
ATOM     10  C   UNL     1       4.104   3.069  17.540  0.00  0.00    +0.000 A 
ATOM     11 CL   UNL     1       4.244   1.365  17.571  0.00  0.00    +0.000 Cl
ATOM     12  H   UNL     1       4.764   7.830  16.777  0.00  0.00    +0.000 HD
ATOM     13  H   UNL     1       5.863   7.892  15.453  0.00  0.00    +0.000 HD
ENDROOT
BRANCH   2  14
ATOM     14  C   UNL     1       3.050   6.511  18.345  0.00  0.00    +0.000 A 
ATOM     15  C   UNL     1       2.858   7.656  17.607  0.00  0.00    +0.000 A 
ATOM     16  C   UNL     1       2.154   8.677  18.336  0.00  0.00    +0.000 A 
ATOM     17  C   UNL     1       1.720   9.959  17.934  0.00  0.00    +0.000 A 
ATOM     18  C   UNL     1       0.984  10.762  18.817  0.00  0.00    +0.000 A 
ATOM     19  C   UNL     1       0.571  12.148  18.420  0.00  0.00    +0.000 C 
ATOM     20  C   UNL     1       0.634  10.270  20.081  0.00  0.00    +0.000 A 
ATOM     21  C   UNL     1       1.047   9.005  20.510  0.00  0.00    +0.000 A 
ATOM     22  C   UNL     1       1.847   8.253  19.626  0.00  0.00    +0.000 A 
ATOM     23  S   UNL     1       2.593   6.745  19.961  0.00  0.00    +0.000 S 
BRANCH  21  24
ATOM     24  O   UNL     1       0.741   8.424  21.709  0.00  0.00    +0.000 OA
ATOM     25  C   UNL     1      -0.460   8.811  22.353  0.00  0.00    +0.000 C 
ENDBRANCH  21  24
ENDBRANCH   2  14
BRANCH   1  26
ATOM     26  C   UNL     1       2.494   3.522  19.490  0.00  0.00    +0.000 C 
BRANCH  26  27
ATOM     27  O   UNL     1       3.251   2.948  20.558  0.00  0.00    +0.000 OA
BRANCH  27  29
ATOM     28  C   UNL     1       0.992   2.960  21.342  0.00  0.00    +0.000 C 
ATOM     29  C   UNL     1       2.433   2.622  21.678  0.00  0.00    +0.000 C 
ENDBRANCH  27  29
ENDBRANCH  26  27
ENDBRANCH   1  26
TORSDOF 5
ENDMDL
