MODEL 1
REMARK VINA RESULT:      -7.3      0.000      0.000
REMARK  Name = 
REMARK  17 active torsions:
REMARK  status: ('A' for Active; 'I' for Inactive)
REMARK    1  A    between atoms: C_1  and  C_2
REMARK    2  A    between atoms: C_2  and  C_3
REMARK    3  A    between atoms: C_2  and  C_4
REMARK    4  A    between atoms: C_4  and  N_5
REMARK    5  A    between atoms: C_4  and  C_16
REMARK    6  A    between atoms: C_6  and  C_8
REMARK    7  A    between atoms: C_8  and  O_9
REMARK    8  A    between atoms: C_8  and  C_10
REMARK    9  A    between atoms: N_18  and  C_19
REMARK   10  A    between atoms: C_19  and  C_20
REMARK   11  A    between atoms: C_19  and  C_24
REMARK   12  A    between atoms: C_20  and  C_21
REMARK   13  A    between atoms: C_21  and  O_23
REMARK   14  A    between atoms: C_24  and  C_26
REMARK   15  A    between atoms: C_26  and  S_27
REMARK   16  A    between atoms: S_27  and  C_28
REMARK   17  A    between atoms: C_28  and  C_29
REMARK                            x       y       z     vdW  Elec       q    Type
REMARK                         _______ _______ _______ _____ _____    ______ ____
ROOT
ATOM      1  C   UNL     1       2.604   3.998  17.518  0.00  0.00    +0.000 C 
ATOM      2  O   UNL     1       1.462   3.980  17.062  0.00  0.00    +0.000 OA
ATOM      3  N   UNL     1       3.095   5.061  18.244  0.00  0.00    +0.000 N 
ATOM      4  H   UNL     1       4.006   4.969  18.687  0.00  0.00    +0.000 HD
ENDROOT
BRANCH   1   5
ATOM      5  C   UNL     1       3.571   2.803  17.353  0.00  0.00    +0.000 C 
BRANCH   5   6
ATOM      6  N   UNL     1       4.921   3.331  17.135  0.00  0.00    +0.000 N 
ATOM      7  C   UNL     1       5.295   3.898  15.931  0.00  0.00    +0.000 C 
ATOM      8  O   UNL     1       4.501   4.018  14.998  0.00  0.00    +0.000 OA
ATOM      9  H   UNL     1       5.559   3.346  17.925  0.00  0.00    +0.000 HD
BRANCH   7  10
ATOM     10  C   UNL     1       6.764   4.368  15.825  0.00  0.00    +0.000 C 
BRANCH  10  11
ATOM     11  C   UNL     1       7.225   5.324  16.913  0.00  0.00    +0.000 A 
ATOM     12  C   UNL     1       7.662   4.882  18.169  0.00  0.00    +0.000 A 
ATOM     13  C   UNL     1       8.086   5.790  19.140  0.00  0.00    +0.000 A 
ATOM     14  C   UNL     1       8.085   7.157  18.874  0.00  0.00    +0.000 A 
ATOM     15  C   UNL     1       7.644   7.618  17.636  0.00  0.00    +0.000 A 
ATOM     16  C   UNL     1       7.212   6.711  16.664  0.00  0.00    +0.000 A 
ENDBRANCH  10  11
BRANCH  10  17
ATOM     17  O   UNL     1       6.962   5.016  14.565  0.00  0.00    +0.000 OA
ATOM     18  H   UNL     1       7.757   4.593  14.189  0.00  0.00    +0.000 HD
ENDBRANCH  10  17
ENDBRANCH   7  10
ENDBRANCH   5   6
BRANCH   5  20
ATOM     19  C   UNL     1       2.075   1.713  19.104  0.00  0.00    +0.000 C 
ATOM     20  C   UNL     1       3.506   1.843  18.567  0.00  0.00    +0.000 C 
ATOM     21  C   UNL     1       4.455   2.225  19.710  0.00  0.00    +0.000 C 
ENDBRANCH   5  20
ENDBRANCH   1   5
BRANCH   3  22
ATOM     22  C   UNL     1       2.270   6.213  18.615  0.00  0.00    +0.000 C 
BRANCH  22  23
ATOM     23  C   UNL     1       2.954   7.492  18.098  0.00  0.00    +0.000 C 
ATOM     24  O   UNL     1       3.810   7.458  17.206  0.00  0.00    +0.000 OA
BRANCH  23  25
ATOM     25  C   UNL     1       2.531   8.822  18.666  0.00  0.00    +0.000 C 
BRANCH  25  26
ATOM     26  S   UNL     1       0.847   9.266  18.156  0.00  0.00    +0.000 S 
BRANCH  26  27
ATOM     27  C   UNL     1       0.623  10.851  19.048  0.00  0.00    +0.000 C 
BRANCH  27  28
ATOM     28  C   UNL     1       0.137  10.610  20.461  0.00  0.00    +0.000 A 
ATOM     29  C   UNL     1      -0.305  11.674  21.261  0.00  0.00    +0.000 A 
ATOM     30  C   UNL     1      -0.775  11.446  22.557  0.00  0.00    +0.000 A 
ATOM     31  C   UNL     1      -0.807  10.151  23.069  0.00  0.00    +0.000 A 
ATOM     32  C   UNL     1      -0.352   9.086  22.295  0.00  0.00    +0.000 A 
ATOM     33  C   UNL     1       0.125   9.315  21.001  0.00  0.00    +0.000 A 
ENDBRANCH  27  28
ENDBRANCH  26  27
ENDBRANCH  25  26
ENDBRANCH  23  25
ENDBRANCH  22  23
BRANCH  22  34
ATOM     34  C   UNL     1       1.968   6.338  20.119  0.00  0.00    +0.000 C 
BRANCH  34  35
ATOM     35  C   UNL     1       1.717   5.012  20.814  0.00  0.00    +0.000 C 
ATOM     36  O   UNL     1       2.491   4.437  21.556  0.00  0.00    +0.000 OA
BRANCH  35  37
ATOM     37  O   UNL     1       0.544   4.452  20.419  0.00  0.00    +0.000 OA
ATOM     38  H   UNL     1       0.358   4.504  19.463  0.00  0.00    +0.000 HD
ENDBRANCH  35  37
ENDBRANCH  34  35
ENDBRANCH  22  34
ENDBRANCH   3  22
TORSDOF 15
ENDMDL
MODEL 2
REMARK VINA RESULT:      -7.3      2.256      4.413
REMARK  Name = 
REMARK  17 active torsions:
REMARK  status: ('A' for Active; 'I' for Inactive)
REMARK    1  A    between atoms: C_1  and  C_2
REMARK    2  A    between atoms: C_2  and  C_3
REMARK    3  A    between atoms: C_2  and  C_4
REMARK    4  A    between atoms: C_4  and  N_5
REMARK    5  A    between atoms: C_4  and  C_16
REMARK    6  A    between atoms: C_6  and  C_8
REMARK    7  A    between atoms: C_8  and  O_9
REMARK    8  A    between atoms: C_8  and  C_10
REMARK    9  A    between atoms: N_18  and  C_19
REMARK   10  A    between atoms: C_19  and  C_20
REMARK   11  A    between atoms: C_19  and  C_24
REMARK   12  A    between atoms: C_20  and  C_21
REMARK   13  A    between atoms: C_21  and  O_23
REMARK   14  A    between atoms: C_24  and  C_26
REMARK   15  A    between atoms: C_26  and  S_27
REMARK   16  A    between atoms: S_27  and  C_28
REMARK   17  A    between atoms: C_28  and  C_29
REMARK                            x       y       z     vdW  Elec       q    Type
REMARK                         _______ _______ _______ _____ _____    ______ ____
ROOT
ATOM      1  C   UNL     1       4.263   5.963  17.654  0.00  0.00    +0.000 C 
ATOM      2  O   UNL     1       3.749   7.028  17.315  0.00  0.00    +0.000 OA
ATOM      3  N   UNL     1       3.549   4.960  18.274  0.00  0.00    +0.000 N 
ATOM      4  H   UNL     1       4.003   4.064  18.429  0.00  0.00    +0.000 HD
ENDROOT
BRANCH   1   5
ATOM      5  C   UNL     1       5.747   5.643  17.367  0.00  0.00    +0.000 C 
BRANCH   5   6
ATOM      6  N   UNL     1       5.977   5.777  15.926  0.00  0.00    +0.000 N 
ATOM      7  C   UNL     1       6.712   4.845  15.217  0.00  0.00    +0.000 C 
ATOM      8  O   UNL     1       7.178   3.841  15.756  0.00  0.00    +0.000 OA
ATOM      9  H   UNL     1       5.508   6.534  15.437  0.00  0.00    +0.000 HD
BRANCH   7  10
ATOM     10  C   UNL     1       6.916   5.137  13.713  0.00  0.00    +0.000 C 
BRANCH  10  11
ATOM     11  C   UNL     1       6.517   4.015  12.769  0.00  0.00    +0.000 A 
ATOM     12  C   UNL     1       7.459   3.244  12.073  0.00  0.00    +0.000 A 
ATOM     13  C   UNL     1       7.055   2.215  11.222  0.00  0.00    +0.000 A 
ATOM     14  C   UNL     1       5.701   1.934  11.051  0.00  0.00    +0.000 A 
ATOM     15  C   UNL     1       4.748   2.694  11.725  0.00  0.00    +0.000 A 
ATOM     16  C   UNL     1       5.150   3.729  12.573  0.00  0.00    +0.000 A 
ENDBRANCH  10  11
BRANCH  10  17
ATOM     17  O   UNL     1       8.294   5.437  13.473  0.00  0.00    +0.000 OA
ATOM     18  H   UNL     1       8.760   5.119  14.269  0.00  0.00    +0.000 HD
ENDBRANCH  10  17
ENDBRANCH   7  10
ENDBRANCH   5   6
BRANCH   5  20
ATOM     19  C   UNL     1       7.376   7.601  17.321  0.00  0.00    +0.000 C 
ATOM     20  C   UNL     1       6.698   6.542  18.198  0.00  0.00    +0.000 C 
ATOM     21  C   UNL     1       7.759   5.761  18.983  0.00  0.00    +0.000 C 
ENDBRANCH   5  20
ENDBRANCH   1   5
BRANCH   3  22
ATOM     22  C   UNL     1       2.104   5.040  18.495  0.00  0.00    +0.000 C 
BRANCH  22  23
ATOM     23  C   UNL     1       1.852   5.380  19.976  0.00  0.00    +0.000 C 
ATOM     24  O   UNL     1       1.171   4.651  20.705  0.00  0.00    +0.000 OA
BRANCH  23  25
ATOM     25  C   UNL     1       2.495   6.613  20.557  0.00  0.00    +0.000 C 
BRANCH  25  26
ATOM     26  S   UNL     1       1.556   8.113  20.154  0.00  0.00    +0.000 S 
BRANCH  26  27
ATOM     27  C   UNL     1       0.299   8.101  21.487  0.00  0.00    +0.000 C 
BRANCH  27  28
ATOM     28  C   UNL     1      -0.298   9.479  21.678  0.00  0.00    +0.000 A 
ATOM     29  C   UNL     1      -0.644   9.942  22.957  0.00  0.00    +0.000 A 
ATOM     30  C   UNL     1      -1.173  11.223  23.132  0.00  0.00    +0.000 A 
ATOM     31  C   UNL     1      -1.363  12.057  22.033  0.00  0.00    +0.000 A 
ATOM     32  C   UNL     1      -1.043  11.604  20.755  0.00  0.00    +0.000 A 
ATOM     33  C   UNL     1      -0.521  10.319  20.577  0.00  0.00    +0.000 A 
ENDBRANCH  27  28
ENDBRANCH  26  27
ENDBRANCH  25  26
ENDBRANCH  23  25
ENDBRANCH  22  23
BRANCH  22  34
ATOM     34  C   UNL     1       1.316   3.780  18.094  0.00  0.00    +0.000 C 
BRANCH  34  35
ATOM     35  C   UNL     1       2.138   2.504  18.103  0.00  0.00    +0.000 C 
ATOM     36  O   UNL     1       3.039   2.229  17.333  0.00  0.00    +0.000 OA
BRANCH  35  37
ATOM     37  O   UNL     1       1.673   1.614  19.018  0.00  0.00    +0.000 OA
ATOM     38  H   UNL     1       2.356   1.095  19.481  0.00  0.00    +0.000 HD
ENDBRANCH  35  37
ENDBRANCH  34  35
ENDBRANCH  22  34
ENDBRANCH   3  22
TORSDOF 15
ENDMDL
MODEL 3
REMARK VINA RESULT:      -7.3      1.626      2.352
REMARK  Name = 
REMARK  17 active torsions:
REMARK  status: ('A' for Active; 'I' for Inactive)
REMARK    1  A    between atoms: C_1  and  C_2
REMARK    2  A    between atoms: C_2  and  C_3
REMARK    3  A    between atoms: C_2  and  C_4
REMARK    4  A    between atoms: C_4  and  N_5
REMARK    5  A    between atoms: C_4  and  C_16
REMARK    6  A    between atoms: C_6  and  C_8
REMARK    7  A    between atoms: C_8  and  O_9
REMARK    8  A    between atoms: C_8  and  C_10
REMARK    9  A    between atoms: N_18  and  C_19
REMARK   10  A    between atoms: C_19  and  C_20
REMARK   11  A    between atoms: C_19  and  C_24
REMARK   12  A    between atoms: C_20  and  C_21
REMARK   13  A    between atoms: C_21  and  O_23
REMARK   14  A    between atoms: C_24  and  C_26
REMARK   15  A    between atoms: C_26  and  S_27
REMARK   16  A    between atoms: S_27  and  C_28
REMARK   17  A    between atoms: C_28  and  C_29
REMARK                            x       y       z     vdW  Elec       q    Type
REMARK                         _______ _______ _______ _____ _____    ______ ____
ROOT
ATOM      1  C   UNL     1       2.556   4.204  17.566  0.00  0.00    +0.000 C 
ATOM      2  O   UNL     1       1.394   4.046  17.195  0.00  0.00    +0.000 OA
ATOM      3  N   UNL     1       2.934   5.233  18.400  0.00  0.00    +0.000 N 
ATOM      4  H   UNL     1       3.886   5.246  18.758  0.00  0.00    +0.000 HD
ENDROOT
BRANCH   1   5
ATOM      5  C   UNL     1       3.684   3.228  17.162  0.00  0.00    +0.000 C 
BRANCH   5   6
ATOM      6  N   UNL     1       4.890   4.011  16.875  0.00  0.00    +0.000 N 
ATOM      7  C   UNL     1       5.553   3.909  15.667  0.00  0.00    +0.000 C 
ATOM      8  O   UNL     1       5.142   3.182  14.762  0.00  0.00    +0.000 OA
ATOM      9  H   UNL     1       5.183   4.701  17.560  0.00  0.00    +0.000 HD
BRANCH   7  10
ATOM     10  C   UNL     1       6.838   4.756  15.519  0.00  0.00    +0.000 C 
BRANCH  10  11
ATOM     11  C   UNL     1       7.292   5.478  16.777  0.00  0.00    +0.000 A 
ATOM     12  C   UNL     1       7.338   6.876  16.869  0.00  0.00    +0.000 A 
ATOM     13  C   UNL     1       7.752   7.503  18.045  0.00  0.00    +0.000 A 
ATOM     14  C   UNL     1       8.127   6.745  19.153  0.00  0.00    +0.000 A 
ATOM     15  C   UNL     1       8.099   5.355  19.079  0.00  0.00    +0.000 A 
ATOM     16  C   UNL     1       7.690   4.724  17.900  0.00  0.00    +0.000 A 
ENDBRANCH  10  11
BRANCH  10  17
ATOM     17  O   UNL     1       6.640   5.741  14.501  0.00  0.00    +0.000 OA
ATOM     18  H   UNL     1       5.710   6.020  14.602  0.00  0.00    +0.000 HD
ENDBRANCH  10  17
ENDBRANCH   7  10
ENDBRANCH   5   6
BRANCH   5  20
ATOM     19  C   UNL     1       2.620   1.475  18.674  0.00  0.00    +0.000 C 
ATOM     20  C   UNL     1       3.929   2.154  18.252  0.00  0.00    +0.000 C 
ATOM     21  C   UNL     1       4.661   2.686  19.490  0.00  0.00    +0.000 C 
ENDBRANCH   5  20
ENDBRANCH   1   5
BRANCH   3  22
ATOM     22  C   UNL     1       1.972   6.166  18.991  0.00  0.00    +0.000 C 
BRANCH  22  23
ATOM     23  C   UNL     1       2.431   7.604  18.683  0.00  0.00    +0.000 C 
ATOM     24  O   UNL     1       3.331   7.840  17.870  0.00  0.00    +0.000 OA
BRANCH  23  25
ATOM     25  C   UNL     1       1.727   8.751  19.362  0.00  0.00    +0.000 C 
BRANCH  25  26
ATOM     26  S   UNL     1       1.384  10.107  18.206  0.00  0.00    +0.000 S 
BRANCH  26  27
ATOM     27  C   UNL     1       0.103  11.034  19.131  0.00  0.00    +0.000 C 
BRANCH  27  28
ATOM     28  C   UNL     1      -1.251  10.887  18.472  0.00  0.00    +0.000 A 
ATOM     29  C   UNL     1      -1.452   9.958  17.440  0.00  0.00    +0.000 A 
ATOM     30  C   UNL     1      -2.709   9.809  16.849  0.00  0.00    +0.000 A 
ATOM     31  C   UNL     1      -3.781  10.587  17.282  0.00  0.00    +0.000 A 
ATOM     32  C   UNL     1      -3.592  11.527  18.291  0.00  0.00    +0.000 A 
ATOM     33  C   UNL     1      -2.333  11.683  18.878  0.00  0.00    +0.000 A 
ENDBRANCH  27  28
ENDBRANCH  26  27
ENDBRANCH  25  26
ENDBRANCH  23  25
ENDBRANCH  22  23
BRANCH  22  34
ATOM     34  C   UNL     1       1.741   5.990  20.502  0.00  0.00    +0.000 C 
BRANCH  34  35
ATOM     35  C   UNL     1       1.551   4.548  20.938  0.00  0.00    +0.000 C 
ATOM     36  O   UNL     1       2.253   3.941  21.724  0.00  0.00    +0.000 OA
BRANCH  35  37
ATOM     37  O   UNL     1       0.550   3.944  20.247  0.00  0.00    +0.000 OA
ATOM     38  H   UNL     1       0.671   2.989  20.086  0.00  0.00    +0.000 HD
ENDBRANCH  35  37
ENDBRANCH  34  35
ENDBRANCH  22  34
ENDBRANCH   3  22
TORSDOF 15
ENDMDL
MODEL 4
REMARK VINA RESULT:      -7.1      2.352      4.106
REMARK  Name = 
REMARK  17 active torsions:
REMARK  status: ('A' for Active; 'I' for Inactive)
REMARK    1  A    between atoms: C_1  and  C_2
REMARK    2  A    between atoms: C_2  and  C_3
REMARK    3  A    between atoms: C_2  and  C_4
REMARK    4  A    between atoms: C_4  and  N_5
REMARK    5  A    between atoms: C_4  and  C_16
REMARK    6  A    between atoms: C_6  and  C_8
REMARK    7  A    between atoms: C_8  and  O_9
REMARK    8  A    between atoms: C_8  and  C_10
REMARK    9  A    between atoms: N_18  and  C_19
REMARK   10  A    between atoms: C_19  and  C_20
REMARK   11  A    between atoms: C_19  and  C_24
REMARK   12  A    between atoms: C_20  and  C_21
REMARK   13  A    between atoms: C_21  and  O_23
REMARK   14  A    between atoms: C_24  and  C_26
REMARK   15  A    between atoms: C_26  and  S_27
REMARK   16  A    between atoms: S_27  and  C_28
REMARK   17  A    between atoms: C_28  and  C_29
REMARK                            x       y       z     vdW  Elec       q    Type
REMARK                         _______ _______ _______ _____ _____    ______ ____
ROOT
ATOM      1  C   UNL     1       4.243   5.197  17.867  0.00  0.00    +0.000 C 
ATOM      2  O   UNL     1       3.456   4.452  17.283  0.00  0.00    +0.000 OA
ATOM      3  N   UNL     1       3.854   6.018  18.903  0.00  0.00    +0.000 N 
ATOM      4  H   UNL     1       4.570   6.527  19.416  0.00  0.00    +0.000 HD
ENDROOT
BRANCH   1   5
ATOM      5  C   UNL     1       5.747   5.238  17.515  0.00  0.00    +0.000 C 
BRANCH   5   6
ATOM      6  N   UNL     1       5.876   5.444  16.069  0.00  0.00    +0.000 N 
ATOM      7  C   UNL     1       6.909   4.881  15.343  0.00  0.00    +0.000 C 
ATOM      8  O   UNL     1       7.748   4.151  15.871  0.00  0.00    +0.000 OA
ATOM      9  H   UNL     1       5.134   5.948  15.592  0.00  0.00    +0.000 HD
BRANCH   7  10
ATOM     10  C   UNL     1       6.950   5.222  13.836  0.00  0.00    +0.000 C 
BRANCH  10  11
ATOM     11  C   UNL     1       6.479   4.119  12.903  0.00  0.00    +0.000 A 
ATOM     12  C   UNL     1       7.369   3.291  12.205  0.00  0.00    +0.000 A 
ATOM     13  C   UNL     1       6.898   2.282  11.364  0.00  0.00    +0.000 A 
ATOM     14  C   UNL     1       5.529   2.077  11.207  0.00  0.00    +0.000 A 
ATOM     15  C   UNL     1       4.628   2.895  11.884  0.00  0.00    +0.000 A 
ATOM     16  C   UNL     1       5.096   3.911  12.722  0.00  0.00    +0.000 A 
ENDBRANCH  10  11
BRANCH  10  17
ATOM     17  O   UNL     1       8.289   5.562  13.466  0.00  0.00    +0.000 OA
ATOM     18  H   UNL     1       8.833   5.301  14.232  0.00  0.00    +0.000 HD
ENDBRANCH  10  17
ENDBRANCH   7  10
ENDBRANCH   5   6
BRANCH   5  20
ATOM     19  C   UNL     1       6.977   7.467  17.432  0.00  0.00    +0.000 C 
ATOM     20  C   UNL     1       6.496   6.322  18.330  0.00  0.00    +0.000 C 
ATOM     21  C   UNL     1       7.672   5.776  19.150  0.00  0.00    +0.000 C 
ENDBRANCH   5  20
ENDBRANCH   1   5
BRANCH   3  22
ATOM     22  C   UNL     1       2.499   6.003  19.458  0.00  0.00    +0.000 C 
BRANCH  22  23
ATOM     23  C   UNL     1       2.072   7.454  19.748  0.00  0.00    +0.000 C 
ATOM     24  O   UNL     1       1.982   8.298  18.849  0.00  0.00    +0.000 OA
BRANCH  23  25
ATOM     25  C   UNL     1       1.710   7.836  21.160  0.00  0.00    +0.000 C 
BRANCH  25  26
ATOM     26  S   UNL     1       0.063   8.591  21.251  0.00  0.00    +0.000 S 
BRANCH  26  27
ATOM     27  C   UNL     1       0.502  10.368  21.342  0.00  0.00    +0.000 C 
BRANCH  27  28
ATOM     28  C   UNL     1      -0.707  11.204  21.699  0.00  0.00    +0.000 A 
ATOM     29  C   UNL     1      -1.278  12.081  20.764  0.00  0.00    +0.000 A 
ATOM     30  C   UNL     1      -2.409  12.835  21.090  0.00  0.00    +0.000 A 
ATOM     31  C   UNL     1      -2.981  12.723  22.355  0.00  0.00    +0.000 A 
ATOM     32  C   UNL     1      -2.413  11.873  23.302  0.00  0.00    +0.000 A 
ATOM     33  C   UNL     1      -1.278  11.124  22.979  0.00  0.00    +0.000 A 
ENDBRANCH  27  28
ENDBRANCH  26  27
ENDBRANCH  25  26
ENDBRANCH  23  25
ENDBRANCH  22  23
BRANCH  22  34
ATOM     34  C   UNL     1       2.322   5.132  20.714  0.00  0.00    +0.000 C 
BRANCH  34  35
ATOM     35  C   UNL     1       1.847   3.719  20.428  0.00  0.00    +0.000 C 
ATOM     36  O   UNL     1       0.802   3.226  20.809  0.00  0.00    +0.000 OA
BRANCH  35  37
ATOM     37  O   UNL     1       2.794   2.993  19.780  0.00  0.00    +0.000 OA
ATOM     38  H   UNL     1       2.599   2.042  19.684  0.00  0.00    +0.000 HD
ENDBRANCH  35  37
ENDBRANCH  34  35
ENDBRANCH  22  34
ENDBRANCH   3  22
TORSDOF 15
ENDMDL
MODEL 5
REMARK VINA RESULT:      -7.1      3.281      7.876
REMARK  Name = 
REMARK  17 active torsions:
REMARK  status: ('A' for Active; 'I' for Inactive)
REMARK    1  A    between atoms: C_1  and  C_2
REMARK    2  A    between atoms: C_2  and  C_3
REMARK    3  A    between atoms: C_2  and  C_4
REMARK    4  A    between atoms: C_4  and  N_5
REMARK    5  A    between atoms: C_4  and  C_16
REMARK    6  A    between atoms: C_6  and  C_8
REMARK    7  A    between atoms: C_8  and  O_9
REMARK    8  A    between atoms: C_8  and  C_10
REMARK    9  A    between atoms: N_18  and  C_19
REMARK   10  A    between atoms: C_19  and  C_20
REMARK   11  A    between atoms: C_19  and  C_24
REMARK   12  A    between atoms: C_20  and  C_21
REMARK   13  A    between atoms: C_21  and  O_23
REMARK   14  A    between atoms: C_24  and  C_26
REMARK   15  A    between atoms: C_26  and  S_27
REMARK   16  A    between atoms: S_27  and  C_28
REMARK   17  A    between atoms: C_28  and  C_29
REMARK                            x       y       z     vdW  Elec       q    Type
REMARK                         _______ _______ _______ _____ _____    ______ ____
ROOT
ATOM      1  C   UNL     1       4.113   5.419  19.585  0.00  0.00    +0.000 C 
ATOM      2  O   UNL     1       4.553   4.492  20.264  0.00  0.00    +0.000 OA
ATOM      3  N   UNL     1       4.890   6.108  18.680  0.00  0.00    +0.000 N 
ATOM      4  H   UNL     1       4.442   6.788  18.071  0.00  0.00    +0.000 HD
ENDROOT
BRANCH   1   5
ATOM      5  C   UNL     1       2.633   5.857  19.659  0.00  0.00    +0.000 C 
BRANCH   5   6
ATOM      6  N   UNL     1       2.488   7.115  18.921  0.00  0.00    +0.000 N 
ATOM      7  C   UNL     1       1.823   8.201  19.459  0.00  0.00    +0.000 C 
ATOM      8  O   UNL     1       1.353   8.174  20.597  0.00  0.00    +0.000 OA
ATOM      9  H   UNL     1       2.964   7.201  18.028  0.00  0.00    +0.000 HD
BRANCH   7  10
ATOM     10  C   UNL     1       1.703   9.446  18.551  0.00  0.00    +0.000 C 
BRANCH  10  11
ATOM     11  C   UNL     1       0.344  10.128  18.554  0.00  0.00    +0.000 A 
ATOM     12  C   UNL     1       0.057  11.235  19.364  0.00  0.00    +0.000 A 
ATOM     13  C   UNL     1      -1.200  11.840  19.332  0.00  0.00    +0.000 A 
ATOM     14  C   UNL     1      -2.194  11.353  18.487  0.00  0.00    +0.000 A 
ATOM     15  C   UNL     1      -1.933  10.247  17.681  0.00  0.00    +0.000 A 
ATOM     16  C   UNL     1      -0.677   9.635  17.716  0.00  0.00    +0.000 A 
ENDBRANCH  10  11
BRANCH  10  17
ATOM     17  O   UNL     1       2.001   9.077  17.202  0.00  0.00    +0.000 OA
ATOM     18  H   UNL     1       2.265   9.910  16.768  0.00  0.00    +0.000 HD
ENDBRANCH  10  17
ENDBRANCH   7  10
ENDBRANCH   5   6
BRANCH   5  20
ATOM     19  C   UNL     1       1.860   3.440  19.900  0.00  0.00    +0.000 C 
ATOM     20  C   UNL     1       1.683   4.753  19.128  0.00  0.00    +0.000 C 
ATOM     21  C   UNL     1       1.819   4.492  17.622  0.00  0.00    +0.000 C 
ENDBRANCH   5  20
ENDBRANCH   1   5
BRANCH   3  22
ATOM     22  C   UNL     1       6.274   5.735  18.381  0.00  0.00    +0.000 C 
BRANCH  22  23
ATOM     23  C   UNL     1       6.960   6.918  17.674  0.00  0.00    +0.000 C 
ATOM     24  O   UNL     1       6.520   7.390  16.619  0.00  0.00    +0.000 OA
BRANCH  23  25
ATOM     25  C   UNL     1       8.172   7.543  18.314  0.00  0.00    +0.000 C 
BRANCH  25  26
ATOM     26  S   UNL     1       8.299   9.312  17.930  0.00  0.00    +0.000 S 
BRANCH  26  27
ATOM     27  C   UNL     1       9.180   9.925  19.415  0.00  0.00    +0.000 C 
BRANCH  27  28
ATOM     28  C   UNL     1      10.108  11.066  19.058  0.00  0.00    +0.000 A 
ATOM     29  C   UNL     1      11.127  11.466  19.936  0.00  0.00    +0.000 A 
ATOM     30  C   UNL     1      11.996  12.505  19.594  0.00  0.00    +0.000 A 
ATOM     31  C   UNL     1      11.857  13.158  18.371  0.00  0.00    +0.000 A 
ATOM     32  C   UNL     1      10.838  12.786  17.498  0.00  0.00    +0.000 A 
ATOM     33  C   UNL     1       9.963  11.752  17.843  0.00  0.00    +0.000 A 
ENDBRANCH  27  28
ENDBRANCH  26  27
ENDBRANCH  25  26
ENDBRANCH  23  25
ENDBRANCH  22  23
BRANCH  22  34
ATOM     34  C   UNL     1       6.435   4.449  17.550  0.00  0.00    +0.000 C 
BRANCH  34  35
ATOM     35  C   UNL     1       5.244   4.128  16.665  0.00  0.00    +0.000 C 
ATOM     36  O   UNL     1       4.785   4.847  15.798  0.00  0.00    +0.000 OA
BRANCH  35  37
ATOM     37  O   UNL     1       4.647   2.964  17.030  0.00  0.00    +0.000 OA
ATOM     38  H   UNL     1       3.673   2.986  17.060  0.00  0.00    +0.000 HD
ENDBRANCH  35  37
ENDBRANCH  34  35
ENDBRANCH  22  34
ENDBRANCH   3  22
TORSDOF 15
ENDMDL
MODEL 6
REMARK VINA RESULT:      -7.0      3.466      7.980
REMARK  Name = 
REMARK  17 active torsions:
REMARK  status: ('A' for Active; 'I' for Inactive)
REMARK    1  A    between atoms: C_1  and  C_2
REMARK    2  A    between atoms: C_2  and  C_3
REMARK    3  A    between atoms: C_2  and  C_4
REMARK    4  A    between atoms: C_4  and  N_5
REMARK    5  A    between atoms: C_4  and  C_16
REMARK    6  A    between atoms: C_6  and  C_8
REMARK    7  A    between atoms: C_8  and  O_9
REMARK    8  A    between atoms: C_8  and  C_10
REMARK    9  A    between atoms: N_18  and  C_19
REMARK   10  A    between atoms: C_19  and  C_20
REMARK   11  A    between atoms: C_19  and  C_24
REMARK   12  A    between atoms: C_20  and  C_21
REMARK   13  A    between atoms: C_21  and  O_23
REMARK   14  A    between atoms: C_24  and  C_26
REMARK   15  A    between atoms: C_26  and  S_27
REMARK   16  A    between atoms: S_27  and  C_28
REMARK   17  A    between atoms: C_28  and  C_29
REMARK                            x       y       z     vdW  Elec       q    Type
REMARK                         _______ _______ _______ _____ _____    ______ ____
ROOT
ATOM      1  C   UNL     1       4.583   5.125  18.978  0.00  0.00    +0.000 C 
ATOM      2  O   UNL     1       5.053   4.004  19.165  0.00  0.00    +0.000 OA
ATOM      3  N   UNL     1       5.272   6.113  18.308  0.00  0.00    +0.000 N 
ATOM      4  H   UNL     1       4.789   6.981  18.090  0.00  0.00    +0.000 HD
ENDROOT
BRANCH   1   5
ATOM      5  C   UNL     1       3.158   5.504  19.438  0.00  0.00    +0.000 C 
BRANCH   5   6
ATOM      6  N   UNL     1       2.783   6.762  18.786  0.00  0.00    +0.000 N 
ATOM      7  C   UNL     1       2.069   7.741  19.452  0.00  0.00    +0.000 C 
ATOM      8  O   UNL     1       1.746   7.617  20.634  0.00  0.00    +0.000 OA
ATOM      9  H   UNL     1       3.134   6.936  17.849  0.00  0.00    +0.000 HD
BRANCH   7  10
ATOM     10  C   UNL     1       1.699   8.996  18.628  0.00  0.00    +0.000 C 
BRANCH  10  11
ATOM     11  C   UNL     1       0.643   9.897  19.248  0.00  0.00    +0.000 A 
ATOM     12  C   UNL     1      -0.563  10.199  18.602  0.00  0.00    +0.000 A 
ATOM     13  C   UNL     1      -1.513  11.024  19.207  0.00  0.00    +0.000 A 
ATOM     14  C   UNL     1      -1.276  11.559  20.471  0.00  0.00    +0.000 A 
ATOM     15  C   UNL     1      -0.079  11.280  21.126  0.00  0.00    +0.000 A 
ATOM     16  C   UNL     1       0.876  10.460  20.519  0.00  0.00    +0.000 A 
ENDBRANCH  10  11
BRANCH  10  17
ATOM     17  O   UNL     1       1.223   8.591  17.341  0.00  0.00    +0.000 OA
ATOM     18  H   UNL     1       1.884   7.948  17.022  0.00  0.00    +0.000 HD
ENDBRANCH  10  17
ENDBRANCH   7  10
ENDBRANCH   5   6
BRANCH   5  20
ATOM     19  C   UNL     1       1.525   4.512  17.753  0.00  0.00    +0.000 C 
ATOM     20  C   UNL     1       2.143   4.369  19.149  0.00  0.00    +0.000 C 
ATOM     21  C   UNL     1       1.031   4.251  20.200  0.00  0.00    +0.000 C 
ENDBRANCH   5  20
ENDBRANCH   1   5
BRANCH   3  22
ATOM     22  C   UNL     1       6.576   5.884  17.683  0.00  0.00    +0.000 C 
BRANCH  22  23
ATOM     23  C   UNL     1       7.609   6.814  18.347  0.00  0.00    +0.000 C 
ATOM     24  O   UNL     1       8.283   6.450  19.318  0.00  0.00    +0.000 OA
BRANCH  23  25
ATOM     25  C   UNL     1       7.831   8.186  17.764  0.00  0.00    +0.000 C 
BRANCH  25  26
ATOM     26  S   UNL     1       8.875   9.211  18.837  0.00  0.00    +0.000 S 
BRANCH  26  27
ATOM     27  C   UNL     1       8.771  10.826  17.979  0.00  0.00    +0.000 C 
BRANCH  27  28
ATOM     28  C   UNL     1       9.866  11.758  18.450  0.00  0.00    +0.000 A 
ATOM     29  C   UNL     1      10.860  11.312  19.334  0.00  0.00    +0.000 A 
ATOM     30  C   UNL     1      11.883  12.169  19.749  0.00  0.00    +0.000 A 
ATOM     31  C   UNL     1      11.924  13.483  19.287  0.00  0.00    +0.000 A 
ATOM     32  C   UNL     1      10.933  13.946  18.425  0.00  0.00    +0.000 A 
ATOM     33  C   UNL     1       9.905  13.092  18.016  0.00  0.00    +0.000 A 
ENDBRANCH  27  28
ENDBRANCH  26  27
ENDBRANCH  25  26
ENDBRANCH  23  25
ENDBRANCH  22  23
BRANCH  22  34
ATOM     34  C   UNL     1       6.602   6.059  16.154  0.00  0.00    +0.000 C 
BRANCH  34  35
ATOM     35  C   UNL     1       6.860   4.776  15.386  0.00  0.00    +0.000 C 
ATOM     36  O   UNL     1       7.410   4.689  14.305  0.00  0.00    +0.000 OA
BRANCH  35  37
ATOM     37  O   UNL     1       6.289   3.704  15.994  0.00  0.00    +0.000 OA
ATOM     38  H   UNL     1       5.952   3.014  15.394  0.00  0.00    +0.000 HD
ENDBRANCH  35  37
ENDBRANCH  34  35
ENDBRANCH  22  34
ENDBRANCH   3  22
TORSDOF 15
ENDMDL
MODEL 7
REMARK VINA RESULT:      -7.0      2.799      7.750
REMARK  Name = 
REMARK  17 active torsions:
REMARK  status: ('A' for Active; 'I' for Inactive)
REMARK    1  A    between atoms: C_1  and  C_2
REMARK    2  A    between atoms: C_2  and  C_3
REMARK    3  A    between atoms: C_2  and  C_4
REMARK    4  A    between atoms: C_4  and  N_5
REMARK    5  A    between atoms: C_4  and  C_16
REMARK    6  A    between atoms: C_6  and  C_8
REMARK    7  A    between atoms: C_8  and  O_9
REMARK    8  A    between atoms: C_8  and  C_10
REMARK    9  A    between atoms: N_18  and  C_19
REMARK   10  A    between atoms: C_19  and  C_20
REMARK   11  A    between atoms: C_19  and  C_24
REMARK   12  A    between atoms: C_20  and  C_21
REMARK   13  A    between atoms: C_21  and  O_23
REMARK   14  A    between atoms: C_24  and  C_26
REMARK   15  A    between atoms: C_26  and  S_27
REMARK   16  A    between atoms: S_27  and  C_28
REMARK   17  A    between atoms: C_28  and  C_29
REMARK                            x       y       z     vdW  Elec       q    Type
REMARK                         _______ _______ _______ _____ _____    ______ ____
ROOT
ATOM      1  C   UNL     1       4.038   5.014  18.939  0.00  0.00    +0.000 C 
ATOM      2  O   UNL     1       4.512   3.974  19.396  0.00  0.00    +0.000 OA
ATOM      3  N   UNL     1       4.593   5.668  17.861  0.00  0.00    +0.000 N 
ATOM      4  H   UNL     1       4.094   6.459  17.462  0.00  0.00    +0.000 HD
ENDROOT
BRANCH   1   5
ATOM      5  C   UNL     1       2.749   5.646  19.510  0.00  0.00    +0.000 C 
BRANCH   5   6
ATOM      6  N   UNL     1       2.569   6.962  18.890  0.00  0.00    +0.000 N 
ATOM      7  C   UNL     1       1.912   7.990  19.541  0.00  0.00    +0.000 C 
ATOM      8  O   UNL     1       1.479   7.858  20.687  0.00  0.00    +0.000 OA
ATOM      9  H   UNL     1       3.016   7.132  17.993  0.00  0.00    +0.000 HD
BRANCH   7  10
ATOM     10  C   UNL     1       1.752   9.308  18.750  0.00  0.00    +0.000 C 
BRANCH  10  11
ATOM     11  C   UNL     1       0.529  10.138  19.105  0.00  0.00    +0.000 A 
ATOM     12  C   UNL     1      -0.645  10.117  18.339  0.00  0.00    +0.000 A 
ATOM     13  C   UNL     1      -1.751  10.887  18.703  0.00  0.00    +0.000 A 
ATOM     14  C   UNL     1      -1.706  11.690  19.840  0.00  0.00    +0.000 A 
ATOM     15  C   UNL     1      -0.546  11.733  20.609  0.00  0.00    +0.000 A 
ATOM     16  C   UNL     1       0.565  10.969  20.244  0.00  0.00    +0.000 A 
ENDBRANCH  10  11
BRANCH  10  17
ATOM     17  O   UNL     1       1.686   9.014  17.352  0.00  0.00    +0.000 OA
ATOM     18  H   UNL     1       1.293   9.811  16.948  0.00  0.00    +0.000 HD
ENDBRANCH  10  17
ENDBRANCH   7  10
ENDBRANCH   5   6
BRANCH   5  20
ATOM     19  C   UNL     1       1.320   3.777  20.486  0.00  0.00    +0.000 C 
ATOM     20  C   UNL     1       1.519   4.727  19.300  0.00  0.00    +0.000 C 
ATOM     21  C   UNL     1       1.564   3.923  17.994  0.00  0.00    +0.000 C 
ENDBRANCH   5  20
ENDBRANCH   1   5
BRANCH   3  22
ATOM     22  C   UNL     1       5.732   5.134  17.112  0.00  0.00    +0.000 C 
BRANCH  22  23
ATOM     23  C   UNL     1       7.015   5.380  17.928  0.00  0.00    +0.000 C 
ATOM     24  O   UNL     1       7.874   4.502  18.070  0.00  0.00    +0.000 OA
BRANCH  23  25
ATOM     25  C   UNL     1       7.243   6.742  18.530  0.00  0.00    +0.000 C 
BRANCH  25  26
ATOM     26  S   UNL     1       8.298   7.775  17.474  0.00  0.00    +0.000 S 
BRANCH  26  27
ATOM     27  C   UNL     1       7.750   9.451  17.971  0.00  0.00    +0.000 C 
BRANCH  27  28
ATOM     28  C   UNL     1       8.907  10.257  18.517  0.00  0.00    +0.000 A 
ATOM     29  C   UNL     1       9.173  10.294  19.894  0.00  0.00    +0.000 A 
ATOM     30  C   UNL     1      10.257  11.021  20.393  0.00  0.00    +0.000 A 
ATOM     31  C   UNL     1      11.088  11.722  19.522  0.00  0.00    +0.000 A 
ATOM     32  C   UNL     1      10.825  11.712  18.154  0.00  0.00    +0.000 A 
ATOM     33  C   UNL     1       9.736  10.991  17.655  0.00  0.00    +0.000 A 
ENDBRANCH  27  28
ENDBRANCH  26  27
ENDBRANCH  25  26
ENDBRANCH  23  25
ENDBRANCH  22  23
BRANCH  22  34
ATOM     34  C   UNL     1       5.890   5.691  15.686  0.00  0.00    +0.000 C 
BRANCH  34  35
ATOM     35  C   UNL     1       6.599   4.753  14.727  0.00  0.00    +0.000 C 
ATOM     36  O   UNL     1       6.330   3.581  14.544  0.00  0.00    +0.000 OA
BRANCH  35  37
ATOM     37  O   UNL     1       7.681   5.344  14.156  0.00  0.00    +0.000 OA
ATOM     38  H   UNL     1       7.939   6.203  14.539  0.00  0.00    +0.000 HD
ENDBRANCH  35  37
ENDBRANCH  34  35
ENDBRANCH  22  34
ENDBRANCH   3  22
TORSDOF 15
ENDMDL
MODEL 8
REMARK VINA RESULT:      -6.9      2.480      4.419
REMARK  Name = 
REMARK  17 active torsions:
REMARK  status: ('A' for Active; 'I' for Inactive)
REMARK    1  A    between atoms: C_1  and  C_2
REMARK    2  A    between atoms: C_2  and  C_3
REMARK    3  A    between atoms: C_2  and  C_4
REMARK    4  A    between atoms: C_4  and  N_5
REMARK    5  A    between atoms: C_4  and  C_16
REMARK    6  A    between atoms: C_6  and  C_8
REMARK    7  A    between atoms: C_8  and  O_9
REMARK    8  A    between atoms: C_8  and  C_10
REMARK    9  A    between atoms: N_18  and  C_19
REMARK   10  A    between atoms: C_19  and  C_20
REMARK   11  A    between atoms: C_19  and  C_24
REMARK   12  A    between atoms: C_20  and  C_21
REMARK   13  A    between atoms: C_21  and  O_23
REMARK   14  A    between atoms: C_24  and  C_26
REMARK   15  A    between atoms: C_26  and  S_27
REMARK   16  A    between atoms: S_27  and  C_28
REMARK   17  A    between atoms: C_28  and  C_29
REMARK                            x       y       z     vdW  Elec       q    Type
REMARK                         _______ _______ _______ _____ _____    ______ ____
ROOT
ATOM      1  C   UNL     1       4.195   4.205  17.394  0.00  0.00    +0.000 C 
ATOM      2  O   UNL     1       3.549   3.561  16.568  0.00  0.00    +0.000 OA
ATOM      3  N   UNL     1       3.724   4.464  18.663  0.00  0.00    +0.000 N 
ATOM      4  H   UNL     1       4.348   4.905  19.334  0.00  0.00    +0.000 HD
ENDROOT
BRANCH   1   5
ATOM      5  C   UNL     1       5.613   4.737  17.090  0.00  0.00    +0.000 C 
BRANCH   5   6
ATOM      6  N   UNL     1       5.730   4.937  15.643  0.00  0.00    +0.000 N 
ATOM      7  C   UNL     1       6.927   4.750  14.977  0.00  0.00    +0.000 C 
ATOM      8  O   UNL     1       7.942   4.371  15.563  0.00  0.00    +0.000 OA
ATOM      9  H   UNL     1       4.882   5.138  15.120  0.00  0.00    +0.000 HD
BRANCH   7  10
ATOM     10  C   UNL     1       6.917   5.044  13.459  0.00  0.00    +0.000 C 
BRANCH  10  11
ATOM     11  C   UNL     1       6.603   3.855  12.565  0.00  0.00    +0.000 A 
ATOM     12  C   UNL     1       5.297   3.392  12.358  0.00  0.00    +0.000 A 
ATOM     13  C   UNL     1       5.048   2.302  11.522  0.00  0.00    +0.000 A 
ATOM     14  C   UNL     1       6.099   1.657  10.875  0.00  0.00    +0.000 A 
ATOM     15  C   UNL     1       7.405   2.095  11.076  0.00  0.00    +0.000 A 
ATOM     16  C   UNL     1       7.658   3.181  11.917  0.00  0.00    +0.000 A 
ENDBRANCH  10  11
BRANCH  10  17
ATOM     17  O   UNL     1       8.195   5.555  13.069  0.00  0.00    +0.000 OA
ATOM     18  H   UNL     1       8.786   5.343  13.816  0.00  0.00    +0.000 HD
ENDBRANCH  10  17
ENDBRANCH   7  10
ENDBRANCH   5   6
BRANCH   5  20
ATOM     19  C   UNL     1       6.440   7.144  16.970  0.00  0.00    +0.000 C 
ATOM     20  C   UNL     1       5.922   6.030  17.887  0.00  0.00    +0.000 C 
ATOM     21  C   UNL     1       6.899   5.820  19.052  0.00  0.00    +0.000 C 
ENDBRANCH   5  20
ENDBRANCH   1   5
BRANCH   3  22
ATOM     22  C   UNL     1       2.462   3.916  19.165  0.00  0.00    +0.000 C 
BRANCH  22  23
ATOM     23  C   UNL     1       1.827   4.943  20.121  0.00  0.00    +0.000 C 
ATOM     24  O   UNL     1       0.973   4.617  20.954  0.00  0.00    +0.000 OA
BRANCH  23  25
ATOM     25  C   UNL     1       2.298   6.374  20.067  0.00  0.00    +0.000 C 
BRANCH  25  26
ATOM     26  S   UNL     1       1.396   7.423  21.241  0.00  0.00    +0.000 S 
BRANCH  26  27
ATOM     27  C   UNL     1       1.115   8.919  20.221  0.00  0.00    +0.000 C 
BRANCH  27  28
ATOM     28  C   UNL     1       0.419   9.996  21.024  0.00  0.00    +0.000 A 
ATOM     29  C   UNL     1      -0.315   9.674  22.176  0.00  0.00    +0.000 A 
ATOM     30  C   UNL     1      -0.938  10.673  22.928  0.00  0.00    +0.000 A 
ATOM     31  C   UNL     1      -0.837  12.006  22.538  0.00  0.00    +0.000 A 
ATOM     32  C   UNL     1      -0.129  12.340  21.385  0.00  0.00    +0.000 A 
ATOM     33  C   UNL     1       0.488  11.340  20.628  0.00  0.00    +0.000 A 
ENDBRANCH  27  28
ENDBRANCH  26  27
ENDBRANCH  25  26
ENDBRANCH  23  25
ENDBRANCH  22  23
BRANCH  22  34
ATOM     34  C   UNL     1       2.577   2.544  19.852  0.00  0.00    +0.000 C 
BRANCH  34  35
ATOM     35  C   UNL     1       3.940   1.892  19.712  0.00  0.00    +0.000 C 
ATOM     36  O   UNL     1       4.900   2.081  20.436  0.00  0.00    +0.000 OA
BRANCH  35  37
ATOM     37  O   UNL     1       4.021   1.136  18.586  0.00  0.00    +0.000 OA
ATOM     38  H   UNL     1       4.899   0.752  18.404  0.00  0.00    +0.000 HD
ENDBRANCH  35  37
ENDBRANCH  34  35
ENDBRANCH  22  34
ENDBRANCH   3  22
TORSDOF 15
ENDMDL
MODEL 9
REMARK VINA RESULT:      -6.9      2.540      4.581
REMARK  Name = 
REMARK  17 active torsions:
REMARK  status: ('A' for Active; 'I' for Inactive)
REMARK    1  A    between atoms: C_1  and  C_2
REMARK    2  A    between atoms: C_2  and  C_3
REMARK    3  A    between atoms: C_2  and  C_4
REMARK    4  A    between atoms: C_4  and  N_5
REMARK    5  A    between atoms: C_4  and  C_16
REMARK    6  A    between atoms: C_6  and  C_8
REMARK    7  A    between atoms: C_8  and  O_9
REMARK    8  A    between atoms: C_8  and  C_10
REMARK    9  A    between atoms: N_18  and  C_19
REMARK   10  A    between atoms: C_19  and  C_20
REMARK   11  A    between atoms: C_19  and  C_24
REMARK   12  A    between atoms: C_20  and  C_21
REMARK   13  A    between atoms: C_21  and  O_23
REMARK   14  A    between atoms: C_24  and  C_26
REMARK   15  A    between atoms: C_26  and  S_27
REMARK   16  A    between atoms: S_27  and  C_28
REMARK   17  A    between atoms: C_28  and  C_29
REMARK                            x       y       z     vdW  Elec       q    Type
REMARK                         _______ _______ _______ _____ _____    ______ ____
ROOT
ATOM      1  C   UNL     1       4.809   6.128  17.376  0.00  0.00    +0.000 C 
ATOM      2  O   UNL     1       4.520   7.295  17.111  0.00  0.00    +0.000 OA
ATOM      3  N   UNL     1       3.914   5.258  17.959  0.00  0.00    +0.000 N 
ATOM      4  H   UNL     1       4.175   4.280  18.051  0.00  0.00    +0.000 HD
ENDROOT
BRANCH   1   5
ATOM      5  C   UNL     1       6.190   5.529  17.030  0.00  0.00    +0.000 C 
BRANCH   5   6
ATOM      6  N   UNL     1       6.388   5.633  15.582  0.00  0.00    +0.000 N 
ATOM      7  C   UNL     1       6.289   4.531  14.753  0.00  0.00    +0.000 C 
ATOM      8  O   UNL     1       5.995   3.417  15.189  0.00  0.00    +0.000 OA
ATOM      9  H   UNL     1       6.519   6.559  15.184  0.00  0.00    +0.000 HD
BRANCH   7  10
ATOM     10  C   UNL     1       6.570   4.777  13.253  0.00  0.00    +0.000 C 
BRANCH  10  11
ATOM     11  C   UNL     1       6.443   3.557  12.356  0.00  0.00    +0.000 A 
ATOM     12  C   UNL     1       5.205   2.994  12.019  0.00  0.00    +0.000 A 
ATOM     13  C   UNL     1       5.129   1.878  11.184  0.00  0.00    +0.000 A 
ATOM     14  C   UNL     1       6.288   1.305  10.667  0.00  0.00    +0.000 A 
ATOM     15  C   UNL     1       7.530   1.843  10.998  0.00  0.00    +0.000 A 
ATOM     16  C   UNL     1       7.610   2.956  11.839  0.00  0.00    +0.000 A 
ENDBRANCH  10  11
BRANCH  10  17
ATOM     17  O   UNL     1       7.895   5.293  13.100  0.00  0.00    +0.000 OA
ATOM     18  H   UNL     1       8.370   4.613  12.586  0.00  0.00    +0.000 HD
ENDBRANCH  10  17
ENDBRANCH   7  10
ENDBRANCH   5   6
BRANCH   5  20
ATOM     19  C   UNL     1       7.281   5.836  19.313  0.00  0.00    +0.000 C 
ATOM     20  C   UNL     1       7.328   6.216  17.828  0.00  0.00    +0.000 C 
ATOM     21  C   UNL     1       7.349   7.743  17.684  0.00  0.00    +0.000 C 
ENDBRANCH   5  20
ENDBRANCH   1   5
BRANCH   3  22
ATOM     22  C   UNL     1       2.519   5.618  18.224  0.00  0.00    +0.000 C 
BRANCH  22  23
ATOM     23  C   UNL     1       2.414   6.140  19.669  0.00  0.00    +0.000 C 
ATOM     24  O   UNL     1       2.548   5.391  20.644  0.00  0.00    +0.000 OA
BRANCH  23  25
ATOM     25  C   UNL     1       2.186   7.613  19.894  0.00  0.00    +0.000 C 
BRANCH  25  26
ATOM     26  S   UNL     1       0.856   7.912  21.092  0.00  0.00    +0.000 S 
BRANCH  26  27
ATOM     27  C   UNL     1       1.090   9.697  21.429  0.00  0.00    +0.000 C 
BRANCH  27  28
ATOM     28  C   UNL     1       0.269  10.538  20.476  0.00  0.00    +0.000 A 
ATOM     29  C   UNL     1       0.367  11.938  20.485  0.00  0.00    +0.000 A 
ATOM     30  C   UNL     1      -0.375  12.711  19.588  0.00  0.00    +0.000 A 
ATOM     31  C   UNL     1      -1.225  12.094  18.673  0.00  0.00    +0.000 A 
ATOM     32  C   UNL     1      -1.349  10.707  18.666  0.00  0.00    +0.000 A 
ATOM     33  C   UNL     1      -0.612   9.933  19.568  0.00  0.00    +0.000 A 
ENDBRANCH  27  28
ENDBRANCH  26  27
ENDBRANCH  25  26
ENDBRANCH  23  25
ENDBRANCH  22  23
BRANCH  22  34
ATOM     34  C   UNL     1       1.501   4.488  17.988  0.00  0.00    +0.000 C 
BRANCH  34  35
ATOM     35  C   UNL     1       2.037   3.098  18.277  0.00  0.00    +0.000 C 
ATOM     36  O   UNL     1       2.629   2.383  17.490  0.00  0.00    +0.000 OA
BRANCH  35  37
ATOM     37  O   UNL     1       1.675   2.667  19.513  0.00  0.00    +0.000 OA
ATOM     38  H   UNL     1       1.921   3.257  20.249  0.00  0.00    +0.000 HD
ENDBRANCH  35  37
ENDBRANCH  34  35
ENDBRANCH  22  34
ENDBRANCH   3  22
TORSDOF 15
ENDMDL
