MODEL 1
REMARK VINA RESULT:      -7.9      0.000      0.000
REMARK  Name = 
REMARK  7 active torsions:
REMARK  status: ('A' for Active; 'I' for Inactive)
REMARK    1  A    between atoms: C_1  and  O_2
REMARK    2  A    between atoms: O_2  and  C_3
REMARK    3  A    between atoms: C_6  and  O_7
REMARK    4  A    between atoms: O_7  and  C_8
REMARK    5  A    between atoms: C_9  and  C_10
REMARK    6  A    between atoms: C_12  and  C_13
REMARK    7  A    between atoms: N_18  and  C_19
REMARK                            x       y       z     vdW  Elec       q    Type
REMARK                         _______ _______ _______ _____ _____    ______ ____
ROOT
ATOM      1  C   UNL     1       2.419   7.611  18.175  0.00  0.00    +0.000 A 
ATOM      2  C   UNL     1       1.798   8.167  19.267  0.00  0.00    +0.000 A 
ATOM      3  C   UNL     1       1.493   9.503  18.891  0.00  0.00    +0.000 A 
ATOM      4  N   UNL     1       1.877   9.726  17.626  0.00  0.00    +0.000 NA
ATOM      5  O   UNL     1       2.483   8.567  17.202  0.00  0.00    +0.000 OA
ENDROOT
BRANCH   3   6
ATOM      6  C   UNL     1       0.790  10.479  19.727  0.00  0.00    +0.000 C 
ATOM      7  O   UNL     1       1.453  11.286  20.383  0.00  0.00    +0.000 OA
ATOM      8  N   UNL     1      -0.606  10.531  19.728  0.00  0.00    +0.000 N 
ATOM      9  C   UNL     1      -1.258  11.634  20.446  0.00  0.00    +0.000 C 
ATOM     10  C   UNL     1      -2.002  12.550  19.462  0.00  0.00    +0.000 C 
ATOM     11  N   UNL     1      -2.957  11.757  18.664  0.00  0.00    +0.000 N 
ATOM     12  C   UNL     1      -2.377  10.610  17.948  0.00  0.00    +0.000 C 
ATOM     13  C   UNL     1      -1.536   9.736  18.905  0.00  0.00    +0.000 C 
BRANCH  11  14
ATOM     14  C   UNL     1      -4.318  11.980  18.697  0.00  0.00    +0.000 A 
ATOM     15  C   UNL     1      -4.957  12.423  19.866  0.00  0.00    +0.000 A 
ATOM     16  C   UNL     1      -6.342  12.626  19.919  0.00  0.00    +0.000 A 
ATOM     17  C   UNL     1      -7.123  12.392  18.794  0.00  0.00    +0.000 A 
ATOM     18  C   UNL     1      -6.518  11.963  17.619  0.00  0.00    +0.000 A 
ATOM     19  C   UNL     1      -5.134  11.764  17.577  0.00  0.00    +0.000 A 
ENDBRANCH  11  14
ENDBRANCH   3   6
BRANCH   1  24
ATOM     20  C   UNL     1       2.508   3.883  17.664  0.00  0.00    +0.000 A 
ATOM     21  C   UNL     1       3.847   3.675  17.352  0.00  0.00    +0.000 A 
ATOM     22  C   UNL     1       4.727   4.753  17.240  0.00  0.00    +0.000 A 
ATOM     23  C   UNL     1       4.288   6.061  17.485  0.00  0.00    +0.000 A 
ATOM     24  C   UNL     1       2.934   6.291  17.807  0.00  0.00    +0.000 A 
ATOM     25  C   UNL     1       2.058   5.186  17.860  0.00  0.00    +0.000 A 
BRANCH  20  27
ATOM     26  C   UNL     1       0.961   2.613  18.945  0.00  0.00    +0.000 C 
ATOM     27  O   UNL     1       1.750   2.752  17.767  0.00  0.00    +0.000 OA
ENDBRANCH  20  27
BRANCH  23  28
ATOM     28  O   UNL     1       5.124   7.143  17.374  0.00  0.00    +0.000 OA
ATOM     29  C   UNL     1       6.517   6.848  17.336  0.00  0.00    +0.000 C 
ENDBRANCH  23  28
ENDBRANCH   1  24
TORSDOF 5
ENDMDL
MODEL 2
REMARK VINA RESULT:      -7.8      1.100      1.133
REMARK  Name = 
REMARK  7 active torsions:
REMARK  status: ('A' for Active; 'I' for Inactive)
REMARK    1  A    between atoms: C_1  and  O_2
REMARK    2  A    between atoms: O_2  and  C_3
REMARK    3  A    between atoms: C_6  and  O_7
REMARK    4  A    between atoms: O_7  and  C_8
REMARK    5  A    between atoms: C_9  and  C_10
REMARK    6  A    between atoms: C_12  and  C_13
REMARK    7  A    between atoms: N_18  and  C_19
REMARK                            x       y       z     vdW  Elec       q    Type
REMARK                         _______ _______ _______ _____ _____    ______ ____
ROOT
ATOM      1  C   UNL     1       2.473   7.140  18.339  0.00  0.00    +0.000 A 
ATOM      2  C   UNL     1       2.108   8.349  17.799  0.00  0.00    +0.000 A 
ATOM      3  C   UNL     1       1.682   9.143  18.898  0.00  0.00    +0.000 A 
ATOM      4  N   UNL     1       1.819   8.458  20.043  0.00  0.00    +0.000 NA
ATOM      5  O   UNL     1       2.270   7.209  19.689  0.00  0.00    +0.000 OA
ENDROOT
BRANCH   3   6
ATOM      6  C   UNL     1       1.232  10.534  18.814  0.00  0.00    +0.000 C 
ATOM      7  O   UNL     1       2.036  11.398  18.458  0.00  0.00    +0.000 OA
ATOM      8  N   UNL     1      -0.101  10.861  19.074  0.00  0.00    +0.000 N 
ATOM      9  C   UNL     1      -0.542  12.238  18.810  0.00  0.00    +0.000 C 
ATOM     10  C   UNL     1      -1.572  12.262  17.670  0.00  0.00    +0.000 C 
ATOM     11  N   UNL     1      -2.697  11.365  17.992  0.00  0.00    +0.000 N 
ATOM     12  C   UNL     1      -2.325   9.976  18.306  0.00  0.00    +0.000 C 
ATOM     13  C   UNL     1      -1.211   9.939  19.378  0.00  0.00    +0.000 C 
BRANCH  11  14
ATOM     14  C   UNL     1      -3.993  11.818  18.133  0.00  0.00    +0.000 A 
ATOM     15  C   UNL     1      -4.476  12.273  19.370  0.00  0.00    +0.000 A 
ATOM     16  C   UNL     1      -5.797  12.710  19.532  0.00  0.00    +0.000 A 
ATOM     17  C   UNL     1      -6.669  12.705  18.450  0.00  0.00    +0.000 A 
ATOM     18  C   UNL     1      -6.216  12.270  17.210  0.00  0.00    +0.000 A 
ATOM     19  C   UNL     1      -4.895  11.837  17.060  0.00  0.00    +0.000 A 
ENDBRANCH  11  14
ENDBRANCH   3   6
BRANCH   1  24
ATOM     20  C   UNL     1       2.851   3.459  17.648  0.00  0.00    +0.000 A 
ATOM     21  C   UNL     1       4.149   3.398  17.155  0.00  0.00    +0.000 A 
ATOM     22  C   UNL     1       4.899   4.563  16.980  0.00  0.00    +0.000 A 
ATOM     23  C   UNL     1       4.373   5.811  17.340  0.00  0.00    +0.000 A 
ATOM     24  C   UNL     1       3.059   5.892  17.846  0.00  0.00    +0.000 A 
ATOM     25  C   UNL     1       2.307   4.703  17.961  0.00  0.00    +0.000 A 
BRANCH  20  27
ATOM     26  C   UNL     1       1.138   2.205  18.716  0.00  0.00    +0.000 C 
ATOM     27  O   UNL     1       2.225   2.255  17.796  0.00  0.00    +0.000 OA
ENDBRANCH  20  27
BRANCH  23  28
ATOM     28  O   UNL     1       5.079   6.975  17.172  0.00  0.00    +0.000 OA
ATOM     29  C   UNL     1       6.496   6.858  17.257  0.00  0.00    +0.000 C 
ENDBRANCH  23  28
ENDBRANCH   1  24
TORSDOF 5
ENDMDL
MODEL 3
REMARK VINA RESULT:      -7.7      1.116      2.544
REMARK  Name = 
REMARK  7 active torsions:
REMARK  status: ('A' for Active; 'I' for Inactive)
REMARK    1  A    between atoms: C_1  and  O_2
REMARK    2  A    between atoms: O_2  and  C_3
REMARK    3  A    between atoms: C_6  and  O_7
REMARK    4  A    between atoms: O_7  and  C_8
REMARK    5  A    between atoms: C_9  and  C_10
REMARK    6  A    between atoms: C_12  and  C_13
REMARK    7  A    between atoms: N_18  and  C_19
REMARK                            x       y       z     vdW  Elec       q    Type
REMARK                         _______ _______ _______ _____ _____    ______ ____
ROOT
ATOM      1  C   UNL     1       2.660   7.857  18.128  0.00  0.00    +0.000 A 
ATOM      2  C   UNL     1       2.012   8.277  19.265  0.00  0.00    +0.000 A 
ATOM      3  C   UNL     1       1.456   9.543  18.940  0.00  0.00    +0.000 A 
ATOM      4  N   UNL     1       1.724   9.851  17.663  0.00  0.00    +0.000 NA
ATOM      5  O   UNL     1       2.500   8.826  17.178  0.00  0.00    +0.000 OA
ENDROOT
BRANCH   3   6
ATOM      6  C   UNL     1       0.640  10.365  19.836  0.00  0.00    +0.000 C 
ATOM      7  O   UNL     1       1.205  11.062  20.682  0.00  0.00    +0.000 OA
ATOM      8  N   UNL     1      -0.749  10.402  19.690  0.00  0.00    +0.000 N 
ATOM      9  C   UNL     1      -1.506  11.369  20.496  0.00  0.00    +0.000 C 
ATOM     10  C   UNL     1      -2.164  12.423  19.593  0.00  0.00    +0.000 C 
ATOM     11  N   UNL     1      -3.003  11.760  18.577  0.00  0.00    +0.000 N 
ATOM     12  C   UNL     1      -2.318  10.748  17.758  0.00  0.00    +0.000 C 
ATOM     13  C   UNL     1      -1.562   9.740  18.652  0.00  0.00    +0.000 C 
BRANCH  11  14
ATOM     14  C   UNL     1      -4.366  11.961  18.494  0.00  0.00    +0.000 A 
ATOM     15  C   UNL     1      -5.036  11.913  17.261  0.00  0.00    +0.000 A 
ATOM     16  C   UNL     1      -6.414  12.143  17.161  0.00  0.00    +0.000 A 
ATOM     17  C   UNL     1      -7.158  12.423  18.300  0.00  0.00    +0.000 A 
ATOM     18  C   UNL     1      -6.524  12.467  19.536  0.00  0.00    +0.000 A 
ATOM     19  C   UNL     1      -5.147  12.235  19.625  0.00  0.00    +0.000 A 
ENDBRANCH  11  14
ENDBRANCH   3   6
BRANCH   1  24
ATOM     20  C   UNL     1       5.156   5.711  16.304  0.00  0.00    +0.000 A 
ATOM     21  C   UNL     1       4.709   4.432  16.618  0.00  0.00    +0.000 A 
ATOM     22  C   UNL     1       3.627   4.249  17.481  0.00  0.00    +0.000 A 
ATOM     23  C   UNL     1       2.943   5.351  18.011  0.00  0.00    +0.000 A 
ATOM     24  C   UNL     1       3.379   6.656  17.700  0.00  0.00    +0.000 A 
ATOM     25  C   UNL     1       4.508   6.808  16.867  0.00  0.00    +0.000 A 
BRANCH  20  27
ATOM     26  C   UNL     1       6.491   4.580  14.695  0.00  0.00    +0.000 C 
ATOM     27  O   UNL     1       6.207   5.765  15.434  0.00  0.00    +0.000 OA
ENDBRANCH  20  27
BRANCH  23  28
ATOM     28  O   UNL     1       1.882   5.206  18.869  0.00  0.00    +0.000 OA
ATOM     29  C   UNL     1       2.175   4.580  20.115  0.00  0.00    +0.000 C 
ENDBRANCH  23  28
ENDBRANCH   1  24
TORSDOF 5
ENDMDL
MODEL 4
REMARK VINA RESULT:      -7.7      1.398      2.831
REMARK  Name = 
REMARK  7 active torsions:
REMARK  status: ('A' for Active; 'I' for Inactive)
REMARK    1  A    between atoms: C_1  and  O_2
REMARK    2  A    between atoms: O_2  and  C_3
REMARK    3  A    between atoms: C_6  and  O_7
REMARK    4  A    between atoms: O_7  and  C_8
REMARK    5  A    between atoms: C_9  and  C_10
REMARK    6  A    between atoms: C_12  and  C_13
REMARK    7  A    between atoms: N_18  and  C_19
REMARK                            x       y       z     vdW  Elec       q    Type
REMARK                         _______ _______ _______ _____ _____    ______ ____
ROOT
ATOM      1  C   UNL     1       2.639   7.107  18.360  0.00  0.00    +0.000 A 
ATOM      2  C   UNL     1       2.338   8.327  17.806  0.00  0.00    +0.000 A 
ATOM      3  C   UNL     1       1.749   9.086  18.853  0.00  0.00    +0.000 A 
ATOM      4  N   UNL     1       1.731   8.372  19.987  0.00  0.00    +0.000 NA
ATOM      5  O   UNL     1       2.245   7.138  19.669  0.00  0.00    +0.000 OA
ENDROOT
BRANCH   3   6
ATOM      6  C   UNL     1       1.296  10.475  18.741  0.00  0.00    +0.000 C 
ATOM      7  O   UNL     1       2.095  11.330  18.353  0.00  0.00    +0.000 OA
ATOM      8  N   UNL     1      -0.033  10.808  19.012  0.00  0.00    +0.000 N 
ATOM      9  C   UNL     1      -0.479  12.177  18.721  0.00  0.00    +0.000 C 
ATOM     10  C   UNL     1      -1.525  12.173  17.596  0.00  0.00    +0.000 C 
ATOM     11  N   UNL     1      -2.645  11.283  17.956  0.00  0.00    +0.000 N 
ATOM     12  C   UNL     1      -2.266   9.903  18.299  0.00  0.00    +0.000 C 
ATOM     13  C   UNL     1      -1.138   9.892  19.354  0.00  0.00    +0.000 C 
BRANCH  11  14
ATOM     14  C   UNL     1      -3.938  11.739  18.105  0.00  0.00    +0.000 A 
ATOM     15  C   UNL     1      -4.820  11.804  17.014  0.00  0.00    +0.000 A 
ATOM     16  C   UNL     1      -6.127  12.291  17.149  0.00  0.00    +0.000 A 
ATOM     17  C   UNL     1      -6.584  12.724  18.387  0.00  0.00    +0.000 A 
ATOM     18  C   UNL     1      -5.737  12.662  19.488  0.00  0.00    +0.000 A 
ATOM     19  C   UNL     1      -4.435  12.173  19.342  0.00  0.00    +0.000 A 
ENDBRANCH  11  14
ENDBRANCH   3   6
BRANCH   1  24
ATOM     20  C   UNL     1       5.317   4.859  16.968  0.00  0.00    +0.000 A 
ATOM     21  C   UNL     1       4.636   3.653  16.849  0.00  0.00    +0.000 A 
ATOM     22  C   UNL     1       3.313   3.537  17.280  0.00  0.00    +0.000 A 
ATOM     23  C   UNL     1       2.633   4.646  17.799  0.00  0.00    +0.000 A 
ATOM     24  C   UNL     1       3.306   5.879  17.924  0.00  0.00    +0.000 A 
ATOM     25  C   UNL     1       4.658   5.951  17.529  0.00  0.00    +0.000 A 
BRANCH  20  27
ATOM     26  C   UNL     1       7.630   4.569  17.432  0.00  0.00    +0.000 C 
ATOM     27  O   UNL     1       6.597   4.857  16.494  0.00  0.00    +0.000 OA
ENDBRANCH  20  27
BRANCH  23  28
ATOM     28  O   UNL     1       1.336   4.564  18.241  0.00  0.00    +0.000 OA
ATOM     29  C   UNL     1       1.100   3.642  19.300  0.00  0.00    +0.000 C 
ENDBRANCH  23  28
ENDBRANCH   1  24
TORSDOF 5
ENDMDL
MODEL 5
REMARK VINA RESULT:      -7.4      2.830      4.332
REMARK  Name = 
REMARK  7 active torsions:
REMARK  status: ('A' for Active; 'I' for Inactive)
REMARK    1  A    between atoms: C_1  and  O_2
REMARK    2  A    between atoms: O_2  and  C_3
REMARK    3  A    between atoms: C_6  and  O_7
REMARK    4  A    between atoms: O_7  and  C_8
REMARK    5  A    between atoms: C_9  and  C_10
REMARK    6  A    between atoms: C_12  and  C_13
REMARK    7  A    between atoms: N_18  and  C_19
REMARK                            x       y       z     vdW  Elec       q    Type
REMARK                         _______ _______ _______ _____ _____    ______ ____
ROOT
ATOM      1  C   UNL     1       2.532   6.694  19.364  0.00  0.00    +0.000 A 
ATOM      2  C   UNL     1       2.229   7.852  18.690  0.00  0.00    +0.000 A 
ATOM      3  C   UNL     1       1.462   8.631  19.598  0.00  0.00    +0.000 A 
ATOM      4  N   UNL     1       1.343   7.990  20.769  0.00  0.00    +0.000 NA
ATOM      5  O   UNL     1       1.971   6.779  20.607  0.00  0.00    +0.000 OA
ENDROOT
BRANCH   3   6
ATOM      6  C   UNL     1       0.940   9.974  19.331  0.00  0.00    +0.000 C 
ATOM      7  O   UNL     1       0.775  10.325  18.160  0.00  0.00    +0.000 OA
ATOM      8  N   UNL     1       0.581  10.814  20.387  0.00  0.00    +0.000 N 
ATOM      9  C   UNL     1      -0.095  12.079  20.070  0.00  0.00    +0.000 C 
ATOM     10  C   UNL     1      -1.532  12.071  20.613  0.00  0.00    +0.000 C 
ATOM     11  N   UNL     1      -1.518  11.791  22.061  0.00  0.00    +0.000 N 
ATOM     12  C   UNL     1      -0.821  10.556  22.457  0.00  0.00    +0.000 C 
ATOM     13  C   UNL     1       0.589  10.500  21.829  0.00  0.00    +0.000 C 
BRANCH  11  14
ATOM     14  C   UNL     1      -1.993  12.687  22.996  0.00  0.00    +0.000 A 
ATOM     15  C   UNL     1      -3.266  12.540  23.570  0.00  0.00    +0.000 A 
ATOM     16  C   UNL     1      -3.768  13.459  24.499  0.00  0.00    +0.000 A 
ATOM     17  C   UNL     1      -3.002  14.553  24.881  0.00  0.00    +0.000 A 
ATOM     18  C   UNL     1      -1.733  14.720  24.338  0.00  0.00    +0.000 A 
ATOM     19  C   UNL     1      -1.241  13.795  23.411  0.00  0.00    +0.000 A 
ENDBRANCH  11  14
ENDBRANCH   3   6
BRANCH   1  24
ATOM     20  C   UNL     1       5.557   4.523  18.819  0.00  0.00    +0.000 A 
ATOM     21  C   UNL     1       4.976   3.330  18.406  0.00  0.00    +0.000 A 
ATOM     22  C   UNL     1       3.586   3.194  18.360  0.00  0.00    +0.000 A 
ATOM     23  C   UNL     1       2.753   4.272  18.686  0.00  0.00    +0.000 A 
ATOM     24  C   UNL     1       3.326   5.492  19.104  0.00  0.00    +0.000 A 
ATOM     25  C   UNL     1       4.731   5.581  19.190  0.00  0.00    +0.000 A 
BRANCH  20  27
ATOM     26  C   UNL     1       7.548   4.615  17.524  0.00  0.00    +0.000 C 
ATOM     27  O   UNL     1       6.922   4.544  18.802  0.00  0.00    +0.000 OA
ENDBRANCH  20  27
BRANCH  23  28
ATOM     28  O   UNL     1       1.386   4.170  18.661  0.00  0.00    +0.000 OA
ATOM     29  C   UNL     1       0.830   3.110  19.433  0.00  0.00    +0.000 C 
ENDBRANCH  23  28
ENDBRANCH   1  24
TORSDOF 5
ENDMDL
MODEL 6
REMARK VINA RESULT:      -7.4      7.112      9.981
REMARK  Name = 
REMARK  7 active torsions:
REMARK  status: ('A' for Active; 'I' for Inactive)
REMARK    1  A    between atoms: C_1  and  O_2
REMARK    2  A    between atoms: O_2  and  C_3
REMARK    3  A    between atoms: C_6  and  O_7
REMARK    4  A    between atoms: O_7  and  C_8
REMARK    5  A    between atoms: C_9  and  C_10
REMARK    6  A    between atoms: C_12  and  C_13
REMARK    7  A    between atoms: N_18  and  C_19
REMARK                            x       y       z     vdW  Elec       q    Type
REMARK                         _______ _______ _______ _____ _____    ______ ____
ROOT
ATOM      1  C   UNL     1       8.798   9.614  18.453  0.00  0.00    +0.000 A 
ATOM      2  C   UNL     1       8.075   9.090  17.410  0.00  0.00    +0.000 A 
ATOM      3  C   UNL     1       7.855   7.727  17.747  0.00  0.00    +0.000 A 
ATOM      4  N   UNL     1       8.385   7.458  18.949  0.00  0.00    +0.000 NA
ATOM      5  O   UNL     1       9.000   8.614  19.363  0.00  0.00    +0.000 OA
ENDROOT
BRANCH   3   6
ATOM      6  C   UNL     1       7.091   6.769  16.944  0.00  0.00    +0.000 C 
ATOM      7  O   UNL     1       7.617   6.285  15.939  0.00  0.00    +0.000 OA
ATOM      8  N   UNL     1       5.817   6.366  17.350  0.00  0.00    +0.000 N 
ATOM      9  C   UNL     1       5.164   5.278  16.609  0.00  0.00    +0.000 C 
ATOM     10  C   UNL     1       4.988   4.046  17.508  0.00  0.00    +0.000 C 
ATOM     11  N   UNL     1       4.247   4.417  18.729  0.00  0.00    +0.000 N 
ATOM     12  C   UNL     1       4.824   5.529  19.501  0.00  0.00    +0.000 C 
ATOM     13  C   UNL     1       5.106   6.742  18.586  0.00  0.00    +0.000 C 
BRANCH  11  14
ATOM     14  C   UNL     1       3.024   3.867  19.051  0.00  0.00    +0.000 A 
ATOM     15  C   UNL     1       2.383   4.170  20.263  0.00  0.00    +0.000 A 
ATOM     16  C   UNL     1       1.155   3.596  20.613  0.00  0.00    +0.000 A 
ATOM     17  C   UNL     1       0.533   2.702  19.750  0.00  0.00    +0.000 A 
ATOM     18  C   UNL     1       1.137   2.391  18.538  0.00  0.00    +0.000 A 
ATOM     19  C   UNL     1       2.364   2.970  18.198  0.00  0.00    +0.000 A 
ENDBRANCH  11  14
ENDBRANCH   3   6
BRANCH   1  24
ATOM     20  C   UNL     1      10.386  13.008  18.098  0.00  0.00    +0.000 A 
ATOM     21  C   UNL     1      10.533  13.390  19.426  0.00  0.00    +0.000 A 
ATOM     22  C   UNL     1      10.059  12.575  20.457  0.00  0.00    +0.000 A 
ATOM     23  C   UNL     1       9.466  11.338  20.173  0.00  0.00    +0.000 A 
ATOM     24  C   UNL     1       9.312  10.932  18.831  0.00  0.00    +0.000 A 
ATOM     25  C   UNL     1       9.754  11.801  17.810  0.00  0.00    +0.000 A 
BRANCH  20  27
ATOM     26  C   UNL     1      12.325  13.889  17.044  0.00  0.00    +0.000 C 
ATOM     27  O   UNL     1      10.907  13.874  17.180  0.00  0.00    +0.000 OA
ENDBRANCH  20  27
BRANCH  23  28
ATOM     28  O   UNL     1       8.982  10.518  21.160  0.00  0.00    +0.000 OA
ATOM     29  C   UNL     1       8.348  11.175  22.254  0.00  0.00    +0.000 C 
ENDBRANCH  23  28
ENDBRANCH   1  24
TORSDOF 5
ENDMDL
MODEL 7
REMARK VINA RESULT:      -7.2      2.600      4.235
REMARK  Name = 
REMARK  7 active torsions:
REMARK  status: ('A' for Active; 'I' for Inactive)
REMARK    1  A    between atoms: C_1  and  O_2
REMARK    2  A    between atoms: O_2  and  C_3
REMARK    3  A    between atoms: C_6  and  O_7
REMARK    4  A    between atoms: O_7  and  C_8
REMARK    5  A    between atoms: C_9  and  C_10
REMARK    6  A    between atoms: C_12  and  C_13
REMARK    7  A    between atoms: N_18  and  C_19
REMARK                            x       y       z     vdW  Elec       q    Type
REMARK                         _______ _______ _______ _____ _____    ______ ____
ROOT
ATOM      1  C   UNL     1       2.361   7.520  18.428  0.00  0.00    +0.000 A 
ATOM      2  C   UNL     1       1.634   8.518  17.827  0.00  0.00    +0.000 A 
ATOM      3  C   UNL     1       1.047   9.255  18.890  0.00  0.00    +0.000 A 
ATOM      4  N   UNL     1       1.432   8.749  20.070  0.00  0.00    +0.000 NA
ATOM      5  O   UNL     1       2.211   7.655  19.780  0.00  0.00    +0.000 OA
ENDROOT
BRANCH   3   6
ATOM      6  C   UNL     1       0.207  10.445  18.733  0.00  0.00    +0.000 C 
ATOM      7  O   UNL     1      -0.351  10.639  17.651  0.00  0.00    +0.000 OA
ATOM      8  N   UNL     1      -0.004  11.307  19.812  0.00  0.00    +0.000 N 
ATOM      9  C   UNL     1      -0.987  12.387  19.656  0.00  0.00    +0.000 C 
ATOM     10  C   UNL     1      -2.177  12.170  20.602  0.00  0.00    +0.000 C 
ATOM     11  N   UNL     1      -1.698  12.045  21.991  0.00  0.00    +0.000 N 
ATOM     12  C   UNL     1      -0.679  11.006  22.213  0.00  0.00    +0.000 C 
ATOM     13  C   UNL     1       0.477  11.147  21.197  0.00  0.00    +0.000 C 
BRANCH  11  14
ATOM     14  C   UNL     1      -2.062  12.929  22.985  0.00  0.00    +0.000 A 
ATOM     15  C   UNL     1      -1.193  13.943  23.416  0.00  0.00    +0.000 A 
ATOM     16  C   UNL     1      -1.542  14.829  24.443  0.00  0.00    +0.000 A 
ATOM     17  C   UNL     1      -2.780  14.721  25.065  0.00  0.00    +0.000 A 
ATOM     18  C   UNL     1      -3.666  13.733  24.653  0.00  0.00    +0.000 A 
ATOM     19  C   UNL     1      -3.308  12.854  23.626  0.00  0.00    +0.000 A 
ENDBRANCH  11  14
ENDBRANCH   3   6
BRANCH   1  24
ATOM     20  C   UNL     1       5.294   5.848  16.765  0.00  0.00    +0.000 A 
ATOM     21  C   UNL     1       4.963   4.504  16.896  0.00  0.00    +0.000 A 
ATOM     22  C   UNL     1       3.811   4.120  17.585  0.00  0.00    +0.000 A 
ATOM     23  C   UNL     1       2.944   5.083  18.118  0.00  0.00    +0.000 A 
ATOM     24  C   UNL     1       3.262   6.451  17.991  0.00  0.00    +0.000 A 
ATOM     25  C   UNL     1       4.459   6.806  17.335  0.00  0.00    +0.000 A 
BRANCH  20  27
ATOM     26  C   UNL     1       7.059   4.988  15.425  0.00  0.00    +0.000 C 
ATOM     27  O   UNL     1       6.431   6.103  16.052  0.00  0.00    +0.000 OA
ENDBRANCH  20  27
BRANCH  23  28
ATOM     28  O   UNL     1       1.810   4.740  18.809  0.00  0.00    +0.000 OA
ATOM     29  C   UNL     1       1.992   3.817  19.880  0.00  0.00    +0.000 C 
ENDBRANCH  23  28
ENDBRANCH   1  24
TORSDOF 5
ENDMDL
MODEL 8
REMARK VINA RESULT:      -7.2      3.124      5.253
REMARK  Name = 
REMARK  7 active torsions:
REMARK  status: ('A' for Active; 'I' for Inactive)
REMARK    1  A    between atoms: C_1  and  O_2
REMARK    2  A    between atoms: O_2  and  C_3
REMARK    3  A    between atoms: C_6  and  O_7
REMARK    4  A    between atoms: O_7  and  C_8
REMARK    5  A    between atoms: C_9  and  C_10
REMARK    6  A    between atoms: C_12  and  C_13
REMARK    7  A    between atoms: N_18  and  C_19
REMARK                            x       y       z     vdW  Elec       q    Type
REMARK                         _______ _______ _______ _____ _____    ______ ____
ROOT
ATOM      1  C   UNL     1       2.353   7.645  18.415  0.00  0.00    +0.000 A 
ATOM      2  C   UNL     1       1.528   8.559  17.807  0.00  0.00    +0.000 A 
ATOM      3  C   UNL     1       0.887   9.257  18.865  0.00  0.00    +0.000 A 
ATOM      4  N   UNL     1       1.332   8.811  20.048  0.00  0.00    +0.000 NA
ATOM      5  O   UNL     1       2.207   7.790  19.766  0.00  0.00    +0.000 OA
ENDROOT
BRANCH   3   6
ATOM      6  C   UNL     1      -0.064  10.359  18.700  0.00  0.00    +0.000 C 
ATOM      7  O   UNL     1      -1.270  10.104  18.673  0.00  0.00    +0.000 OA
ATOM      8  N   UNL     1       0.391  11.679  18.637  0.00  0.00    +0.000 N 
ATOM      9  C   UNL     1      -0.607  12.758  18.644  0.00  0.00    +0.000 C 
ATOM     10  C   UNL     1      -0.480  13.597  19.924  0.00  0.00    +0.000 C 
ATOM     11  N   UNL     1       0.898  14.107  20.055  0.00  0.00    +0.000 N 
ATOM     12  C   UNL     1       1.954  13.082  20.015  0.00  0.00    +0.000 C 
ATOM     13  C   UNL     1       1.776  12.161  18.787  0.00  0.00    +0.000 C 
BRANCH  11  14
ATOM     14  C   UNL     1       1.194  15.454  20.066  0.00  0.00    +0.000 A 
ATOM     15  C   UNL     1       1.334  16.181  18.873  0.00  0.00    +0.000 A 
ATOM     16  C   UNL     1       1.661  17.543  18.872  0.00  0.00    +0.000 A 
ATOM     17  C   UNL     1       1.854  18.213  20.074  0.00  0.00    +0.000 A 
ATOM     18  C   UNL     1       1.713  17.523  21.271  0.00  0.00    +0.000 A 
ATOM     19  C   UNL     1       1.385  16.163  21.261  0.00  0.00    +0.000 A 
ENDBRANCH  11  14
ENDBRANCH   3   6
BRANCH   1  24
ATOM     20  C   UNL     1       5.569   6.256  17.040  0.00  0.00    +0.000 A 
ATOM     21  C   UNL     1       5.261   4.906  16.916  0.00  0.00    +0.000 A 
ATOM     22  C   UNL     1       4.023   4.417  17.339  0.00  0.00    +0.000 A 
ATOM     23  C   UNL     1       3.052   5.285  17.854  0.00  0.00    +0.000 A 
ATOM     24  C   UNL     1       3.345   6.659  17.983  0.00  0.00    +0.000 A 
ATOM     25  C   UNL     1       4.623   7.114  17.596  0.00  0.00    +0.000 A 
BRANCH  20  27
ATOM     26  C   UNL     1       7.618   7.387  17.450  0.00  0.00    +0.000 C 
ATOM     27  O   UNL     1       6.799   6.619  16.573  0.00  0.00    +0.000 OA
ENDBRANCH  20  27
BRANCH  23  28
ATOM     28  O   UNL     1       1.830   4.837  18.288  0.00  0.00    +0.000 OA
ATOM     29  C   UNL     1       1.619   3.430  18.199  0.00  0.00    +0.000 C 
ENDBRANCH  23  28
ENDBRANCH   1  24
TORSDOF 5
ENDMDL
MODEL 9
REMARK VINA RESULT:      -7.2      2.673      3.295
REMARK  Name = 
REMARK  7 active torsions:
REMARK  status: ('A' for Active; 'I' for Inactive)
REMARK    1  A    between atoms: C_1  and  O_2
REMARK    2  A    between atoms: O_2  and  C_3
REMARK    3  A    between atoms: C_6  and  O_7
REMARK    4  A    between atoms: O_7  and  C_8
REMARK    5  A    between atoms: C_9  and  C_10
REMARK    6  A    between atoms: C_12  and  C_13
REMARK    7  A    between atoms: N_18  and  C_19
REMARK                            x       y       z     vdW  Elec       q    Type
REMARK                         _______ _______ _______ _____ _____    ______ ____
ROOT
ATOM      1  C   UNL     1       2.416   7.099  18.436  0.00  0.00    +0.000 A 
ATOM      2  C   UNL     1       2.161   8.357  17.948  0.00  0.00    +0.000 A 
ATOM      3  C   UNL     1       1.699   9.111  19.061  0.00  0.00    +0.000 A 
ATOM      4  N   UNL     1       1.713   8.354  20.168  0.00  0.00    +0.000 NA
ATOM      5  O   UNL     1       2.118   7.103  19.770  0.00  0.00    +0.000 OA
ENDROOT
BRANCH   3   6
ATOM      6  C   UNL     1       1.336  10.529  19.032  0.00  0.00    +0.000 C 
ATOM      7  O   UNL     1       1.410  11.139  17.963  0.00  0.00    +0.000 OA
ATOM      8  N   UNL     1       0.857  11.159  20.183  0.00  0.00    +0.000 N 
ATOM      9  C   UNL     1       0.345  12.530  20.063  0.00  0.00    +0.000 C 
ATOM     10  C   UNL     1      -1.162  12.569  20.356  0.00  0.00    +0.000 C 
ATOM     11  N   UNL     1      -1.429  11.986  21.685  0.00  0.00    +0.000 N 
ATOM     12  C   UNL     1      -0.908  10.625  21.890  0.00  0.00    +0.000 C 
ATOM     13  C   UNL     1       0.584  10.545  21.496  0.00  0.00    +0.000 C 
BRANCH  11  14
ATOM     14  C   UNL     1      -1.995  12.709  22.714  0.00  0.00    +0.000 A 
ATOM     15  C   UNL     1      -1.329  13.801  23.291  0.00  0.00    +0.000 A 
ATOM     16  C   UNL     1      -1.882  14.526  24.355  0.00  0.00    +0.000 A 
ATOM     17  C   UNL     1      -3.125  14.173  24.865  0.00  0.00    +0.000 A 
ATOM     18  C   UNL     1      -3.813  13.103  24.307  0.00  0.00    +0.000 A 
ATOM     19  C   UNL     1      -3.252  12.387  23.245  0.00  0.00    +0.000 A 
ENDBRANCH  11  14
ENDBRANCH   3   6
BRANCH   1  24
ATOM     20  C   UNL     1       2.739   3.415  17.734  0.00  0.00    +0.000 A 
ATOM     21  C   UNL     1       4.002   3.350  17.156  0.00  0.00    +0.000 A 
ATOM     22  C   UNL     1       4.741   4.513  16.927  0.00  0.00    +0.000 A 
ATOM     23  C   UNL     1       4.242   5.763  17.317  0.00  0.00    +0.000 A 
ATOM     24  C   UNL     1       2.965   5.848  17.909  0.00  0.00    +0.000 A 
ATOM     25  C   UNL     1       2.221   4.661  18.079  0.00  0.00    +0.000 A 
BRANCH  20  27
ATOM     26  C   UNL     1       1.049   2.185  18.864  0.00  0.00    +0.000 C 
ATOM     27  O   UNL     1       2.123   2.213  17.928  0.00  0.00    +0.000 OA
ENDBRANCH  20  27
BRANCH  23  28
ATOM     28  O   UNL     1       4.937   6.925  17.099  0.00  0.00    +0.000 OA
ATOM     29  C   UNL     1       6.346   6.850  17.296  0.00  0.00    +0.000 C 
ENDBRANCH  23  28
ENDBRANCH   1  24
TORSDOF 5
ENDMDL
