MODEL 1
REMARK VINA RESULT:      -8.1      0.000      0.000
REMARK  Name = 
REMARK  5 active torsions:
REMARK  status: ('A' for Active; 'I' for Inactive)
REMARK    1  A    between atoms: N_1  and  C_2
REMARK    2  A    between atoms: C_10  and  C_11
REMARK    3  A    between atoms: C_11  and  C_12
REMARK    4  A    between atoms: C_12  and  C_13
REMARK    5  A    between atoms: C_13  and  N_14
REMARK                            x       y       z     vdW  Elec       q    Type
REMARK                         _______ _______ _______ _____ _____    ______ ____
ROOT
ATOM      1  C   UNL     1      -0.454  10.406  21.376  0.00  0.00    +0.000 A 
ATOM      2  C   UNL     1      -0.085   9.370  22.268  0.00  0.00    +0.000 A 
ATOM      3  C   UNL     1       0.761   8.327  21.872  0.00  0.00    +0.000 A 
ATOM      4  C   UNL     1       1.249   8.379  20.584  0.00  0.00    +0.000 A 
ATOM      5  C   UNL     1       0.925   9.417  19.718  0.00  0.00    +0.000 A 
ATOM      6  C   UNL     1       0.099  10.454  20.091  0.00  0.00    +0.000 A 
ATOM      7  N   UNL     1       1.595   9.225  18.467  0.00  0.00    +0.000 N 
ATOM      8  O   UNL     1       1.484  10.004  17.468  0.00  0.00    +0.000 OA
ATOM      9  C   UNL     1       2.317   8.142  18.510  0.00  0.00    +0.000 C 
ATOM     10  C   UNL     1       2.153   7.510  19.859  0.00  0.00    +0.000 C 
ATOM     11  O   UNL     1       2.693   6.500  20.261  0.00  0.00    +0.000 OA
ENDROOT
BRANCH   1  12
ATOM     12  N   UNL     1      -1.194  11.494  21.858  0.00  0.00    +0.000 N 
ATOM     13  H   UNL     1      -1.001  11.737  22.822  0.00  0.00    +0.000 HD
ATOM     14  H   UNL     1      -2.191  11.436  21.669  0.00  0.00    +0.000 HD
ENDBRANCH   1  12
BRANCH   9  15
ATOM     15  C   UNL     1       3.135   7.658  17.374  0.00  0.00    +0.000 C 
BRANCH  15  16
ATOM     16  C   UNL     1       4.250   6.702  17.780  0.00  0.00    +0.000 C 
BRANCH  16  17
ATOM     17  C   UNL     1       4.135   5.373  17.058  0.00  0.00    +0.000 C 
BRANCH  17  18
ATOM     18  N   UNL     1       3.632   4.338  17.933  0.00  0.00    +0.000 N 
ATOM     19  C   UNL     1       2.302   4.045  18.016  0.00  0.00    +0.000 C 
ATOM     20  O   UNL     1       1.407   4.268  17.225  0.00  0.00    +0.000 OA
ATOM     21  C   UNL     1       2.128   3.369  19.291  0.00  0.00    +0.000 A 
ATOM     22  C   UNL     1       1.046   3.379  20.142  0.00  0.00    +0.000 A 
ATOM     23  C   UNL     1       1.234   2.822  21.410  0.00  0.00    +0.000 A 
ATOM     24  C   UNL     1       2.449   2.193  21.755  0.00  0.00    +0.000 A 
ATOM     25  C   UNL     1       3.554   2.271  20.906  0.00  0.00    +0.000 A 
ATOM     26  C   UNL     1       3.374   2.965  19.726  0.00  0.00    +0.000 A 
ATOM     27  C   UNL     1       4.337   3.758  18.956  0.00  0.00    +0.000 C 
ATOM     28  O   UNL     1       5.471   3.985  19.333  0.00  0.00    +0.000 OA
ENDBRANCH  17  18
ENDBRANCH  16  17
ENDBRANCH  15  16
ENDBRANCH   9  15
TORSDOF 5
ENDMDL
MODEL 2
REMARK VINA RESULT:      -7.9      2.028      3.993
REMARK  Name = 
REMARK  5 active torsions:
REMARK  status: ('A' for Active; 'I' for Inactive)
REMARK    1  A    between atoms: N_1  and  C_2
REMARK    2  A    between atoms: C_10  and  C_11
REMARK    3  A    between atoms: C_11  and  C_12
REMARK    4  A    between atoms: C_12  and  C_13
REMARK    5  A    between atoms: C_13  and  N_14
REMARK                            x       y       z     vdW  Elec       q    Type
REMARK                         _______ _______ _______ _____ _____    ______ ____
ROOT
ATOM      1  C   UNL     1      -0.736  11.575  18.539  0.00  0.00    +0.000 A 
ATOM      2  C   UNL     1      -1.031  11.507  19.923  0.00  0.00    +0.000 A 
ATOM      3  C   UNL     1      -0.464  10.527  20.747  0.00  0.00    +0.000 A 
ATOM      4  C   UNL     1       0.425   9.657  20.154  0.00  0.00    +0.000 A 
ATOM      5  C   UNL     1       0.752   9.747  18.806  0.00  0.00    +0.000 A 
ATOM      6  C   UNL     1       0.209  10.706  17.981  0.00  0.00    +0.000 A 
ATOM      7  N   UNL     1       1.715   8.740  18.477  0.00  0.00    +0.000 N 
ATOM      8  O   UNL     1       2.197   8.562  17.314  0.00  0.00    +0.000 OA
ATOM      9  C   UNL     1       2.009   8.042  19.538  0.00  0.00    +0.000 C 
ATOM     10  C   UNL     1       1.209   8.564  20.692  0.00  0.00    +0.000 C 
ATOM     11  O   UNL     1       1.241   8.170  21.839  0.00  0.00    +0.000 OA
ENDROOT
BRANCH   1  12
ATOM     12  N   UNL     1      -1.224  12.652  17.787  0.00  0.00    +0.000 N 
ATOM     13  H   UNL     1      -1.365  13.504  18.317  0.00  0.00    +0.000 HD
ATOM     14  H   UNL     1      -2.027  12.425  17.207  0.00  0.00    +0.000 HD
ENDBRANCH   1  12
BRANCH   9  15
ATOM     15  C   UNL     1       2.976   6.919  19.536  0.00  0.00    +0.000 C 
BRANCH  15  16
ATOM     16  C   UNL     1       2.336   5.557  19.300  0.00  0.00    +0.000 C 
BRANCH  16  17
ATOM     17  C   UNL     1       3.264   4.428  19.707  0.00  0.00    +0.000 C 
BRANCH  17  18
ATOM     18  N   UNL     1       4.256   4.166  18.687  0.00  0.00    +0.000 N 
ATOM     19  C   UNL     1       5.535   4.629  18.788  0.00  0.00    +0.000 C 
ATOM     20  O   UNL     1       6.160   4.978  19.770  0.00  0.00    +0.000 OA
ATOM     21  C   UNL     1       6.060   4.626  17.432  0.00  0.00    +0.000 A 
ATOM     22  C   UNL     1       6.977   5.473  16.851  0.00  0.00    +0.000 A 
ATOM     23  C   UNL     1       7.133   5.381  15.466  0.00  0.00    +0.000 A 
ATOM     24  C   UNL     1       6.452   4.394  14.722  0.00  0.00    +0.000 A 
ATOM     25  C   UNL     1       5.469   3.606  15.321  0.00  0.00    +0.000 A 
ATOM     26  C   UNL     1       5.233   3.833  16.663  0.00  0.00    +0.000 A 
ATOM     27  C   UNL     1       3.986   3.711  17.423  0.00  0.00    +0.000 C 
ATOM     28  O   UNL     1       2.912   3.453  16.911  0.00  0.00    +0.000 OA
ENDBRANCH  17  18
ENDBRANCH  16  17
ENDBRANCH  15  16
ENDBRANCH   9  15
TORSDOF 5
ENDMDL
MODEL 3
REMARK VINA RESULT:      -7.8      0.957      1.889
REMARK  Name = 
REMARK  5 active torsions:
REMARK  status: ('A' for Active; 'I' for Inactive)
REMARK    1  A    between atoms: N_1  and  C_2
REMARK    2  A    between atoms: C_10  and  C_11
REMARK    3  A    between atoms: C_11  and  C_12
REMARK    4  A    between atoms: C_12  and  C_13
REMARK    5  A    between atoms: C_13  and  N_14
REMARK                            x       y       z     vdW  Elec       q    Type
REMARK                         _______ _______ _______ _____ _____    ______ ____
ROOT
ATOM      1  C   UNL     1       0.263   9.747  22.227  0.00  0.00    +0.000 A 
ATOM      2  C   UNL     1       0.207  10.901  21.409  0.00  0.00    +0.000 A 
ATOM      3  C   UNL     1       0.704  10.899  20.100  0.00  0.00    +0.000 A 
ATOM      4  C   UNL     1       1.213   9.706  19.632  0.00  0.00    +0.000 A 
ATOM      5  C   UNL     1       1.231   8.558  20.416  0.00  0.00    +0.000 A 
ATOM      6  C   UNL     1       0.743   8.540  21.704  0.00  0.00    +0.000 A 
ATOM      7  N   UNL     1       1.786   7.473  19.665  0.00  0.00    +0.000 N 
ATOM      8  O   UNL     1       1.946   6.296  20.119  0.00  0.00    +0.000 OA
ATOM      9  C   UNL     1       2.104   7.876  18.468  0.00  0.00    +0.000 C 
ATOM     10  C   UNL     1       1.770   9.332  18.349  0.00  0.00    +0.000 C 
ATOM     11  O   UNL     1       1.911  10.034  17.369  0.00  0.00    +0.000 OA
ENDROOT
BRANCH   1  12
ATOM     12  N   UNL     1      -0.365   9.763  23.480  0.00  0.00    +0.000 N 
ATOM     13  H   UNL     1      -1.343   9.500  23.461  0.00  0.00    +0.000 HD
ATOM     14  H   UNL     1      -0.207  10.613  24.014  0.00  0.00    +0.000 HD
ENDBRANCH   1  12
BRANCH   9  15
ATOM     15  C   UNL     1       2.705   6.995  17.440  0.00  0.00    +0.000 C 
BRANCH  15  16
ATOM     16  C   UNL     1       4.219   6.868  17.548  0.00  0.00    +0.000 C 
BRANCH  16  17
ATOM     17  C   UNL     1       4.695   5.495  17.113  0.00  0.00    +0.000 C 
BRANCH  17  18
ATOM     18  N   UNL     1       4.152   4.455  17.958  0.00  0.00    +0.000 N 
ATOM     19  C   UNL     1       3.016   3.777  17.629  0.00  0.00    +0.000 C 
ATOM     20  O   UNL     1       2.486   3.627  16.545  0.00  0.00    +0.000 OA
ATOM     21  C   UNL     1       2.516   3.221  18.876  0.00  0.00    +0.000 A 
ATOM     22  C   UNL     1       1.217   2.987  19.267  0.00  0.00    +0.000 A 
ATOM     23  C   UNL     1       1.010   2.655  20.608  0.00  0.00    +0.000 A 
ATOM     24  C   UNL     1       2.099   2.472  21.487  0.00  0.00    +0.000 A 
ATOM     25  C   UNL     1       3.396   2.796  21.087  0.00  0.00    +0.000 A 
ATOM     26  C   UNL     1       3.541   3.269  19.798  0.00  0.00    +0.000 A 
ATOM     27  C   UNL     1       4.506   4.234  19.264  0.00  0.00    +0.000 C 
ATOM     28  O   UNL     1       5.303   4.838  19.957  0.00  0.00    +0.000 OA
ENDBRANCH  17  18
ENDBRANCH  16  17
ENDBRANCH  15  16
ENDBRANCH   9  15
TORSDOF 5
ENDMDL
MODEL 4
REMARK VINA RESULT:      -7.8      2.119      7.519
REMARK  Name = 
REMARK  5 active torsions:
REMARK  status: ('A' for Active; 'I' for Inactive)
REMARK    1  A    between atoms: N_1  and  C_2
REMARK    2  A    between atoms: C_10  and  C_11
REMARK    3  A    between atoms: C_11  and  C_12
REMARK    4  A    between atoms: C_12  and  C_13
REMARK    5  A    between atoms: C_13  and  N_14
REMARK                            x       y       z     vdW  Elec       q    Type
REMARK                         _______ _______ _______ _____ _____    ______ ____
ROOT
ATOM      1  C   UNL     1       6.159   4.092  14.672  0.00  0.00    +0.000 A 
ATOM      2  C   UNL     1       7.249   4.571  15.437  0.00  0.00    +0.000 A 
ATOM      3  C   UNL     1       7.107   4.902  16.790  0.00  0.00    +0.000 A 
ATOM      4  C   UNL     1       5.864   4.701  17.351  0.00  0.00    +0.000 A 
ATOM      5  C   UNL     1       4.801   4.190  16.615  0.00  0.00    +0.000 A 
ATOM      6  C   UNL     1       4.923   3.854  15.285  0.00  0.00    +0.000 A 
ATOM      7  N   UNL     1       3.651   4.061  17.458  0.00  0.00    +0.000 N 
ATOM      8  O   UNL     1       2.519   3.634  17.065  0.00  0.00    +0.000 OA
ATOM      9  C   UNL     1       3.939   4.452  18.667  0.00  0.00    +0.000 C 
ATOM     10  C   UNL     1       5.370   4.897  18.698  0.00  0.00    +0.000 C 
ATOM     11  O   UNL     1       5.986   5.304  19.661  0.00  0.00    +0.000 OA
ENDROOT
BRANCH   1  12
ATOM     12  N   UNL     1       6.383   3.651  13.360  0.00  0.00    +0.000 N 
ATOM     13  H   UNL     1       5.607   3.145  12.950  0.00  0.00    +0.000 HD
ATOM     14  H   UNL     1       7.267   3.168  13.228  0.00  0.00    +0.000 HD
ENDBRANCH   1  12
BRANCH   9  15
ATOM     15  C   UNL     1       2.965   4.447  19.782  0.00  0.00    +0.000 C 
BRANCH  15  16
ATOM     16  C   UNL     1       2.013   5.637  19.774  0.00  0.00    +0.000 C 
BRANCH  16  17
ATOM     17  C   UNL     1       2.763   6.949  19.647  0.00  0.00    +0.000 C 
BRANCH  17  18
ATOM     18  N   UNL     1       1.856   8.073  19.581  0.00  0.00    +0.000 N 
ATOM     19  C   UNL     1       1.801   8.893  18.492  0.00  0.00    +0.000 C 
ATOM     20  O   UNL     1       2.155   8.690  17.347  0.00  0.00    +0.000 OA
ATOM     21  C   UNL     1       1.202  10.131  18.964  0.00  0.00    +0.000 A 
ATOM     22  C   UNL     1       1.423  11.423  18.542  0.00  0.00    +0.000 A 
ATOM     23  C   UNL     1       0.878  12.445  19.324  0.00  0.00    +0.000 A 
ATOM     24  C   UNL     1       0.056  12.152  20.433  0.00  0.00    +0.000 A 
ATOM     25  C   UNL     1      -0.082  10.839  20.886  0.00  0.00    +0.000 A 
ATOM     26  C   UNL     1       0.599   9.870  20.178  0.00  0.00    +0.000 A 
ATOM     27  C   UNL     1       1.191   8.615  20.650  0.00  0.00    +0.000 C 
ATOM     28  O   UNL     1       1.227   8.291  21.822  0.00  0.00    +0.000 OA
ENDBRANCH  17  18
ENDBRANCH  16  17
ENDBRANCH  15  16
ENDBRANCH   9  15
TORSDOF 5
ENDMDL
MODEL 5
REMARK VINA RESULT:      -7.7      1.711      2.346
REMARK  Name = 
REMARK  5 active torsions:
REMARK  status: ('A' for Active; 'I' for Inactive)
REMARK    1  A    between atoms: N_1  and  C_2
REMARK    2  A    between atoms: C_10  and  C_11
REMARK    3  A    between atoms: C_11  and  C_12
REMARK    4  A    between atoms: C_12  and  C_13
REMARK    5  A    between atoms: C_13  and  N_14
REMARK                            x       y       z     vdW  Elec       q    Type
REMARK                         _______ _______ _______ _____ _____    ______ ____
ROOT
ATOM      1  C   UNL     1       1.076   9.513  18.584  0.00  0.00    +0.000 A 
ATOM      2  C   UNL     1       0.989   8.901  19.858  0.00  0.00    +0.000 A 
ATOM      3  C   UNL     1       1.769   7.788  20.193  0.00  0.00    +0.000 A 
ATOM      4  C   UNL     1       2.655   7.340  19.236  0.00  0.00    +0.000 A 
ATOM      5  C   UNL     1       2.775   7.963  18.000  0.00  0.00    +0.000 A 
ATOM      6  C   UNL     1       2.020   9.062  17.654  0.00  0.00    +0.000 A 
ATOM      7  N   UNL     1       3.785   7.305  17.227  0.00  0.00    +0.000 N 
ATOM      8  O   UNL     1       4.113   7.639  16.044  0.00  0.00    +0.000 OA
ATOM      9  C   UNL     1       4.300   6.324  17.911  0.00  0.00    +0.000 C 
ATOM     10  C   UNL     1       3.620   6.261  19.245  0.00  0.00    +0.000 C 
ATOM     11  O   UNL     1       3.856   5.485  20.147  0.00  0.00    +0.000 OA
ENDROOT
BRANCH   1  12
ATOM     12  N   UNL     1       0.373  10.701  18.345  0.00  0.00    +0.000 N 
ATOM     13  H   UNL     1       0.854  11.358  17.742  0.00  0.00    +0.000 HD
ATOM     14  H   UNL     1       0.008  11.146  19.182  0.00  0.00    +0.000 HD
ENDBRANCH   1  12
BRANCH   9  15
ATOM     15  C   UNL     1       5.371   5.441  17.395  0.00  0.00    +0.000 C 
BRANCH  15  16
ATOM     16  C   UNL     1       4.881   4.392  16.405  0.00  0.00    +0.000 C 
BRANCH  16  17
ATOM     17  C   UNL     1       5.031   2.988  16.961  0.00  0.00    +0.000 C 
BRANCH  17  18
ATOM     18  N   UNL     1       3.991   2.684  17.918  0.00  0.00    +0.000 N 
ATOM     19  C   UNL     1       2.673   2.913  17.650  0.00  0.00    +0.000 C 
ATOM     20  O   UNL     1       2.108   3.037  16.581  0.00  0.00    +0.000 OA
ATOM     21  C   UNL     1       2.015   2.981  18.944  0.00  0.00    +0.000 A 
ATOM     22  C   UNL     1       0.923   3.725  19.329  0.00  0.00    +0.000 A 
ATOM     23  C   UNL     1       0.638   3.770  20.696  0.00  0.00    +0.000 A 
ATOM     24  C   UNL     1       1.382   3.004  21.619  0.00  0.00    +0.000 A 
ATOM     25  C   UNL     1       2.533   2.326  21.213  0.00  0.00    +0.000 A 
ATOM     26  C   UNL     1       2.870   2.432  19.879  0.00  0.00    +0.000 A 
ATOM     27  C   UNL     1       4.193   2.431  19.250  0.00  0.00    +0.000 C 
ATOM     28  O   UNL     1       5.234   2.417  19.880  0.00  0.00    +0.000 OA
ENDBRANCH  17  18
ENDBRANCH  16  17
ENDBRANCH  15  16
ENDBRANCH   9  15
TORSDOF 5
ENDMDL
MODEL 6
REMARK VINA RESULT:      -7.7      2.435      8.067
REMARK  Name = 
REMARK  5 active torsions:
REMARK  status: ('A' for Active; 'I' for Inactive)
REMARK    1  A    between atoms: N_1  and  C_2
REMARK    2  A    between atoms: C_10  and  C_11
REMARK    3  A    between atoms: C_11  and  C_12
REMARK    4  A    between atoms: C_12  and  C_13
REMARK    5  A    between atoms: C_13  and  N_14
REMARK                            x       y       z     vdW  Elec       q    Type
REMARK                         _______ _______ _______ _____ _____    ______ ____
ROOT
ATOM      1  C   UNL     1       6.507   4.970  17.160  0.00  0.00    +0.000 A 
ATOM      2  C   UNL     1       6.160   6.055  16.319  0.00  0.00    +0.000 A 
ATOM      3  C   UNL     1       5.007   6.817  16.542  0.00  0.00    +0.000 A 
ATOM      4  C   UNL     1       4.247   6.485  17.644  0.00  0.00    +0.000 A 
ATOM      5  C   UNL     1       4.607   5.449  18.497  0.00  0.00    +0.000 A 
ATOM      6  C   UNL     1       5.739   4.691  18.297  0.00  0.00    +0.000 A 
ATOM      7  N   UNL     1       3.655   5.352  19.563  0.00  0.00    +0.000 N 
ATOM      8  O   UNL     1       3.708   4.488  20.494  0.00  0.00    +0.000 OA
ATOM      9  C   UNL     1       2.738   6.268  19.425  0.00  0.00    +0.000 C 
ATOM     10  C   UNL     1       3.036   7.062  18.190  0.00  0.00    +0.000 C 
ATOM     11  O   UNL     1       2.407   8.007  17.762  0.00  0.00    +0.000 OA
ENDROOT
BRANCH   1  12
ATOM     12  N   UNL     1       7.736   4.324  16.973  0.00  0.00    +0.000 N 
ATOM     13  H   UNL     1       8.502   4.718  17.506  0.00  0.00    +0.000 HD
ATOM     14  H   UNL     1       7.985   4.174  15.999  0.00  0.00    +0.000 HD
ENDBRANCH   1  12
BRANCH   9  15
ATOM     15  C   UNL     1       1.605   6.437  20.363  0.00  0.00    +0.000 C 
BRANCH  15  16
ATOM     16  C   UNL     1       1.488   7.842  20.941  0.00  0.00    +0.000 C 
BRANCH  16  17
ATOM     17  C   UNL     1       0.064   8.156  21.358  0.00  0.00    +0.000 C 
BRANCH  17  18
ATOM     18  N   UNL     1      -0.162   9.582  21.437  0.00  0.00    +0.000 N 
ATOM     19  C   UNL     1      -0.269  10.231  22.632  0.00  0.00    +0.000 C 
ATOM     20  O   UNL     1       0.123   9.900  23.734  0.00  0.00    +0.000 OA
ATOM     21  C   UNL     1      -0.971  11.471  22.344  0.00  0.00    +0.000 A 
ATOM     22  C   UNL     1      -1.839  12.186  23.138  0.00  0.00    +0.000 A 
ATOM     23  C   UNL     1      -2.546  13.225  22.526  0.00  0.00    +0.000 A 
ATOM     24  C   UNL     1      -2.300  13.578  21.182  0.00  0.00    +0.000 A 
ATOM     25  C   UNL     1      -1.480  12.785  20.379  0.00  0.00    +0.000 A 
ATOM     26  C   UNL     1      -0.918  11.676  20.980  0.00  0.00    +0.000 A 
ATOM     27  C   UNL     1      -0.577  10.375  20.399  0.00  0.00    +0.000 C 
ATOM     28  O   UNL     1      -0.840  10.064  19.252  0.00  0.00    +0.000 OA
ENDBRANCH  17  18
ENDBRANCH  16  17
ENDBRANCH  15  16
ENDBRANCH   9  15
TORSDOF 5
ENDMDL
MODEL 7
REMARK VINA RESULT:      -7.7      2.095      7.362
REMARK  Name = 
REMARK  5 active torsions:
REMARK  status: ('A' for Active; 'I' for Inactive)
REMARK    1  A    between atoms: N_1  and  C_2
REMARK    2  A    between atoms: C_10  and  C_11
REMARK    3  A    between atoms: C_11  and  C_12
REMARK    4  A    between atoms: C_12  and  C_13
REMARK    5  A    between atoms: C_13  and  N_14
REMARK                            x       y       z     vdW  Elec       q    Type
REMARK                         _______ _______ _______ _____ _____    ______ ____
ROOT
ATOM      1  C   UNL     1       3.937   2.580  19.338  0.00  0.00    +0.000 A 
ATOM      2  C   UNL     1       3.130   2.806  20.478  0.00  0.00    +0.000 A 
ATOM      3  C   UNL     1       2.570   4.061  20.745  0.00  0.00    +0.000 A 
ATOM      4  C   UNL     1       2.811   5.056  19.822  0.00  0.00    +0.000 A 
ATOM      5  C   UNL     1       3.567   4.828  18.678  0.00  0.00    +0.000 A 
ATOM      6  C   UNL     1       4.121   3.600  18.396  0.00  0.00    +0.000 A 
ATOM      7  N   UNL     1       3.625   6.026  17.895  0.00  0.00    +0.000 N 
ATOM      8  O   UNL     1       4.258   6.133  16.797  0.00  0.00    +0.000 OA
ATOM      9  C   UNL     1       2.946   6.972  18.478  0.00  0.00    +0.000 C 
ATOM     10  C   UNL     1       2.376   6.436  19.756  0.00  0.00    +0.000 C 
ATOM     11  O   UNL     1       1.672   7.030  20.546  0.00  0.00    +0.000 OA
ENDROOT
BRANCH   1  12
ATOM     12  N   UNL     1       4.364   1.277  19.047  0.00  0.00    +0.000 N 
ATOM     13  H   UNL     1       4.341   0.643  19.837  0.00  0.00    +0.000 HD
ATOM     14  H   UNL     1       5.245   1.229  18.542  0.00  0.00    +0.000 HD
ENDBRANCH   1  12
BRANCH   9  15
ATOM     15  C   UNL     1       2.809   8.340  17.925  0.00  0.00    +0.000 C 
BRANCH  15  16
ATOM     16  C   UNL     1       1.415   8.933  18.089  0.00  0.00    +0.000 C 
BRANCH  16  17
ATOM     17  C   UNL     1       1.467  10.311  18.722  0.00  0.00    +0.000 C 
BRANCH  17  18
ATOM     18  N   UNL     1       0.371  10.511  19.644  0.00  0.00    +0.000 N 
ATOM     19  C   UNL     1      -0.795  11.106  19.261  0.00  0.00    +0.000 C 
ATOM     20  O   UNL     1      -1.274  11.236  18.152  0.00  0.00    +0.000 OA
ATOM     21  C   UNL     1      -1.413  11.582  20.488  0.00  0.00    +0.000 A 
ATOM     22  C   UNL     1      -2.207  12.688  20.691  0.00  0.00    +0.000 A 
ATOM     23  C   UNL     1      -2.480  13.036  22.017  0.00  0.00    +0.000 A 
ATOM     24  C   UNL     1      -2.040  12.225  23.086  0.00  0.00    +0.000 A 
ATOM     25  C   UNL     1      -1.169  11.160  22.856  0.00  0.00    +0.000 A 
ATOM     26  C   UNL     1      -0.798  10.941  21.545  0.00  0.00    +0.000 A 
ATOM     27  C   UNL     1       0.462  10.417  21.009  0.00  0.00    +0.000 C 
ATOM     28  O   UNL     1       1.432  10.169  21.700  0.00  0.00    +0.000 OA
ENDBRANCH  17  18
ENDBRANCH  16  17
ENDBRANCH  15  16
ENDBRANCH   9  15
TORSDOF 5
ENDMDL
MODEL 8
REMARK VINA RESULT:      -7.6      1.738      3.938
REMARK  Name = 
REMARK  5 active torsions:
REMARK  status: ('A' for Active; 'I' for Inactive)
REMARK    1  A    between atoms: N_1  and  C_2
REMARK    2  A    between atoms: C_10  and  C_11
REMARK    3  A    between atoms: C_11  and  C_12
REMARK    4  A    between atoms: C_12  and  C_13
REMARK    5  A    between atoms: C_13  and  N_14
REMARK                            x       y       z     vdW  Elec       q    Type
REMARK                         _______ _______ _______ _____ _____    ______ ____
ROOT
ATOM      1  C   UNL     1       0.627  11.022  19.411  0.00  0.00    +0.000 A 
ATOM      2  C   UNL     1       1.290  10.903  18.166  0.00  0.00    +0.000 A 
ATOM      3  C   UNL     1       1.990   9.742  17.814  0.00  0.00    +0.000 A 
ATOM      4  C   UNL     1       1.968   8.706  18.723  0.00  0.00    +0.000 A 
ATOM      5  C   UNL     1       1.282   8.801  19.928  0.00  0.00    +0.000 A 
ATOM      6  C   UNL     1       0.584   9.932  20.289  0.00  0.00    +0.000 A 
ATOM      7  N   UNL     1       1.408   7.572  20.651  0.00  0.00    +0.000 N 
ATOM      8  O   UNL     1       0.900   7.360  21.798  0.00  0.00    +0.000 OA
ATOM      9  C   UNL     1       2.120   6.723  19.965  0.00  0.00    +0.000 C 
ATOM     10  C   UNL     1       2.540   7.376  18.683  0.00  0.00    +0.000 C 
ATOM     11  O   UNL     1       3.195   6.877  17.792  0.00  0.00    +0.000 OA
ENDROOT
BRANCH   1  12
ATOM     12  N   UNL     1      -0.167  12.150  19.660  0.00  0.00    +0.000 N 
ATOM     13  H   UNL     1      -0.999  11.963  20.207  0.00  0.00    +0.000 HD
ATOM     14  H   UNL     1      -0.368  12.708  18.835  0.00  0.00    +0.000 HD
ENDBRANCH   1  12
BRANCH   9  15
ATOM     15  C   UNL     1       2.439   5.355  20.436  0.00  0.00    +0.000 C 
BRANCH  15  16
ATOM     16  C   UNL     1       1.374   4.322  20.091  0.00  0.00    +0.000 C 
BRANCH  16  17
ATOM     17  C   UNL     1       1.992   2.979  19.748  0.00  0.00    +0.000 C 
BRANCH  17  18
ATOM     18  N   UNL     1       3.083   3.123  18.810  0.00  0.00    +0.000 N 
ATOM     19  C   UNL     1       4.385   3.161  19.217  0.00  0.00    +0.000 C 
ATOM     20  O   UNL     1       4.889   2.758  20.247  0.00  0.00    +0.000 OA
ATOM     21  C   UNL     1       5.115   3.802  18.135  0.00  0.00    +0.000 A 
ATOM     22  C   UNL     1       6.231   4.606  18.194  0.00  0.00    +0.000 A 
ATOM     23  C   UNL     1       6.592   5.272  17.019  0.00  0.00    +0.000 A 
ATOM     24  C   UNL     1       5.898   5.044  15.812  0.00  0.00    +0.000 A 
ATOM     25  C   UNL     1       4.723   4.291  15.800  0.00  0.00    +0.000 A 
ATOM     26  C   UNL     1       4.312   3.775  17.013  0.00  0.00    +0.000 A 
ATOM     27  C   UNL     1       2.955   3.523  17.505  0.00  0.00    +0.000 C 
ATOM     28  O   UNL     1       1.951   3.834  16.892  0.00  0.00    +0.000 OA
ENDBRANCH  17  18
ENDBRANCH  16  17
ENDBRANCH  15  16
ENDBRANCH   9  15
TORSDOF 5
ENDMDL
MODEL 9
REMARK VINA RESULT:      -7.6      2.295      7.194
REMARK  Name = 
REMARK  5 active torsions:
REMARK  status: ('A' for Active; 'I' for Inactive)
REMARK    1  A    between atoms: N_1  and  C_2
REMARK    2  A    between atoms: C_10  and  C_11
REMARK    3  A    between atoms: C_11  and  C_12
REMARK    4  A    between atoms: C_12  and  C_13
REMARK    5  A    between atoms: C_13  and  N_14
REMARK                            x       y       z     vdW  Elec       q    Type
REMARK                         _______ _______ _______ _____ _____    ______ ____
ROOT
ATOM      1  C   UNL     1       1.984   3.150  21.047  0.00  0.00    +0.000 A 
ATOM      2  C   UNL     1       2.693   2.529  19.990  0.00  0.00    +0.000 A 
ATOM      3  C   UNL     1       3.163   3.259  18.893  0.00  0.00    +0.000 A 
ATOM      4  C   UNL     1       2.938   4.619  18.910  0.00  0.00    +0.000 A 
ATOM      5  C   UNL     1       2.280   5.240  19.966  0.00  0.00    +0.000 A 
ATOM      6  C   UNL     1       1.815   4.539  21.056  0.00  0.00    +0.000 A 
ATOM      7  N   UNL     1       2.216   6.651  19.728  0.00  0.00    +0.000 N 
ATOM      8  O   UNL     1       1.660   7.485  20.511  0.00  0.00    +0.000 OA
ATOM      9  C   UNL     1       2.799   6.939  18.599  0.00  0.00    +0.000 C 
ATOM     10  C   UNL     1       3.302   5.669  17.982  0.00  0.00    +0.000 C 
ATOM     11  O   UNL     1       3.912   5.558  16.939  0.00  0.00    +0.000 OA
ENDROOT
BRANCH   1  12
ATOM     12  N   UNL     1       1.650   2.399  22.183  0.00  0.00    +0.000 N 
ATOM     13  H   UNL     1       2.044   2.751  23.047  0.00  0.00    +0.000 HD
ATOM     14  H   UNL     1       1.791   1.398  22.077  0.00  0.00    +0.000 HD
ENDBRANCH   1  12
BRANCH   9  15
ATOM     15  C   UNL     1       2.903   8.315  18.060  0.00  0.00    +0.000 C 
BRANCH  15  16
ATOM     16  C   UNL     1       1.556   8.982  17.810  0.00  0.00    +0.000 C 
BRANCH  16  17
ATOM     17  C   UNL     1       1.523  10.394  18.362  0.00  0.00    +0.000 C 
BRANCH  17  18
ATOM     18  N   UNL     1       0.390  10.592  19.239  0.00  0.00    +0.000 N 
ATOM     19  C   UNL     1      -0.869  10.796  18.757  0.00  0.00    +0.000 C 
ATOM     20  O   UNL     1      -1.340  10.518  17.672  0.00  0.00    +0.000 OA
ATOM     21  C   UNL     1      -1.603  11.439  19.835  0.00  0.00    +0.000 A 
ATOM     22  C   UNL     1      -2.623  12.361  19.766  0.00  0.00    +0.000 A 
ATOM     23  C   UNL     1      -2.995  12.983  20.961  0.00  0.00    +0.000 A 
ATOM     24  C   UNL     1      -2.412  12.604  22.189  0.00  0.00    +0.000 A 
ATOM     25  C   UNL     1      -1.324  11.730  22.219  0.00  0.00    +0.000 A 
ATOM     26  C   UNL     1      -0.886  11.254  21.000  0.00  0.00    +0.000 A 
ATOM     27  C   UNL     1       0.469  10.890  20.575  0.00  0.00    +0.000 C 
ATOM     28  O   UNL     1       1.455  11.052  21.270  0.00  0.00    +0.000 OA
ENDBRANCH  17  18
ENDBRANCH  16  17
ENDBRANCH  15  16
ENDBRANCH   9  15
TORSDOF 5
ENDMDL
