MODEL 1
REMARK VINA RESULT:      -8.1      0.000      0.000
REMARK  Name = 
REMARK  6 active torsions:
REMARK  status: ('A' for Active; 'I' for Inactive)
REMARK    1  A    between atoms: C_2  and  O_3
REMARK    2  A    between atoms: C_2  and  C_4
REMARK    3  A    between atoms: C_4  and  O_5
REMARK    4  A    between atoms: O_5  and  C_6
REMARK    5  A    between atoms: C_12  and  O_13
REMARK    6  A    between atoms: C_12  and  C_14
REMARK                            x       y       z     vdW  Elec       q    Type
REMARK                         _______ _______ _______ _____ _____    ______ ____
ROOT
ATOM      1  C   UNL     1       5.660   4.186  15.406  0.00  0.00    +0.000 A 
ATOM      2  C   UNL     1       5.734   5.583  15.543  0.00  0.00    +0.000 A 
ATOM      3  C   UNL     1       4.959   6.260  16.489  0.00  0.00    +0.000 A 
ATOM      4  C   UNL     1       4.127   5.519  17.308  0.00  0.00    +0.000 A 
ATOM      5  C   UNL     1       4.066   4.115  17.183  0.00  0.00    +0.000 A 
ATOM      6  C   UNL     1       4.829   3.436  16.238  0.00  0.00    +0.000 A 
ATOM      7  C   UNL     1       3.080   3.538  18.205  0.00  0.00    +0.000 C 
ATOM      8  C   UNL     1       2.614   4.804  18.924  0.00  0.00    +0.000 A 
ATOM      9  C   UNL     1       1.710   4.927  19.973  0.00  0.00    +0.000 A 
ATOM     10  C   UNL     1       1.448   6.203  20.476  0.00  0.00    +0.000 A 
ATOM     11  C   UNL     1       2.065   7.334  19.920  0.00  0.00    +0.000 A 
ATOM     12  C   UNL     1       2.964   7.209  18.857  0.00  0.00    +0.000 A 
ATOM     13  C   UNL     1       3.238   5.941  18.369  0.00  0.00    +0.000 A 
ENDROOT
BRANCH   7  14
ATOM     14  C   UNL     1       3.701   2.460  19.145  0.00  0.00    +0.000 C 
ATOM     15  F   UNL     1       4.923   2.800  19.618  0.00  0.00    +0.000 F 
ATOM     16  F   UNL     1       2.933   2.146  20.210  0.00  0.00    +0.000 F 
ATOM     17  F   UNL     1       3.879   1.305  18.439  0.00  0.00    +0.000 F 
ENDBRANCH   7  14
BRANCH   7  18
ATOM     18  O   UNL     1       1.958   3.051  17.438  0.00  0.00    +0.000 OA
ATOM     19  H   UNL     1       2.301   2.374  16.827  0.00  0.00    +0.000 HD
ENDBRANCH   7  18
BRANCH   1  20
ATOM     20  O   UNL     1       6.476   3.666  14.437  0.00  0.00    +0.000 OA
BRANCH  20  21
ATOM     21  C   UNL     1       6.372   4.276  13.145  0.00  0.00    +0.000 C 
BRANCH  21  23
ATOM     22  O   UNL     1       4.643   3.284  11.765  0.00  0.00    +0.000 OA
ATOM     23  C   UNL     1       5.792   3.249  12.186  0.00  0.00    +0.000 C 
BRANCH  23  24
ATOM     24  O   UNL     1       6.672   2.278  11.838  0.00  0.00    +0.000 OA
ATOM     25  H   UNL     1       7.072   1.896  12.649  0.00  0.00    +0.000 HD
ENDBRANCH  23  24
ENDBRANCH  21  23
ENDBRANCH  20  21
ENDBRANCH   1  20
TORSDOF 6
ENDMDL
MODEL 2
REMARK VINA RESULT:      -8.1      3.060      6.705
REMARK  Name = 
REMARK  6 active torsions:
REMARK  status: ('A' for Active; 'I' for Inactive)
REMARK    1  A    between atoms: C_2  and  O_3
REMARK    2  A    between atoms: C_2  and  C_4
REMARK    3  A    between atoms: C_4  and  O_5
REMARK    4  A    between atoms: O_5  and  C_6
REMARK    5  A    between atoms: C_12  and  O_13
REMARK    6  A    between atoms: C_12  and  C_14
REMARK                            x       y       z     vdW  Elec       q    Type
REMARK                         _______ _______ _______ _____ _____    ______ ____
ROOT
ATOM      1  C   UNL     1       2.171   6.813  19.905  0.00  0.00    +0.000 A 
ATOM      2  C   UNL     1       2.451   7.770  18.913  0.00  0.00    +0.000 A 
ATOM      3  C   UNL     1       3.269   7.464  17.822  0.00  0.00    +0.000 A 
ATOM      4  C   UNL     1       3.784   6.184  17.725  0.00  0.00    +0.000 A 
ATOM      5  C   UNL     1       3.488   5.218  18.710  0.00  0.00    +0.000 A 
ATOM      6  C   UNL     1       2.682   5.519  19.803  0.00  0.00    +0.000 A 
ATOM      7  C   UNL     1       4.172   3.891  18.365  0.00  0.00    +0.000 C 
ATOM      8  C   UNL     1       4.872   4.241  17.053  0.00  0.00    +0.000 A 
ATOM      9  C   UNL     1       5.657   3.431  16.241  0.00  0.00    +0.000 A 
ATOM     10  C   UNL     1       6.188   3.980  15.072  0.00  0.00    +0.000 A 
ATOM     11  C   UNL     1       5.953   5.322  14.738  0.00  0.00    +0.000 A 
ATOM     12  C   UNL     1       5.174   6.139  15.563  0.00  0.00    +0.000 A 
ATOM     13  C   UNL     1       4.632   5.590  16.714  0.00  0.00    +0.000 A 
ENDROOT
BRANCH   7  14
ATOM     14  C   UNL     1       3.192   2.682  18.264  0.00  0.00    +0.000 C 
ATOM     15  F   UNL     1       3.804   1.520  17.937  0.00  0.00    +0.000 F 
ATOM     16  F   UNL     1       2.476   2.454  19.387  0.00  0.00    +0.000 F 
ATOM     17  F   UNL     1       2.288   2.925  17.269  0.00  0.00    +0.000 F 
ENDBRANCH   7  14
BRANCH   7  18
ATOM     18  O   UNL     1       5.203   3.709  19.359  0.00  0.00    +0.000 OA
ATOM     19  H   UNL     1       5.164   2.779  19.647  0.00  0.00    +0.000 HD
ENDBRANCH   7  18
BRANCH   1  20
ATOM     20  O   UNL     1       1.358   7.259  20.912  0.00  0.00    +0.000 OA
BRANCH  20  21
ATOM     21  C   UNL     1       1.378   8.672  21.146  0.00  0.00    +0.000 C 
BRANCH  21  23
ATOM     22  O   UNL     1       0.679   9.736  23.209  0.00  0.00    +0.000 OA
ATOM     23  C   UNL     1       0.422   8.972  22.288  0.00  0.00    +0.000 C 
BRANCH  23  24
ATOM     24  O   UNL     1      -0.756   8.306  22.194  0.00  0.00    +0.000 OA
ATOM     25  H   UNL     1      -1.416   8.875  21.741  0.00  0.00    +0.000 HD
ENDBRANCH  23  24
ENDBRANCH  21  23
ENDBRANCH  20  21
ENDBRANCH   1  20
TORSDOF 6
ENDMDL
MODEL 3
REMARK VINA RESULT:      -8.1      0.621      1.067
REMARK  Name = 
REMARK  6 active torsions:
REMARK  status: ('A' for Active; 'I' for Inactive)
REMARK    1  A    between atoms: C_2  and  O_3
REMARK    2  A    between atoms: C_2  and  C_4
REMARK    3  A    between atoms: C_4  and  O_5
REMARK    4  A    between atoms: O_5  and  C_6
REMARK    5  A    between atoms: C_12  and  O_13
REMARK    6  A    between atoms: C_12  and  C_14
REMARK                            x       y       z     vdW  Elec       q    Type
REMARK                         _______ _______ _______ _____ _____    ______ ____
ROOT
ATOM      1  C   UNL     1       5.442   4.473  15.505  0.00  0.00    +0.000 A 
ATOM      2  C   UNL     1       5.469   5.863  15.714  0.00  0.00    +0.000 A 
ATOM      3  C   UNL     1       4.696   6.460  16.714  0.00  0.00    +0.000 A 
ATOM      4  C   UNL     1       3.915   5.647  17.515  0.00  0.00    +0.000 A 
ATOM      5  C   UNL     1       3.902   4.250  17.317  0.00  0.00    +0.000 A 
ATOM      6  C   UNL     1       4.662   3.651  16.319  0.00  0.00    +0.000 A 
ATOM      7  C   UNL     1       2.967   3.585  18.333  0.00  0.00    +0.000 C 
ATOM      8  C   UNL     1       2.475   4.793  19.130  0.00  0.00    +0.000 A 
ATOM      9  C   UNL     1       1.597   4.828  20.207  0.00  0.00    +0.000 A 
ATOM     10  C   UNL     1       1.303   6.065  20.783  0.00  0.00    +0.000 A 
ATOM     11  C   UNL     1       1.863   7.246  20.272  0.00  0.00    +0.000 A 
ATOM     12  C   UNL     1       2.735   7.210  19.180  0.00  0.00    +0.000 A 
ATOM     13  C   UNL     1       3.042   5.981  18.619  0.00  0.00    +0.000 A 
ENDROOT
BRANCH   7  14
ATOM     14  C   UNL     1       3.653   2.484  19.199  0.00  0.00    +0.000 C 
ATOM     15  F   UNL     1       2.978   2.198  20.336  0.00  0.00    +0.000 F 
ATOM     16  F   UNL     1       3.857   1.318  18.550  0.00  0.00    +0.000 F 
ATOM     17  F   UNL     1       4.882   2.931  19.593  0.00  0.00    +0.000 F 
ENDBRANCH   7  14
BRANCH   7  18
ATOM     18  O   UNL     1       1.842   3.095  17.572  0.00  0.00    +0.000 OA
ATOM     19  H   UNL     1       2.132   3.027  16.644  0.00  0.00    +0.000 HD
ENDBRANCH   7  18
BRANCH   1  20
ATOM     20  O   UNL     1       6.249   4.035  14.490  0.00  0.00    +0.000 OA
BRANCH  20  21
ATOM     21  C   UNL     1       5.589   3.758  13.248  0.00  0.00    +0.000 C 
BRANCH  21  23
ATOM     22  O   UNL     1       7.390   4.407  11.762  0.00  0.00    +0.000 OA
ATOM     23  C   UNL     1       6.655   3.528  12.191  0.00  0.00    +0.000 C 
BRANCH  23  24
ATOM     24  O   UNL     1       6.718   2.244  11.759  0.00  0.00    +0.000 OA
ATOM     25  H   UNL     1       6.682   1.639  12.532  0.00  0.00    +0.000 HD
ENDBRANCH  23  24
ENDBRANCH  21  23
ENDBRANCH  20  21
ENDBRANCH   1  20
TORSDOF 6
ENDMDL
MODEL 4
REMARK VINA RESULT:      -8.0      3.006      6.636
REMARK  Name = 
REMARK  6 active torsions:
REMARK  status: ('A' for Active; 'I' for Inactive)
REMARK    1  A    between atoms: C_2  and  O_3
REMARK    2  A    between atoms: C_2  and  C_4
REMARK    3  A    between atoms: C_4  and  O_5
REMARK    4  A    between atoms: O_5  and  C_6
REMARK    5  A    between atoms: C_12  and  O_13
REMARK    6  A    between atoms: C_12  and  C_14
REMARK                            x       y       z     vdW  Elec       q    Type
REMARK                         _______ _______ _______ _____ _____    ______ ____
ROOT
ATOM      1  C   UNL     1       2.285   6.657  19.803  0.00  0.00    +0.000 A 
ATOM      2  C   UNL     1       2.583   7.630  18.834  0.00  0.00    +0.000 A 
ATOM      3  C   UNL     1       3.393   7.333  17.734  0.00  0.00    +0.000 A 
ATOM      4  C   UNL     1       3.881   6.044  17.606  0.00  0.00    +0.000 A 
ATOM      5  C   UNL     1       3.566   5.063  18.569  0.00  0.00    +0.000 A 
ATOM      6  C   UNL     1       2.767   5.355  19.670  0.00  0.00    +0.000 A 
ATOM      7  C   UNL     1       4.220   3.729  18.193  0.00  0.00    +0.000 C 
ATOM      8  C   UNL     1       4.926   4.095  16.887  0.00  0.00    +0.000 A 
ATOM      9  C   UNL     1       5.692   3.287  16.055  0.00  0.00    +0.000 A 
ATOM     10  C   UNL     1       6.233   3.852  14.898  0.00  0.00    +0.000 A 
ATOM     11  C   UNL     1       6.026   5.206  14.596  0.00  0.00    +0.000 A 
ATOM     12  C   UNL     1       5.266   6.020  15.441  0.00  0.00    +0.000 A 
ATOM     13  C   UNL     1       4.714   5.456  16.580  0.00  0.00    +0.000 A 
ENDROOT
BRANCH   7  14
ATOM     14  C   UNL     1       3.215   2.544  18.066  0.00  0.00    +0.000 C 
ATOM     15  F   UNL     1       2.550   2.279  19.214  0.00  0.00    +0.000 F 
ATOM     16  F   UNL     1       2.290   2.705  17.095  0.00  0.00    +0.000 F 
ATOM     17  F   UNL     1       3.906   1.406  17.760  0.00  0.00    +0.000 F 
ENDBRANCH   7  14
BRANCH   7  18
ATOM     18  O   UNL     1       5.249   3.502  19.180  0.00  0.00    +0.000 OA
ATOM     19  H   UNL     1       5.962   4.141  19.003  0.00  0.00    +0.000 HD
ENDBRANCH   7  18
BRANCH   1  20
ATOM     20  O   UNL     1       1.483   7.096  20.822  0.00  0.00    +0.000 OA
BRANCH  20  21
ATOM     21  C   UNL     1       1.138   8.486  20.785  0.00  0.00    +0.000 C 
BRANCH  21  23
ATOM     22  O   UNL     1      -0.729   8.484  22.331  0.00  0.00    +0.000 OA
ATOM     23  C   UNL     1       0.419   8.826  22.080  0.00  0.00    +0.000 C 
BRANCH  23  24
ATOM     24  O   UNL     1       1.172   9.554  22.941  0.00  0.00    +0.000 OA
ATOM     25  H   UNL     1       1.413  10.408  22.519  0.00  0.00    +0.000 HD
ENDBRANCH  23  24
ENDBRANCH  21  23
ENDBRANCH  20  21
ENDBRANCH   1  20
TORSDOF 6
ENDMDL
MODEL 5
REMARK VINA RESULT:      -8.0      3.195      6.783
REMARK  Name = 
REMARK  6 active torsions:
REMARK  status: ('A' for Active; 'I' for Inactive)
REMARK    1  A    between atoms: C_2  and  O_3
REMARK    2  A    between atoms: C_2  and  C_4
REMARK    3  A    between atoms: C_4  and  O_5
REMARK    4  A    between atoms: O_5  and  C_6
REMARK    5  A    between atoms: C_12  and  O_13
REMARK    6  A    between atoms: C_12  and  C_14
REMARK                            x       y       z     vdW  Elec       q    Type
REMARK                         _______ _______ _______ _____ _____    ______ ____
ROOT
ATOM      1  C   UNL     1       1.825   7.010  20.137  0.00  0.00    +0.000 A 
ATOM      2  C   UNL     1       2.215   7.995  19.212  0.00  0.00    +0.000 A 
ATOM      3  C   UNL     1       3.059   7.689  18.141  0.00  0.00    +0.000 A 
ATOM      4  C   UNL     1       3.489   6.382  17.996  0.00  0.00    +0.000 A 
ATOM      5  C   UNL     1       3.083   5.390  18.913  0.00  0.00    +0.000 A 
ATOM      6  C   UNL     1       2.250   5.690  19.985  0.00  0.00    +0.000 A 
ATOM      7  C   UNL     1       3.688   4.037  18.524  0.00  0.00    +0.000 C 
ATOM      8  C   UNL     1       4.470   4.404  17.263  0.00  0.00    +0.000 A 
ATOM      9  C   UNL     1       5.234   3.583  16.442  0.00  0.00    +0.000 A 
ATOM     10  C   UNL     1       5.854   4.153  15.328  0.00  0.00    +0.000 A 
ATOM     11  C   UNL     1       5.727   5.524  15.059  0.00  0.00    +0.000 A 
ATOM     12  C   UNL     1       4.970   6.351  15.894  0.00  0.00    +0.000 A 
ATOM     13  C   UNL     1       4.339   5.783  16.990  0.00  0.00    +0.000 A 
ENDROOT
BRANCH   7  14
ATOM     14  C   UNL     1       2.633   2.908  18.316  0.00  0.00    +0.000 C 
ATOM     15  F   UNL     1       1.517   3.328  17.675  0.00  0.00    +0.000 F 
ATOM     16  F   UNL     1       3.099   1.832  17.646  0.00  0.00    +0.000 F 
ATOM     17  F   UNL     1       2.218   2.457  19.537  0.00  0.00    +0.000 F 
ENDBRANCH   7  14
BRANCH   7  18
ATOM     18  O   UNL     1       4.658   3.731  19.549  0.00  0.00    +0.000 OA
ATOM     19  H   UNL     1       4.277   3.027  20.104  0.00  0.00    +0.000 HD
ENDBRANCH   7  18
BRANCH   1  20
ATOM     20  O   UNL     1       1.000   7.460  21.132  0.00  0.00    +0.000 OA
BRANCH  20  21
ATOM     21  C   UNL     1       0.758   8.872  21.148  0.00  0.00    +0.000 C 
BRANCH  21  23
ATOM     22  O   UNL     1       0.253   9.881  23.294  0.00  0.00    +0.000 OA
ATOM     23  C   UNL     1       1.082   9.388  22.540  0.00  0.00    +0.000 C 
BRANCH  23  24
ATOM     24  O   UNL     1       2.389   9.254  22.874  0.00  0.00    +0.000 OA
ATOM     25  H   UNL     1       2.461   9.058  23.834  0.00  0.00    +0.000 HD
ENDBRANCH  23  24
ENDBRANCH  21  23
ENDBRANCH  20  21
ENDBRANCH   1  20
TORSDOF 6
ENDMDL
MODEL 6
REMARK VINA RESULT:      -7.9      3.167      6.526
REMARK  Name = 
REMARK  6 active torsions:
REMARK  status: ('A' for Active; 'I' for Inactive)
REMARK    1  A    between atoms: C_2  and  O_3
REMARK    2  A    between atoms: C_2  and  C_4
REMARK    3  A    between atoms: C_4  and  O_5
REMARK    4  A    between atoms: O_5  and  C_6
REMARK    5  A    between atoms: C_12  and  O_13
REMARK    6  A    between atoms: C_12  and  C_14
REMARK                            x       y       z     vdW  Elec       q    Type
REMARK                         _______ _______ _______ _____ _____    ______ ____
ROOT
ATOM      1  C   UNL     1       2.669   4.892  19.040  0.00  0.00    +0.000 A 
ATOM      2  C   UNL     1       2.224   4.039  18.015  0.00  0.00    +0.000 A 
ATOM      3  C   UNL     1       2.981   3.844  16.856  0.00  0.00    +0.000 A 
ATOM      4  C   UNL     1       4.197   4.494  16.748  0.00  0.00    +0.000 A 
ATOM      5  C   UNL     1       4.653   5.335  17.785  0.00  0.00    +0.000 A 
ATOM      6  C   UNL     1       3.900   5.541  18.937  0.00  0.00    +0.000 A 
ATOM      7  C   UNL     1       6.020   5.924  17.422  0.00  0.00    +0.000 C 
ATOM      8  C   UNL     1       6.272   5.287  16.055  0.00  0.00    +0.000 A 
ATOM      9  C   UNL     1       7.368   5.435  15.214  0.00  0.00    +0.000 A 
ATOM     10  C   UNL     1       7.375   4.735  14.005  0.00  0.00    +0.000 A 
ATOM     11  C   UNL     1       6.291   3.923  13.640  0.00  0.00    +0.000 A 
ATOM     12  C   UNL     1       5.183   3.787  14.481  0.00  0.00    +0.000 A 
ATOM     13  C   UNL     1       5.183   4.466  15.689  0.00  0.00    +0.000 A 
ENDROOT
BRANCH   7  14
ATOM     14  C   UNL     1       7.133   5.637  18.476  0.00  0.00    +0.000 C 
ATOM     15  F   UNL     1       6.668   5.579  19.745  0.00  0.00    +0.000 F 
ATOM     16  F   UNL     1       7.827   4.500  18.251  0.00  0.00    +0.000 F 
ATOM     17  F   UNL     1       8.040   6.658  18.452  0.00  0.00    +0.000 F 
ENDBRANCH   7  14
BRANCH   7  18
ATOM     18  O   UNL     1       5.795   7.332  17.197  0.00  0.00    +0.000 OA
ATOM     19  H   UNL     1       6.255   7.813  17.908  0.00  0.00    +0.000 HD
ENDBRANCH   7  18
BRANCH   1  20
ATOM     20  O   UNL     1       1.820   4.985  20.110  0.00  0.00    +0.000 OA
BRANCH  20  21
ATOM     21  C   UNL     1       2.363   4.575  21.371  0.00  0.00    +0.000 C 
BRANCH  21  23
ATOM     22  O   UNL     1       2.724   2.302  22.134  0.00  0.00    +0.000 OA
ATOM     23  C   UNL     1       1.991   3.118  21.590  0.00  0.00    +0.000 C 
BRANCH  23  24
ATOM     24  O   UNL     1       0.760   2.799  21.120  0.00  0.00    +0.000 OA
ATOM     25  H   UNL     1       0.634   3.207  20.235  0.00  0.00    +0.000 HD
ENDBRANCH  23  24
ENDBRANCH  21  23
ENDBRANCH  20  21
ENDBRANCH   1  20
TORSDOF 6
ENDMDL
MODEL 7
REMARK VINA RESULT:      -7.9      1.289      1.707
REMARK  Name = 
REMARK  6 active torsions:
REMARK  status: ('A' for Active; 'I' for Inactive)
REMARK    1  A    between atoms: C_2  and  O_3
REMARK    2  A    between atoms: C_2  and  C_4
REMARK    3  A    between atoms: C_4  and  O_5
REMARK    4  A    between atoms: O_5  and  C_6
REMARK    5  A    between atoms: C_12  and  O_13
REMARK    6  A    between atoms: C_12  and  C_14
REMARK                            x       y       z     vdW  Elec       q    Type
REMARK                         _______ _______ _______ _____ _____    ______ ____
ROOT
ATOM      1  C   UNL     1       6.174   4.919  16.094  0.00  0.00    +0.000 A 
ATOM      2  C   UNL     1       6.141   6.177  16.722  0.00  0.00    +0.000 A 
ATOM      3  C   UNL     1       5.155   6.492  17.660  0.00  0.00    +0.000 A 
ATOM      4  C   UNL     1       4.216   5.527  17.977  0.00  0.00    +0.000 A 
ATOM      5  C   UNL     1       4.260   4.258  17.361  0.00  0.00    +0.000 A 
ATOM      6  C   UNL     1       5.234   3.941  16.420  0.00  0.00    +0.000 A 
ATOM      7  C   UNL     1       3.121   3.379  17.888  0.00  0.00    +0.000 C 
ATOM      8  C   UNL     1       2.449   4.319  18.889  0.00  0.00    +0.000 A 
ATOM      9  C   UNL     1       1.347   4.083  19.701  0.00  0.00    +0.000 A 
ATOM     10  C   UNL     1       0.918   5.105  20.551  0.00  0.00    +0.000 A 
ATOM     11  C   UNL     1       1.571   6.346  20.566  0.00  0.00    +0.000 A 
ATOM     12  C   UNL     1       2.672   6.587  19.738  0.00  0.00    +0.000 A 
ATOM     13  C   UNL     1       3.109   5.566  18.908  0.00  0.00    +0.000 A 
ENDROOT
BRANCH   7  14
ATOM     14  C   UNL     1       3.598   2.027  18.501  0.00  0.00    +0.000 C 
ATOM     15  F   UNL     1       4.107   1.172  17.584  0.00  0.00    +0.000 F 
ATOM     16  F   UNL     1       4.517   2.157  19.482  0.00  0.00    +0.000 F 
ATOM     17  F   UNL     1       2.525   1.388  19.056  0.00  0.00    +0.000 F 
ENDBRANCH   7  14
BRANCH   7  18
ATOM     18  O   UNL     1       2.206   3.215  16.783  0.00  0.00    +0.000 OA
ATOM     19  H   UNL     1       2.226   4.041  16.269  0.00  0.00    +0.000 HD
ENDBRANCH   7  18
BRANCH   1  20
ATOM     20  O   UNL     1       7.196   4.758  15.198  0.00  0.00    +0.000 OA
BRANCH  20  21
ATOM     21  C   UNL     1       6.808   4.356  13.879  0.00  0.00    +0.000 C 
BRANCH  21  23
ATOM     22  O   UNL     1       8.568   5.882  13.207  0.00  0.00    +0.000 OA
ATOM     23  C   UNL     1       7.711   5.069  12.887  0.00  0.00    +0.000 C 
BRANCH  23  24
ATOM     24  O   UNL     1       7.478   4.720  11.597  0.00  0.00    +0.000 OA
ATOM     25  H   UNL     1       7.742   3.784  11.461  0.00  0.00    +0.000 HD
ENDBRANCH  23  24
ENDBRANCH  21  23
ENDBRANCH  20  21
ENDBRANCH   1  20
TORSDOF 6
ENDMDL
MODEL 8
REMARK VINA RESULT:      -7.9      0.805      1.118
REMARK  Name = 
REMARK  6 active torsions:
REMARK  status: ('A' for Active; 'I' for Inactive)
REMARK    1  A    between atoms: C_2  and  O_3
REMARK    2  A    between atoms: C_2  and  C_4
REMARK    3  A    between atoms: C_4  and  O_5
REMARK    4  A    between atoms: O_5  and  C_6
REMARK    5  A    between atoms: C_12  and  O_13
REMARK    6  A    between atoms: C_12  and  C_14
REMARK                            x       y       z     vdW  Elec       q    Type
REMARK                         _______ _______ _______ _____ _____    ______ ____
ROOT
ATOM      1  C   UNL     1       5.483   5.155  15.481  0.00  0.00    +0.000 A 
ATOM      2  C   UNL     1       5.465   6.476  15.961  0.00  0.00    +0.000 A 
ATOM      3  C   UNL     1       4.648   6.847  17.032  0.00  0.00    +0.000 A 
ATOM      4  C   UNL     1       3.866   5.875  17.630  0.00  0.00    +0.000 A 
ATOM      5  C   UNL     1       3.898   4.545  17.161  0.00  0.00    +0.000 A 
ATOM      6  C   UNL     1       4.703   4.171  16.090  0.00  0.00    +0.000 A 
ATOM      7  C   UNL     1       2.952   3.673  17.994  0.00  0.00    +0.000 C 
ATOM      8  C   UNL     1       2.405   4.689  18.996  0.00  0.00    +0.000 A 
ATOM      9  C   UNL     1       1.496   4.491  20.028  0.00  0.00    +0.000 A 
ATOM     10  C   UNL     1       1.151   5.584  20.826  0.00  0.00    +0.000 A 
ATOM     11  C   UNL     1       1.692   6.854  20.577  0.00  0.00    +0.000 A 
ATOM     12  C   UNL     1       2.596   7.053  19.529  0.00  0.00    +0.000 A 
ATOM     13  C   UNL     1       2.953   5.965  18.748  0.00  0.00    +0.000 A 
ENDROOT
BRANCH   7  14
ATOM     14  C   UNL     1       3.643   2.437  18.648  0.00  0.00    +0.000 C 
ATOM     15  F   UNL     1       3.957   1.465  17.760  0.00  0.00    +0.000 F 
ATOM     16  F   UNL     1       4.768   2.732  19.335  0.00  0.00    +0.000 F 
ATOM     17  F   UNL     1       2.780   1.867  19.541  0.00  0.00    +0.000 F 
ENDBRANCH   7  14
BRANCH   7  18
ATOM     18  O   UNL     1       1.864   3.319  17.113  0.00  0.00    +0.000 OA
ATOM     19  H   UNL     1       1.952   3.869  16.314  0.00  0.00    +0.000 HD
ENDBRANCH   7  18
BRANCH   1  20
ATOM     20  O   UNL     1       6.330   4.943  14.427  0.00  0.00    +0.000 OA
BRANCH  20  21
ATOM     21  C   UNL     1       6.416   3.592  13.960  0.00  0.00    +0.000 C 
BRANCH  21  23
ATOM     22  O   UNL     1       5.399   3.020  11.835  0.00  0.00    +0.000 OA
ATOM     23  C   UNL     1       6.281   3.608  12.447  0.00  0.00    +0.000 C 
BRANCH  23  24
ATOM     24  O   UNL     1       7.240   4.340  11.828  0.00  0.00    +0.000 OA
ATOM     25  H   UNL     1       6.936   5.270  11.744  0.00  0.00    +0.000 HD
ENDBRANCH  23  24
ENDBRANCH  21  23
ENDBRANCH  20  21
ENDBRANCH   1  20
TORSDOF 6
ENDMDL
MODEL 9
REMARK VINA RESULT:      -7.9      3.529      6.996
REMARK  Name = 
REMARK  6 active torsions:
REMARK  status: ('A' for Active; 'I' for Inactive)
REMARK    1  A    between atoms: C_2  and  O_3
REMARK    2  A    between atoms: C_2  and  C_4
REMARK    3  A    between atoms: C_4  and  O_5
REMARK    4  A    between atoms: O_5  and  C_6
REMARK    5  A    between atoms: C_12  and  O_13
REMARK    6  A    between atoms: C_12  and  C_14
REMARK                            x       y       z     vdW  Elec       q    Type
REMARK                         _______ _______ _______ _____ _____    ______ ____
ROOT
ATOM      1  C   UNL     1       1.450   8.611  19.598  0.00  0.00    +0.000 A 
ATOM      2  C   UNL     1       1.965   9.255  18.460  0.00  0.00    +0.000 A 
ATOM      3  C   UNL     1       2.857   8.606  17.602  0.00  0.00    +0.000 A 
ATOM      4  C   UNL     1       3.209   7.299  17.885  0.00  0.00    +0.000 A 
ATOM      5  C   UNL     1       2.678   6.646  19.018  0.00  0.00    +0.000 A 
ATOM      6  C   UNL     1       1.796   7.289  19.880  0.00  0.00    +0.000 A 
ATOM      7  C   UNL     1       3.218   5.214  19.099  0.00  0.00    +0.000 C 
ATOM      8  C   UNL     1       4.105   5.153  17.856  0.00  0.00    +0.000 A 
ATOM      9  C   UNL     1       4.867   4.091  17.381  0.00  0.00    +0.000 A 
ATOM     10  C   UNL     1       5.596   4.274  16.204  0.00  0.00    +0.000 A 
ATOM     11  C   UNL     1       5.578   5.505  15.532  0.00  0.00    +0.000 A 
ATOM     12  C   UNL     1       4.822   6.575  16.019  0.00  0.00    +0.000 A 
ATOM     13  C   UNL     1       4.083   6.390  17.177  0.00  0.00    +0.000 A 
ENDROOT
BRANCH   7  14
ATOM     14  C   UNL     1       2.107   4.120  19.146  0.00  0.00    +0.000 C 
ATOM     15  F   UNL     1       2.597   2.861  19.217  0.00  0.00    +0.000 F 
ATOM     16  F   UNL     1       1.230   4.267  20.163  0.00  0.00    +0.000 F 
ATOM     17  F   UNL     1       1.379   4.177  17.992  0.00  0.00    +0.000 F 
ENDBRANCH   7  14
BRANCH   7  18
ATOM     18  O   UNL     1       4.095   5.188  20.246  0.00  0.00    +0.000 OA
ATOM     19  H   UNL     1       4.197   6.108  20.549  0.00  0.00    +0.000 HD
ENDBRANCH   7  18
BRANCH   1  20
ATOM     20  O   UNL     1       0.591   9.373  20.343  0.00  0.00    +0.000 OA
BRANCH  20  21
ATOM     21  C   UNL     1       0.057   8.743  21.513  0.00  0.00    +0.000 C 
BRANCH  21  23
ATOM     22  O   UNL     1      -0.035  10.096  23.523  0.00  0.00    +0.000 OA
ATOM     23  C   UNL     1       0.634   9.446  22.730  0.00  0.00    +0.000 C 
BRANCH  23  24
ATOM     24  O   UNL     1       1.975   9.289  22.859  0.00  0.00    +0.000 OA
ATOM     25  H   UNL     1       2.377  10.142  23.133  0.00  0.00    +0.000 HD
ENDBRANCH  23  24
ENDBRANCH  21  23
ENDBRANCH  20  21
ENDBRANCH   1  20
TORSDOF 6
ENDMDL
