MODEL 1
REMARK VINA RESULT:      -6.7      0.000      0.000
REMARK  Name = 
REMARK  5 active torsions:
REMARK  status: ('A' for Active; 'I' for Inactive)
REMARK    1  A    between atoms: C_2  and  C_13
REMARK    2  A    between atoms: N_3  and  C_4
REMARK    3  A    between atoms: C_4  and  C_5
REMARK    4  A    between atoms: C_10  and  C_11
REMARK    5  A    between atoms: C_11  and  O_12
REMARK                            x       y       z     vdW  Elec       q    Type
REMARK                         _______ _______ _______ _____ _____    ______ ____
ROOT
ATOM      1  C   UNL     1       4.880   3.179  19.533  0.00  0.00    +0.000 C 
ENDROOT
BRANCH   1   2
ATOM      2  C   UNL     1       3.411   3.249  19.177  0.00  0.00    +0.000 A 
ATOM      3  C   UNL     1       3.058   3.614  17.863  0.00  0.00    +0.000 A 
ATOM      4  C   UNL     1       1.721   3.736  17.482  0.00  0.00    +0.000 A 
ATOM      5  C   UNL     1       0.714   3.490  18.407  0.00  0.00    +0.000 A 
ATOM      6  C   UNL     1       1.042   3.120  19.711  0.00  0.00    +0.000 A 
ATOM      7  C   UNL     1       2.384   3.010  20.124  0.00  0.00    +0.000 A 
BRANCH   7   8
ATOM      8  C   UNL     1       2.682   2.559  21.539  0.00  0.00    +0.000 C 
BRANCH   8   9
ATOM      9  O   UNL     1       1.500   2.477  22.329  0.00  0.00    +0.000 OA
ATOM     10  H   UNL     1       1.777   2.191  23.215  0.00  0.00    +0.000 HD
ENDBRANCH   8   9
ENDBRANCH   7   8
ENDBRANCH   1   2
BRANCH   1  13
ATOM     11  N   UNL     1       6.849   5.383  19.690  0.00  0.00    +0.000 NA
ATOM     12  C   UNL     1       6.354   4.967  18.558  0.00  0.00    +0.000 C 
ATOM     13  N   UNL     1       5.686   3.752  18.473  0.00  0.00    +0.000 N 
ATOM     14  H   UNL     1       6.713   4.698  20.431  0.00  0.00    +0.000 HD
ATOM     15  H   UNL     1       5.294   3.549  17.551  0.00  0.00    +0.000 HD
BRANCH  12  16
ATOM     16  C   UNL     1       6.568   5.861  17.272  0.00  0.00    +0.000 C 
ATOM     17 CL   UNL     1       7.718   7.182  17.647  0.00  0.00    +0.000 Cl
ATOM     18 CL   UNL     1       7.250   4.845  15.980  0.00  0.00    +0.000 Cl
ATOM     19 CL   UNL     1       5.002   6.555  16.797  0.00  0.00    +0.000 Cl
ENDBRANCH  12  16
ENDBRANCH   1  13
TORSDOF 5
ENDMDL
MODEL 2
REMARK VINA RESULT:      -6.6      1.755      2.446
REMARK  Name = 
REMARK  5 active torsions:
REMARK  status: ('A' for Active; 'I' for Inactive)
REMARK    1  A    between atoms: C_2  and  C_13
REMARK    2  A    between atoms: N_3  and  C_4
REMARK    3  A    between atoms: C_4  and  C_5
REMARK    4  A    between atoms: C_10  and  C_11
REMARK    5  A    between atoms: C_11  and  O_12
REMARK                            x       y       z     vdW  Elec       q    Type
REMARK                         _______ _______ _______ _____ _____    ______ ____
ROOT
ATOM      1  C   UNL     1       4.881   3.884  19.424  0.00  0.00    +0.000 C 
ENDROOT
BRANCH   1   2
ATOM      2  C   UNL     1       3.399   3.612  19.572  0.00  0.00    +0.000 A 
ATOM      3  C   UNL     1       2.647   4.452  20.416  0.00  0.00    +0.000 A 
ATOM      4  C   UNL     1       1.285   4.231  20.627  0.00  0.00    +0.000 A 
ATOM      5  C   UNL     1       0.651   3.170  19.992  0.00  0.00    +0.000 A 
ATOM      6  C   UNL     1       1.376   2.332  19.145  0.00  0.00    +0.000 A 
ATOM      7  C   UNL     1       2.756   2.522  18.934  0.00  0.00    +0.000 A 
BRANCH   7   8
ATOM      8  C   UNL     1       3.484   1.611  17.968  0.00  0.00    +0.000 C 
BRANCH   8   9
ATOM      9  O   UNL     1       4.280   0.647  18.649  0.00  0.00    +0.000 OA
ATOM     10  H   UNL     1       4.063   0.724  19.593  0.00  0.00    +0.000 HD
ENDBRANCH   8   9
ENDBRANCH   7   8
ENDBRANCH   1   2
BRANCH   1  13
ATOM     11  N   UNL     1       7.521   4.287  18.150  0.00  0.00    +0.000 NA
ATOM     12  C   UNL     1       6.426   4.806  17.669  0.00  0.00    +0.000 C 
ATOM     13  N   UNL     1       5.179   4.359  18.087  0.00  0.00    +0.000 N 
ATOM     14  H   UNL     1       7.321   3.528  18.798  0.00  0.00    +0.000 HD
ATOM     15  H   UNL     1       4.390   4.870  17.686  0.00  0.00    +0.000 HD
BRANCH  12  16
ATOM     16  C   UNL     1       6.550   5.929  16.564  0.00  0.00    +0.000 C 
ATOM     17 CL   UNL     1       7.228   5.220  15.065  0.00  0.00    +0.000 Cl
ATOM     18 CL   UNL     1       4.927   6.572  16.221  0.00  0.00    +0.000 Cl
ATOM     19 CL   UNL     1       7.639   7.198  17.165  0.00  0.00    +0.000 Cl
ENDBRANCH  12  16
ENDBRANCH   1  13
TORSDOF 5
ENDMDL
MODEL 3
REMARK VINA RESULT:      -6.6      0.193      1.261
REMARK  Name = 
REMARK  5 active torsions:
REMARK  status: ('A' for Active; 'I' for Inactive)
REMARK    1  A    between atoms: C_2  and  C_13
REMARK    2  A    between atoms: N_3  and  C_4
REMARK    3  A    between atoms: C_4  and  C_5
REMARK    4  A    between atoms: C_10  and  C_11
REMARK    5  A    between atoms: C_11  and  O_12
REMARK                            x       y       z     vdW  Elec       q    Type
REMARK                         _______ _______ _______ _____ _____    ______ ____
ROOT
ATOM      1  C   UNL     1       4.906   3.291  19.530  0.00  0.00    +0.000 C 
ENDROOT
BRANCH   1   2
ATOM      2  C   UNL     1       3.438   3.326  19.164  0.00  0.00    +0.000 A 
ATOM      3  C   UNL     1       3.082   3.761  17.872  0.00  0.00    +0.000 A 
ATOM      4  C   UNL     1       1.745   3.855  17.485  0.00  0.00    +0.000 A 
ATOM      5  C   UNL     1       0.741   3.509  18.381  0.00  0.00    +0.000 A 
ATOM      6  C   UNL     1       1.072   3.068  19.662  0.00  0.00    +0.000 A 
ATOM      7  C   UNL     1       2.414   2.985  20.082  0.00  0.00    +0.000 A 
BRANCH   7   8
ATOM      8  C   UNL     1       2.718   2.455  21.468  0.00  0.00    +0.000 C 
BRANCH   8   9
ATOM      9  O   UNL     1       1.727   2.845  22.413  0.00  0.00    +0.000 OA
ATOM     10  H   UNL     1       1.952   3.748  22.695  0.00  0.00    +0.000 HD
ENDBRANCH   8   9
ENDBRANCH   7   8
ENDBRANCH   1   2
BRANCH   1  13
ATOM     11  N   UNL     1       6.942   5.427  19.761  0.00  0.00    +0.000 NA
ATOM     12  C   UNL     1       6.409   5.088  18.620  0.00  0.00    +0.000 C 
ATOM     13  N   UNL     1       5.705   3.899  18.484  0.00  0.00    +0.000 N 
ATOM     14  H   UNL     1       6.803   4.705  20.465  0.00  0.00    +0.000 HD
ATOM     15  H   UNL     1       5.285   3.758  17.562  0.00  0.00    +0.000 HD
BRANCH  12  16
ATOM     16  C   UNL     1       6.620   6.045  17.380  0.00  0.00    +0.000 C 
ATOM     17 CL   UNL     1       5.062   6.819  16.950  0.00  0.00    +0.000 Cl
ATOM     18 CL   UNL     1       7.792   7.307  17.827  0.00  0.00    +0.000 Cl
ATOM     19 CL   UNL     1       7.198   5.076  16.007  0.00  0.00    +0.000 Cl
ENDBRANCH  12  16
ENDBRANCH   1  13
TORSDOF 5
ENDMDL
MODEL 4
REMARK VINA RESULT:      -6.5      1.950      2.679
REMARK  Name = 
REMARK  5 active torsions:
REMARK  status: ('A' for Active; 'I' for Inactive)
REMARK    1  A    between atoms: C_2  and  C_13
REMARK    2  A    between atoms: N_3  and  C_4
REMARK    3  A    between atoms: C_4  and  C_5
REMARK    4  A    between atoms: C_10  and  C_11
REMARK    5  A    between atoms: C_11  and  O_12
REMARK                            x       y       z     vdW  Elec       q    Type
REMARK                         _______ _______ _______ _____ _____    ______ ____
ROOT
ATOM      1  C   UNL     1       4.842   4.019  19.191  0.00  0.00    +0.000 C 
ENDROOT
BRANCH   1   2
ATOM      2  C   UNL     1       3.394   3.706  19.503  0.00  0.00    +0.000 A 
ATOM      3  C   UNL     1       2.694   4.572  20.367  0.00  0.00    +0.000 A 
ATOM      4  C   UNL     1       1.370   4.319  20.726  0.00  0.00    +0.000 A 
ATOM      5  C   UNL     1       0.720   3.198  20.222  0.00  0.00    +0.000 A 
ATOM      6  C   UNL     1       1.392   2.333  19.359  0.00  0.00    +0.000 A 
ATOM      7  C   UNL     1       2.735   2.557  18.999  0.00  0.00    +0.000 A 
BRANCH   7   8
ATOM      8  C   UNL     1       3.401   1.611  18.022  0.00  0.00    +0.000 C 
BRANCH   8   9
ATOM      9  O   UNL     1       4.268   0.693  18.681  0.00  0.00    +0.000 OA
ATOM     10  H   UNL     1       5.054   1.198  18.950  0.00  0.00    +0.000 HD
ENDBRANCH   8   9
ENDBRANCH   7   8
ENDBRANCH   1   2
BRANCH   1  13
ATOM     11  N   UNL     1       5.773   3.354  16.462  0.00  0.00    +0.000 NA
ATOM     12  C   UNL     1       5.658   4.583  16.882  0.00  0.00    +0.000 C 
ATOM     13  N   UNL     1       4.936   4.882  18.030  0.00  0.00    +0.000 N 
ATOM     14  H   UNL     1       5.247   2.710  17.049  0.00  0.00    +0.000 HD
ATOM     15  H   UNL     1       4.954   5.869  18.297  0.00  0.00    +0.000 HD
BRANCH  12  16
ATOM     16  C   UNL     1       6.324   5.734  16.027  0.00  0.00    +0.000 C 
ATOM     17 CL   UNL     1       5.049   6.811  15.378  0.00  0.00    +0.000 Cl
ATOM     18 CL   UNL     1       7.400   6.678  17.084  0.00  0.00    +0.000 Cl
ATOM     19 CL   UNL     1       7.217   4.995  14.680  0.00  0.00    +0.000 Cl
ENDBRANCH  12  16
ENDBRANCH   1  13
TORSDOF 5
ENDMDL
MODEL 5
REMARK VINA RESULT:      -6.4      1.705      2.184
REMARK  Name = 
REMARK  5 active torsions:
REMARK  status: ('A' for Active; 'I' for Inactive)
REMARK    1  A    between atoms: C_2  and  C_13
REMARK    2  A    between atoms: N_3  and  C_4
REMARK    3  A    between atoms: C_4  and  C_5
REMARK    4  A    between atoms: C_10  and  C_11
REMARK    5  A    between atoms: C_11  and  O_12
REMARK                            x       y       z     vdW  Elec       q    Type
REMARK                         _______ _______ _______ _____ _____    ______ ____
ROOT
ATOM      1  C   UNL     1       4.702   3.580  19.062  0.00  0.00    +0.000 C 
ENDROOT
BRANCH   1   2
ATOM      2  C   UNL     1       3.582   4.469  19.560  0.00  0.00    +0.000 A 
ATOM      3  C   UNL     1       3.541   5.805  19.115  0.00  0.00    +0.000 A 
ATOM      4  C   UNL     1       2.559   6.686  19.568  0.00  0.00    +0.000 A 
ATOM      5  C   UNL     1       1.597   6.246  20.468  0.00  0.00    +0.000 A 
ATOM      6  C   UNL     1       1.615   4.925  20.915  0.00  0.00    +0.000 A 
ATOM      7  C   UNL     1       2.609   4.022  20.488  0.00  0.00    +0.000 A 
BRANCH   7   8
ATOM      8  C   UNL     1       2.553   2.587  20.968  0.00  0.00    +0.000 C 
BRANCH   8   9
ATOM      9  O   UNL     1       1.777   2.456  22.155  0.00  0.00    +0.000 OA
ATOM     10  H   UNL     1       0.854   2.626  21.904  0.00  0.00    +0.000 HD
ENDBRANCH   8   9
ENDBRANCH   7   8
ENDBRANCH   1   2
BRANCH   1  13
ATOM     11  N   UNL     1       7.463   4.296  18.273  0.00  0.00    +0.000 NA
ATOM     12  C   UNL     1       6.422   4.645  17.570  0.00  0.00    +0.000 C 
ATOM     13  N   UNL     1       5.186   4.046  17.777  0.00  0.00    +0.000 N 
ATOM     14  H   UNL     1       7.241   3.539  18.917  0.00  0.00    +0.000 HD
ATOM     15  H   UNL     1       4.429   4.431  17.208  0.00  0.00    +0.000 HD
BRANCH  12  16
ATOM     16  C   UNL     1       6.609   5.737  16.442  0.00  0.00    +0.000 C 
ATOM     17 CL   UNL     1       5.009   6.384  15.966  0.00  0.00    +0.000 Cl
ATOM     18 CL   UNL     1       7.603   7.062  17.092  0.00  0.00    +0.000 Cl
ATOM     19 CL   UNL     1       7.382   4.972  15.036  0.00  0.00    +0.000 Cl
ENDBRANCH  12  16
ENDBRANCH   1  13
TORSDOF 5
ENDMDL
MODEL 6
REMARK VINA RESULT:      -6.4      3.702      5.483
REMARK  Name = 
REMARK  5 active torsions:
REMARK  status: ('A' for Active; 'I' for Inactive)
REMARK    1  A    between atoms: C_2  and  C_13
REMARK    2  A    between atoms: N_3  and  C_4
REMARK    3  A    between atoms: C_4  and  C_5
REMARK    4  A    between atoms: C_10  and  C_11
REMARK    5  A    between atoms: C_11  and  O_12
REMARK                            x       y       z     vdW  Elec       q    Type
REMARK                         _______ _______ _______ _____ _____    ______ ____
ROOT
ATOM      1  C   UNL     1       3.828   6.131  17.925  0.00  0.00    +0.000 C 
ENDROOT
BRANCH   1   2
ATOM      2  C   UNL     1       5.041   5.588  17.201  0.00  0.00    +0.000 A 
ATOM      3  C   UNL     1       4.971   5.432  15.803  0.00  0.00    +0.000 A 
ATOM      4  C   UNL     1       6.040   4.900  15.081  0.00  0.00    +0.000 A 
ATOM      5  C   UNL     1       7.200   4.520  15.745  0.00  0.00    +0.000 A 
ATOM      6  C   UNL     1       7.294   4.674  17.128  0.00  0.00    +0.000 A 
ATOM      7  C   UNL     1       6.220   5.189  17.880  0.00  0.00    +0.000 A 
BRANCH   7   8
ATOM      8  C   UNL     1       6.393   5.379  19.373  0.00  0.00    +0.000 C 
BRANCH   8   9
ATOM      9  O   UNL     1       7.762   5.324  19.758  0.00  0.00    +0.000 OA
ATOM     10  H   UNL     1       7.992   6.207  20.094  0.00  0.00    +0.000 HD
ENDBRANCH   8   9
ENDBRANCH   7   8
ENDBRANCH   1   2
BRANCH   1  13
ATOM     11  N   UNL     1       2.769   5.397  20.590  0.00  0.00    +0.000 NA
ATOM     12  C   UNL     1       2.714   4.589  19.568  0.00  0.00    +0.000 C 
ATOM     13  N   UNL     1       2.923   5.054  18.275  0.00  0.00    +0.000 N 
ATOM     14  H   UNL     1       2.934   6.358  20.296  0.00  0.00    +0.000 HD
ATOM     15  H   UNL     1       2.908   4.327  17.557  0.00  0.00    +0.000 HD
BRANCH  12  16
ATOM     16  C   UNL     1       2.359   3.071  19.830  0.00  0.00    +0.000 C 
ATOM     17 CL   UNL     1       3.624   2.028  19.108  0.00  0.00    +0.000 Cl
ATOM     18 CL   UNL     1       2.308   2.793  21.587  0.00  0.00    +0.000 Cl
ATOM     19 CL   UNL     1       0.793   2.715  19.069  0.00  0.00    +0.000 Cl
ENDBRANCH  12  16
ENDBRANCH   1  13
TORSDOF 5
ENDMDL
MODEL 7
REMARK VINA RESULT:      -6.4      3.693      5.478
REMARK  Name = 
REMARK  5 active torsions:
REMARK  status: ('A' for Active; 'I' for Inactive)
REMARK    1  A    between atoms: C_2  and  C_13
REMARK    2  A    between atoms: N_3  and  C_4
REMARK    3  A    between atoms: C_4  and  C_5
REMARK    4  A    between atoms: C_10  and  C_11
REMARK    5  A    between atoms: C_11  and  O_12
REMARK                            x       y       z     vdW  Elec       q    Type
REMARK                         _______ _______ _______ _____ _____    ______ ____
ROOT
ATOM      1  C   UNL     1       3.784   6.106  17.829  0.00  0.00    +0.000 C 
ENDROOT
BRANCH   1   2
ATOM      2  C   UNL     1       5.017   5.549  17.150  0.00  0.00    +0.000 A 
ATOM      3  C   UNL     1       4.980   5.352  15.755  0.00  0.00    +0.000 A 
ATOM      4  C   UNL     1       6.068   4.804  15.075  0.00  0.00    +0.000 A 
ATOM      5  C   UNL     1       7.214   4.451  15.776  0.00  0.00    +0.000 A 
ATOM      6  C   UNL     1       7.275   4.645  17.155  0.00  0.00    +0.000 A 
ATOM      7  C   UNL     1       6.182   5.177  17.867  0.00  0.00    +0.000 A 
BRANCH   7   8
ATOM      8  C   UNL     1       6.318   5.410  19.357  0.00  0.00    +0.000 C 
BRANCH   8   9
ATOM      9  O   UNL     1       7.669   5.288  19.790  0.00  0.00    +0.000 OA
ATOM     10  H   UNL     1       7.781   4.374  20.099  0.00  0.00    +0.000 HD
ENDBRANCH   8   9
ENDBRANCH   7   8
ENDBRANCH   1   2
BRANCH   1  13
ATOM     11  N   UNL     1       2.779   5.441  20.532  0.00  0.00    +0.000 NA
ATOM     12  C   UNL     1       2.713   4.603  19.535  0.00  0.00    +0.000 C 
ATOM     13  N   UNL     1       2.896   5.032  18.226  0.00  0.00    +0.000 N 
ATOM     14  H   UNL     1       2.930   6.394  20.207  0.00  0.00    +0.000 HD
ATOM     15  H   UNL     1       2.875   4.284  17.530  0.00  0.00    +0.000 HD
BRANCH  12  16
ATOM     16  C   UNL     1       2.377   3.091  19.848  0.00  0.00    +0.000 C 
ATOM     17 CL   UNL     1       0.835   2.645  19.052  0.00  0.00    +0.000 Cl
ATOM     18 CL   UNL     1       3.682   2.071  19.199  0.00  0.00    +0.000 Cl
ATOM     19 CL   UNL     1       2.213   2.898  21.607  0.00  0.00    +0.000 Cl
ENDBRANCH  12  16
ENDBRANCH   1  13
TORSDOF 5
ENDMDL
MODEL 8
REMARK VINA RESULT:      -6.4      1.825      2.402
REMARK  Name = 
REMARK  5 active torsions:
REMARK  status: ('A' for Active; 'I' for Inactive)
REMARK    1  A    between atoms: C_2  and  C_13
REMARK    2  A    between atoms: N_3  and  C_4
REMARK    3  A    between atoms: C_4  and  C_5
REMARK    4  A    between atoms: C_10  and  C_11
REMARK    5  A    between atoms: C_11  and  O_12
REMARK                            x       y       z     vdW  Elec       q    Type
REMARK                         _______ _______ _______ _____ _____    ______ ____
ROOT
ATOM      1  C   UNL     1       4.746   3.332  19.011  0.00  0.00    +0.000 C 
ENDROOT
BRANCH   1   2
ATOM      2  C   UNL     1       3.445   3.962  19.461  0.00  0.00    +0.000 A 
ATOM      3  C   UNL     1       3.464   5.307  19.880  0.00  0.00    +0.000 A 
ATOM      4  C   UNL     1       2.307   5.934  20.344  0.00  0.00    +0.000 A 
ATOM      5  C   UNL     1       1.111   5.230  20.392  0.00  0.00    +0.000 A 
ATOM      6  C   UNL     1       1.069   3.900  19.974  0.00  0.00    +0.000 A 
ATOM      7  C   UNL     1       2.227   3.239  19.521  0.00  0.00    +0.000 A 
BRANCH   7   8
ATOM      8  C   UNL     1       2.115   1.809  19.035  0.00  0.00    +0.000 C 
BRANCH   8   9
ATOM      9  O   UNL     1       1.973   1.740  17.620  0.00  0.00    +0.000 OA
ATOM     10  H   UNL     1       1.079   1.400  17.447  0.00  0.00    +0.000 HD
ENDBRANCH   8   9
ENDBRANCH   7   8
ENDBRANCH   1   2
BRANCH   1  13
ATOM     11  N   UNL     1       7.441   4.307  18.274  0.00  0.00    +0.000 NA
ATOM     12  C   UNL     1       6.374   4.622  17.595  0.00  0.00    +0.000 C 
ATOM     13  N   UNL     1       5.187   3.918  17.760  0.00  0.00    +0.000 N 
ATOM     14  H   UNL     1       7.280   3.494  18.865  0.00  0.00    +0.000 HD
ATOM     15  H   UNL     1       4.401   4.282  17.218  0.00  0.00    +0.000 HD
BRANCH  12  16
ATOM     16  C   UNL     1       6.473   5.798  16.544  0.00  0.00    +0.000 C 
ATOM     17 CL   UNL     1       4.845   6.491  16.268  0.00  0.00    +0.000 Cl
ATOM     18 CL   UNL     1       7.540   7.061  17.201  0.00  0.00    +0.000 Cl
ATOM     19 CL   UNL     1       7.104   5.141  15.017  0.00  0.00    +0.000 Cl
ENDBRANCH  12  16
ENDBRANCH   1  13
TORSDOF 5
ENDMDL
MODEL 9
REMARK VINA RESULT:      -6.4      1.554      2.339
REMARK  Name = 
REMARK  5 active torsions:
REMARK  status: ('A' for Active; 'I' for Inactive)
REMARK    1  A    between atoms: C_2  and  C_13
REMARK    2  A    between atoms: N_3  and  C_4
REMARK    3  A    between atoms: C_4  and  C_5
REMARK    4  A    between atoms: C_10  and  C_11
REMARK    5  A    between atoms: C_11  and  O_12
REMARK                            x       y       z     vdW  Elec       q    Type
REMARK                         _______ _______ _______ _____ _____    ______ ____
ROOT
ATOM      1  C   UNL     1       5.005   3.349  19.822  0.00  0.00    +0.000 C 
ENDROOT
BRANCH   1   2
ATOM      2  C   UNL     1       3.496   3.414  19.716  0.00  0.00    +0.000 A 
ATOM      3  C   UNL     1       2.803   4.288  20.577  0.00  0.00    +0.000 A 
ATOM      4  C   UNL     1       1.410   4.366  20.558  0.00  0.00    +0.000 A 
ATOM      5  C   UNL     1       0.686   3.575  19.674  0.00  0.00    +0.000 A 
ATOM      6  C   UNL     1       1.353   2.708  18.809  0.00  0.00    +0.000 A 
ATOM      7  C   UNL     1       2.757   2.597  18.824  0.00  0.00    +0.000 A 
BRANCH   7   8
ATOM      8  C   UNL     1       3.433   1.675  17.830  0.00  0.00    +0.000 C 
BRANCH   8   9
ATOM      9  O   UNL     1       4.034   0.555  18.471  0.00  0.00    +0.000 OA
ATOM     10  H   UNL     1       4.995   0.676  18.399  0.00  0.00    +0.000 HD
ENDBRANCH   8   9
ENDBRANCH   7   8
ENDBRANCH   1   2
BRANCH   1  13
ATOM     11  N   UNL     1       7.120   5.417  19.732  0.00  0.00    +0.000 NA
ATOM     12  C   UNL     1       6.378   5.130  18.699  0.00  0.00    +0.000 C 
ATOM     13  N   UNL     1       5.621   3.966  18.663  0.00  0.00    +0.000 N 
ATOM     14  H   UNL     1       7.086   4.678  20.432  0.00  0.00    +0.000 HD
ATOM     15  H   UNL     1       5.037   3.866  17.830  0.00  0.00    +0.000 HD
BRANCH  12  16
ATOM     16  C   UNL     1       6.394   6.118  17.466  0.00  0.00    +0.000 C 
ATOM     17 CL   UNL     1       4.787   6.892  17.300  0.00  0.00    +0.000 Cl
ATOM     18 CL   UNL     1       7.618   7.376  17.760  0.00  0.00    +0.000 Cl
ATOM     19 CL   UNL     1       6.757   5.186  15.997  0.00  0.00    +0.000 Cl
ENDBRANCH  12  16
ENDBRANCH   1  13
TORSDOF 5
ENDMDL
