MODEL 1
REMARK VINA RESULT:      -6.6      0.000      0.000
REMARK  Name = 
REMARK  3 active torsions:
REMARK  status: ('A' for Active; 'I' for Inactive)
REMARK    1  A    between atoms: N_1  and  C_2
REMARK    2  A    between atoms: C_2  and  N_4
REMARK    3  A    between atoms: N_4  and  N_5
REMARK                            x       y       z     vdW  Elec       q    Type
REMARK                         _______ _______ _______ _____ _____    ______ ____
ROOT
ATOM      1  N   UNL     1       6.223   4.237  16.074  0.00  0.00    +0.000 NA
ATOM      2  C   UNL     1       5.320   4.967  16.649  0.00  0.00    +0.000 C 
ATOM      3  C   UNL     1       5.188   6.473  16.624  0.00  0.00    +0.000 C 
ATOM      4  C   UNL     1       3.965   6.792  17.496  0.00  0.00    +0.000 C 
ATOM      5  C   UNL     1       3.458   5.453  17.926  0.00  0.00    +0.000 A 
ATOM      6  C   UNL     1       2.350   5.188  18.719  0.00  0.00    +0.000 A 
ATOM      7  C   UNL     1       2.048   3.855  19.013  0.00  0.00    +0.000 A 
ATOM      8 CL   UNL     1       0.679   3.495  19.993  0.00  0.00    +0.000 Cl
ATOM      9  C   UNL     1       2.843   2.805  18.524  0.00  0.00    +0.000 A 
ATOM     10  C   UNL     1       3.958   3.079  17.727  0.00  0.00    +0.000 A 
ATOM     11  C   UNL     1       4.237   4.406  17.447  0.00  0.00    +0.000 A 
ENDROOT
BRANCH   1  12
ATOM     12  N   UNL     1       7.181   4.893  15.354  0.00  0.00    +0.000 N 
ATOM     13  H   UNL     1       7.891   5.451  15.816  0.00  0.00    +0.000 HD
BRANCH  12  14
ATOM     14  C   UNL     1       7.226   4.826  13.990  0.00  0.00    +0.000 C 
ATOM     15  S   UNL     1       6.258   3.791  13.128  0.00  0.00    +0.000 S 
BRANCH  14  16
ATOM     16  N   UNL     1       8.107   5.655  13.387  0.00  0.00    +0.000 N 
ATOM     17  H   UNL     1       8.253   5.639  12.389  0.00  0.00    +0.000 HD
ATOM     18  H   UNL     1       8.623   6.291  13.983  0.00  0.00    +0.000 HD
ENDBRANCH  14  16
ENDBRANCH  12  14
ENDBRANCH   1  12
TORSDOF 3
ENDMDL
MODEL 2
REMARK VINA RESULT:      -6.3      2.433      2.638
REMARK  Name = 
REMARK  3 active torsions:
REMARK  status: ('A' for Active; 'I' for Inactive)
REMARK    1  A    between atoms: N_1  and  C_2
REMARK    2  A    between atoms: C_2  and  N_4
REMARK    3  A    between atoms: N_4  and  N_5
REMARK                            x       y       z     vdW  Elec       q    Type
REMARK                         _______ _______ _______ _____ _____    ______ ____
ROOT
ATOM      1  N   UNL     1       5.871   5.515  16.786  0.00  0.00    +0.000 NA
ATOM      2  C   UNL     1       4.679   5.720  17.249  0.00  0.00    +0.000 C 
ATOM      3  C   UNL     1       4.017   7.045  17.557  0.00  0.00    +0.000 C 
ATOM      4  C   UNL     1       2.627   6.690  18.107  0.00  0.00    +0.000 C 
ATOM      5  C   UNL     1       2.573   5.198  18.039  0.00  0.00    +0.000 A 
ATOM      6  C   UNL     1       1.514   4.378  18.403  0.00  0.00    +0.000 A 
ATOM      7  C   UNL     1       1.668   2.995  18.266  0.00  0.00    +0.000 A 
ATOM      8 CL   UNL     1       0.372   1.952  18.710  0.00  0.00    +0.000 Cl
ATOM      9  C   UNL     1       2.863   2.443  17.775  0.00  0.00    +0.000 A 
ATOM     10  C   UNL     1       3.925   3.274  17.411  0.00  0.00    +0.000 A 
ATOM     11  C   UNL     1       3.750   4.640  17.553  0.00  0.00    +0.000 A 
ENDROOT
BRANCH   1  12
ATOM     12  N   UNL     1       6.639   6.621  16.542  0.00  0.00    +0.000 N 
ATOM     13  H   UNL     1       6.619   7.081  15.639  0.00  0.00    +0.000 HD
BRANCH  12  14
ATOM     14  C   UNL     1       7.458   7.150  17.499  0.00  0.00    +0.000 C 
ATOM     15  S   UNL     1       7.960   6.271  18.813  0.00  0.00    +0.000 S 
BRANCH  14  16
ATOM     16  N   UNL     1       7.833   8.434  17.308  0.00  0.00    +0.000 N 
ATOM     17  H   UNL     1       8.365   8.717  16.498  0.00  0.00    +0.000 HD
ATOM     18  H   UNL     1       7.566   9.103  18.019  0.00  0.00    +0.000 HD
ENDBRANCH  14  16
ENDBRANCH  12  14
ENDBRANCH   1  12
TORSDOF 3
ENDMDL
MODEL 3
REMARK VINA RESULT:      -6.2      1.209      1.345
REMARK  Name = 
REMARK  3 active torsions:
REMARK  status: ('A' for Active; 'I' for Inactive)
REMARK    1  A    between atoms: N_1  and  C_2
REMARK    2  A    between atoms: C_2  and  N_4
REMARK    3  A    between atoms: N_4  and  N_5
REMARK                            x       y       z     vdW  Elec       q    Type
REMARK                         _______ _______ _______ _____ _____    ______ ____
ROOT
ATOM      1  N   UNL     1       5.162   5.086  15.662  0.00  0.00    +0.000 NA
ATOM      2  C   UNL     1       5.113   5.059  16.956  0.00  0.00    +0.000 C 
ATOM      3  C   UNL     1       6.165   5.530  17.936  0.00  0.00    +0.000 C 
ATOM      4  C   UNL     1       5.592   5.229  19.329  0.00  0.00    +0.000 C 
ATOM      5  C   UNL     1       4.242   4.648  19.055  0.00  0.00    +0.000 A 
ATOM      6  C   UNL     1       3.304   4.225  19.987  0.00  0.00    +0.000 A 
ATOM      7  C   UNL     1       2.095   3.701  19.520  0.00  0.00    +0.000 A 
ATOM      8 CL   UNL     1       0.912   3.169  20.653  0.00  0.00    +0.000 Cl
ATOM      9  C   UNL     1       1.830   3.600  18.144  0.00  0.00    +0.000 A 
ATOM     10  C   UNL     1       2.779   4.026  17.212  0.00  0.00    +0.000 A 
ATOM     11  C   UNL     1       3.968   4.543  17.696  0.00  0.00    +0.000 A 
ENDROOT
BRANCH   1  12
ATOM     12  N   UNL     1       6.296   5.598  15.097  0.00  0.00    +0.000 N 
ATOM     13  H   UNL     1       6.723   6.444  15.458  0.00  0.00    +0.000 HD
BRANCH  12  14
ATOM     14  C   UNL     1       6.901   4.995  14.030  0.00  0.00    +0.000 C 
ATOM     15  S   UNL     1       6.207   3.720  13.229  0.00  0.00    +0.000 S 
BRANCH  14  16
ATOM     16  N   UNL     1       8.100   5.504  13.668  0.00  0.00    +0.000 N 
ATOM     17  H   UNL     1       8.966   5.052  13.921  0.00  0.00    +0.000 HD
ATOM     18  H   UNL     1       8.094   6.366  13.138  0.00  0.00    +0.000 HD
ENDBRANCH  14  16
ENDBRANCH  12  14
ENDBRANCH   1  12
TORSDOF 3
ENDMDL
MODEL 4
REMARK VINA RESULT:      -6.2      1.829      2.503
REMARK  Name = 
REMARK  3 active torsions:
REMARK  status: ('A' for Active; 'I' for Inactive)
REMARK    1  A    between atoms: N_1  and  C_2
REMARK    2  A    between atoms: C_2  and  N_4
REMARK    3  A    between atoms: N_4  and  N_5
REMARK                            x       y       z     vdW  Elec       q    Type
REMARK                         _______ _______ _______ _____ _____    ______ ____
ROOT
ATOM      1  N   UNL     1       6.174   6.184  15.959  0.00  0.00    +0.000 NA
ATOM      2  C   UNL     1       5.773   5.684  17.085  0.00  0.00    +0.000 C 
ATOM      3  C   UNL     1       6.380   4.536  17.861  0.00  0.00    +0.000 C 
ATOM      4  C   UNL     1       5.483   4.355  19.095  0.00  0.00    +0.000 C 
ATOM      5  C   UNL     1       4.453   5.431  18.963  0.00  0.00    +0.000 A 
ATOM      6  C   UNL     1       3.414   5.712  19.839  0.00  0.00    +0.000 A 
ATOM      7  C   UNL     1       2.549   6.766  19.528  0.00  0.00    +0.000 A 
ATOM      8 CL   UNL     1       1.251   7.137  20.596  0.00  0.00    +0.000 Cl
ATOM      9  C   UNL     1       2.722   7.524  18.358  0.00  0.00    +0.000 A 
ATOM     10  C   UNL     1       3.770   7.237  17.480  0.00  0.00    +0.000 A 
ATOM     11  C   UNL     1       4.614   6.190  17.809  0.00  0.00    +0.000 A 
ENDROOT
BRANCH   1  12
ATOM     12  N   UNL     1       7.278   5.614  15.388  0.00  0.00    +0.000 N 
ATOM     13  H   UNL     1       8.151   5.542  15.898  0.00  0.00    +0.000 HD
BRANCH  12  14
ATOM     14  C   UNL     1       7.252   5.119  14.115  0.00  0.00    +0.000 C 
ATOM     15  S   UNL     1       6.177   3.946  13.647  0.00  0.00    +0.000 S 
BRANCH  14  16
ATOM     16  N   UNL     1       8.158   5.645  13.260  0.00  0.00    +0.000 N 
ATOM     17  H   UNL     1       9.038   5.190  13.075  0.00  0.00    +0.000 HD
ATOM     18  H   UNL     1       7.918   6.524  12.818  0.00  0.00    +0.000 HD
ENDBRANCH  14  16
ENDBRANCH  12  14
ENDBRANCH   1  12
TORSDOF 3
ENDMDL
MODEL 5
REMARK VINA RESULT:      -6.1      5.020      6.514
REMARK  Name = 
REMARK  3 active torsions:
REMARK  status: ('A' for Active; 'I' for Inactive)
REMARK    1  A    between atoms: N_1  and  C_2
REMARK    2  A    between atoms: C_2  and  N_4
REMARK    3  A    between atoms: N_4  and  N_5
REMARK                            x       y       z     vdW  Elec       q    Type
REMARK                         _______ _______ _______ _____ _____    ______ ____
ROOT
ATOM      1  N   UNL     1       2.461   7.284  19.728  0.00  0.00    +0.000 NA
ATOM      2  C   UNL     1       2.625   6.093  19.244  0.00  0.00    +0.000 C 
ATOM      3  C   UNL     1       1.977   4.806  19.704  0.00  0.00    +0.000 C 
ATOM      4  C   UNL     1       2.556   3.709  18.798  0.00  0.00    +0.000 C 
ATOM      5  C   UNL     1       3.460   4.443  17.861  0.00  0.00    +0.000 A 
ATOM      6  C   UNL     1       4.214   3.907  16.826  0.00  0.00    +0.000 A 
ATOM      7  C   UNL     1       5.005   4.771  16.064  0.00  0.00    +0.000 A 
ATOM      8 CL   UNL     1       5.951   4.134  14.773  0.00  0.00    +0.000 Cl
ATOM      9  C   UNL     1       5.044   6.149  16.335  0.00  0.00    +0.000 A 
ATOM     10  C   UNL     1       4.283   6.683  17.378  0.00  0.00    +0.000 A 
ATOM     11  C   UNL     1       3.506   5.809  18.119  0.00  0.00    +0.000 A 
ENDROOT
BRANCH   1  12
ATOM     12  N   UNL     1       1.603   7.409  20.785  0.00  0.00    +0.000 N 
ATOM     13  H   UNL     1       1.219   6.591  21.245  0.00  0.00    +0.000 HD
BRANCH  12  14
ATOM     14  C   UNL     1       1.229   8.632  21.264  0.00  0.00    +0.000 C 
ATOM     15  S   UNL     1       0.206   9.632  20.425  0.00  0.00    +0.000 S 
BRANCH  14  16
ATOM     16  N   UNL     1       1.745   8.977  22.465  0.00  0.00    +0.000 N 
ATOM     17  H   UNL     1       2.036   8.283  23.136  0.00  0.00    +0.000 HD
ATOM     18  H   UNL     1       1.821   9.967  22.667  0.00  0.00    +0.000 HD
ENDBRANCH  14  16
ENDBRANCH  12  14
ENDBRANCH   1  12
TORSDOF 3
ENDMDL
MODEL 6
REMARK VINA RESULT:      -6.0      1.003      1.042
REMARK  Name = 
REMARK  3 active torsions:
REMARK  status: ('A' for Active; 'I' for Inactive)
REMARK    1  A    between atoms: N_1  and  C_2
REMARK    2  A    between atoms: C_2  and  N_4
REMARK    3  A    between atoms: N_4  and  N_5
REMARK                            x       y       z     vdW  Elec       q    Type
REMARK                         _______ _______ _______ _____ _____    ______ ____
ROOT
ATOM      1  N   UNL     1       5.829   4.057  15.739  0.00  0.00    +0.000 NA
ATOM      2  C   UNL     1       5.086   4.868  16.424  0.00  0.00    +0.000 C 
ATOM      3  C   UNL     1       5.137   6.380  16.448  0.00  0.00    +0.000 C 
ATOM      4  C   UNL     1       4.058   6.811  17.452  0.00  0.00    +0.000 C 
ATOM      5  C   UNL     1       3.438   5.527  17.901  0.00  0.00    +0.000 A 
ATOM      6  C   UNL     1       2.392   5.368  18.800  0.00  0.00    +0.000 A 
ATOM      7  C   UNL     1       1.960   4.070  19.093  0.00  0.00    +0.000 A 
ATOM      8 CL   UNL     1       0.665   3.842  20.203  0.00  0.00    +0.000 Cl
ATOM      9  C   UNL     1       2.567   2.952  18.498  0.00  0.00    +0.000 A 
ATOM     10  C   UNL     1       3.619   3.119  17.594  0.00  0.00    +0.000 A 
ATOM     11  C   UNL     1       4.029   4.412  17.318  0.00  0.00    +0.000 A 
ENDROOT
BRANCH   1  12
ATOM     12  N   UNL     1       6.782   4.620  14.937  0.00  0.00    +0.000 N 
ATOM     13  H   UNL     1       7.463   5.271  15.313  0.00  0.00    +0.000 HD
BRANCH  12  14
ATOM     14  C   UNL     1       6.859   4.332  13.604  0.00  0.00    +0.000 C 
ATOM     15  S   UNL     1       7.760   5.247  12.555  0.00  0.00    +0.000 S 
BRANCH  14  16
ATOM     16  N   UNL     1       6.155   3.253  13.193  0.00  0.00    +0.000 N 
ATOM     17  H   UNL     1       6.589   2.499  12.683  0.00  0.00    +0.000 HD
ATOM     18  H   UNL     1       5.166   3.238  13.412  0.00  0.00    +0.000 HD
ENDBRANCH  14  16
ENDBRANCH  12  14
ENDBRANCH   1  12
TORSDOF 3
ENDMDL
MODEL 7
REMARK VINA RESULT:      -6.0      4.518      6.003
REMARK  Name = 
REMARK  3 active torsions:
REMARK  status: ('A' for Active; 'I' for Inactive)
REMARK    1  A    between atoms: N_1  and  C_2
REMARK    2  A    between atoms: C_2  and  N_4
REMARK    3  A    between atoms: N_4  and  N_5
REMARK                            x       y       z     vdW  Elec       q    Type
REMARK                         _______ _______ _______ _____ _____    ______ ____
ROOT
ATOM      1  N   UNL     1       3.656   3.720  18.260  0.00  0.00    +0.000 NA
ATOM      2  C   UNL     1       4.819   4.258  18.070  0.00  0.00    +0.000 C 
ATOM      3  C   UNL     1       5.765   4.819  19.109  0.00  0.00    +0.000 C 
ATOM      4  C   UNL     1       6.970   5.353  18.320  0.00  0.00    +0.000 C 
ATOM      5  C   UNL     1       6.653   5.027  16.896  0.00  0.00    +0.000 A 
ATOM      6  C   UNL     1       7.438   5.284  15.781  0.00  0.00    +0.000 A 
ATOM      7  C   UNL     1       6.953   4.902  14.526  0.00  0.00    +0.000 A 
ATOM      8 CL   UNL     1       7.905   5.208  13.124  0.00  0.00    +0.000 Cl
ATOM      9  C   UNL     1       5.703   4.275  14.391  0.00  0.00    +0.000 A 
ATOM     10  C   UNL     1       4.918   4.020  15.517  0.00  0.00    +0.000 A 
ATOM     11  C   UNL     1       5.418   4.405  16.750  0.00  0.00    +0.000 A 
ENDROOT
BRANCH   1  12
ATOM     12  N   UNL     1       3.214   3.643  19.551  0.00  0.00    +0.000 N 
ATOM     13  H   UNL     1       3.560   4.281  20.260  0.00  0.00    +0.000 HD
BRANCH  12  14
ATOM     14  C   UNL     1       2.293   2.712  19.940  0.00  0.00    +0.000 C 
ATOM     15  S   UNL     1       1.642   2.701  21.465  0.00  0.00    +0.000 S 
BRANCH  14  16
ATOM     16  N   UNL     1       1.946   1.800  19.004  0.00  0.00    +0.000 N 
ATOM     17  H   UNL     1       2.605   1.470  18.316  0.00  0.00    +0.000 HD
ATOM     18  H   UNL     1       0.990   1.467  19.017  0.00  0.00    +0.000 HD
ENDBRANCH  14  16
ENDBRANCH  12  14
ENDBRANCH   1  12
TORSDOF 3
ENDMDL
MODEL 8
REMARK VINA RESULT:      -6.0      4.419      5.796
REMARK  Name = 
REMARK  3 active torsions:
REMARK  status: ('A' for Active; 'I' for Inactive)
REMARK    1  A    between atoms: N_1  and  C_2
REMARK    2  A    between atoms: C_2  and  N_4
REMARK    3  A    between atoms: N_4  and  N_5
REMARK                            x       y       z     vdW  Elec       q    Type
REMARK                         _______ _______ _______ _____ _____    ______ ____
ROOT
ATOM      1  N   UNL     1       5.069   3.022  19.254  0.00  0.00    +0.000 NA
ATOM      2  C   UNL     1       5.058   3.967  18.369  0.00  0.00    +0.000 C 
ATOM      3  C   UNL     1       4.118   4.130  17.195  0.00  0.00    +0.000 C 
ATOM      4  C   UNL     1       4.585   5.402  16.470  0.00  0.00    +0.000 C 
ATOM      5  C   UNL     1       5.727   5.900  17.295  0.00  0.00    +0.000 A 
ATOM      6  C   UNL     1       6.488   7.040  17.077  0.00  0.00    +0.000 A 
ATOM      7  C   UNL     1       7.524   7.327  17.971  0.00  0.00    +0.000 A 
ATOM      8 CL   UNL     1       8.485   8.735  17.726  0.00  0.00    +0.000 Cl
ATOM      9  C   UNL     1       7.795   6.486  19.063  0.00  0.00    +0.000 A 
ATOM     10  C   UNL     1       7.026   5.340  19.277  0.00  0.00    +0.000 A 
ATOM     11  C   UNL     1       6.004   5.076  18.381  0.00  0.00    +0.000 A 
ENDROOT
BRANCH   1  12
ATOM     12  N   UNL     1       4.123   2.043  19.125  0.00  0.00    +0.000 N 
ATOM     13  H   UNL     1       4.336   1.170  18.656  0.00  0.00    +0.000 HD
BRANCH  12  14
ATOM     14  C   UNL     1       2.860   2.197  19.622  0.00  0.00    +0.000 C 
ATOM     15  S   UNL     1       2.571   2.909  21.091  0.00  0.00    +0.000 S 
BRANCH  14  16
ATOM     16  N   UNL     1       1.859   1.733  18.840  0.00  0.00    +0.000 N 
ATOM     17  H   UNL     1       1.599   0.758  18.836  0.00  0.00    +0.000 HD
ATOM     18  H   UNL     1       1.385   2.405  18.250  0.00  0.00    +0.000 HD
ENDBRANCH  14  16
ENDBRANCH  12  14
ENDBRANCH   1  12
TORSDOF 3
ENDMDL
MODEL 9
REMARK VINA RESULT:      -6.0      1.738      2.813
REMARK  Name = 
REMARK  3 active torsions:
REMARK  status: ('A' for Active; 'I' for Inactive)
REMARK    1  A    between atoms: N_1  and  C_2
REMARK    2  A    between atoms: C_2  and  N_4
REMARK    3  A    between atoms: N_4  and  N_5
REMARK                            x       y       z     vdW  Elec       q    Type
REMARK                         _______ _______ _______ _____ _____    ______ ____
ROOT
ATOM      1  N   UNL     1       4.967   5.185  16.099  0.00  0.00    +0.000 NA
ATOM      2  C   UNL     1       4.399   4.911  17.231  0.00  0.00    +0.000 C 
ATOM      3  C   UNL     1       4.420   3.602  17.988  0.00  0.00    +0.000 C 
ATOM      4  C   UNL     1       3.561   3.838  19.239  0.00  0.00    +0.000 C 
ATOM      5  C   UNL     1       3.142   5.269  19.134  0.00  0.00    +0.000 A 
ATOM      6  C   UNL     1       2.363   5.985  20.033  0.00  0.00    +0.000 A 
ATOM      7  C   UNL     1       2.078   7.323  19.745  0.00  0.00    +0.000 A 
ATOM      8 CL   UNL     1       1.115   8.237  20.842  0.00  0.00    +0.000 Cl
ATOM      9  C   UNL     1       2.562   7.933  18.576  0.00  0.00    +0.000 A 
ATOM     10  C   UNL     1       3.345   7.207  17.675  0.00  0.00    +0.000 A 
ATOM     11  C   UNL     1       3.616   5.884  17.981  0.00  0.00    +0.000 A 
ENDROOT
BRANCH   1  12
ATOM     12  N   UNL     1       5.674   4.179  15.502  0.00  0.00    +0.000 N 
ATOM     13  H   UNL     1       5.613   3.225  15.842  0.00  0.00    +0.000 HD
BRANCH  12  14
ATOM     14  C   UNL     1       6.485   4.411  14.428  0.00  0.00    +0.000 C 
ATOM     15  S   UNL     1       6.240   3.674  12.963  0.00  0.00    +0.000 S 
BRANCH  14  16
ATOM     16  N   UNL     1       7.500   5.280  14.634  0.00  0.00    +0.000 N 
ATOM     17  H   UNL     1       7.596   6.122  14.087  0.00  0.00    +0.000 HD
ATOM     18  H   UNL     1       8.169   5.045  15.357  0.00  0.00    +0.000 HD
ENDBRANCH  14  16
ENDBRANCH  12  14
ENDBRANCH   1  12
TORSDOF 3
ENDMDL
