MODEL 1
REMARK VINA RESULT:      -8.3      0.000      0.000
REMARK  Name = 
REMARK  8 active torsions:
REMARK  status: ('A' for Active; 'I' for Inactive)
REMARK    1  A    between atoms: C_1  and  C_2
REMARK    2  A    between atoms: C_4  and  C_5
REMARK    3  A    between atoms: C_8  and  C_9
REMARK    4  A    between atoms: C_10  and  O_11
REMARK    5  A    between atoms: O_11  and  C_12
REMARK    6  A    between atoms: N_15  and  C_16
REMARK    7  A    between atoms: C_19  and  S_20
REMARK    8  A    between atoms: S_20  and  C_21
REMARK                            x       y       z     vdW  Elec       q    Type
REMARK                         _______ _______ _______ _____ _____    ______ ____
ROOT
ATOM      1  C   UNL     1       4.010   5.552  19.054  0.00  0.00    +0.000 A 
ATOM      2  N   UNL     1       3.385   6.660  18.650  0.00  0.00    +0.000 NA
ATOM      3  C   UNL     1       2.191   6.958  19.157  0.00  0.00    +0.000 A 
ATOM      4  N   UNL     1       1.657   8.211  18.857  0.00  0.00    +0.000 N 
ATOM      5  N   UNL     1       1.516   6.133  19.945  0.00  0.00    +0.000 NA
ATOM      6  C   UNL     1       2.072   4.945  20.220  0.00  0.00    +0.000 A 
ATOM      7  C   UNL     1       3.359   4.597  19.821  0.00  0.00    +0.000 A 
ATOM      8  C   UNL     1       3.920   3.240  20.140  0.00  0.00    +0.000 C 
ATOM      9  C   UNL     1       3.119   2.489  21.215  0.00  0.00    +0.000 C 
ATOM     10  C   UNL     1       1.620   2.590  20.952  0.00  0.00    +0.000 C 
ATOM     11  C   UNL     1       1.192   4.044  21.036  0.00  0.00    +0.000 C 
ATOM     12  H   UNL     1       2.171   8.637  18.101  0.00  0.00    +0.000 HD
ENDROOT
BRANCH   4  13
ATOM     13  C   UNL     1       1.082   9.119  19.763  0.00  0.00    +0.000 A 
ATOM     14  C   UNL     1       1.025   8.878  21.145  0.00  0.00    +0.000 A 
ATOM     15  C   UNL     1       0.367   9.753  22.009  0.00  0.00    +0.000 A 
ATOM     16  C   UNL     1      -0.248  10.888  21.488  0.00  0.00    +0.000 A 
ATOM     17  C   UNL     1      -0.214  11.150  20.117  0.00  0.00    +0.000 A 
ATOM     18  C   UNL     1       0.461  10.272  19.263  0.00  0.00    +0.000 A 
BRANCH  16  19
ATOM     19  S   UNL     1      -1.131  11.979  22.573  0.00  0.00    +0.000 S 
ATOM     20  C   UNL     1      -2.286  12.771  21.487  0.00  0.00    +0.000 C 
ATOM     21  O   UNL     1      -1.879  11.159  23.503  0.00  0.00    +0.000 OA
ATOM     22  O   UNL     1      -0.197  12.984  23.047  0.00  0.00    +0.000 OA
ENDBRANCH  16  19
ENDBRANCH   4  13
BRANCH   1  23
ATOM     23  O   UNL     1       5.295   5.294  18.578  0.00  0.00    +0.000 OA
BRANCH  23  31
ATOM     24  C   UNL     1       3.906   3.308  16.439  0.00  0.00    +0.000 C 
ATOM     25  C   UNL     1       5.074   4.235  16.273  0.00  0.00    +0.000 A 
ATOM     26  C   UNL     1       5.646   4.150  14.980  0.00  0.00    +0.000 A 
ATOM     27  C   UNL     1       6.746   4.905  14.608  0.00  0.00    +0.000 A 
ATOM     28  C   UNL     1       7.292   5.788  15.525  0.00  0.00    +0.000 A 
ATOM     29  C   UNL     1       6.744   5.915  16.822  0.00  0.00    +0.000 A 
ATOM     30  C   UNL     1       7.415   6.910  17.736  0.00  0.00    +0.000 C 
ATOM     31  C   UNL     1       5.615   5.137  17.227  0.00  0.00    +0.000 A 
BRANCH  27  32
ATOM     32  C   UNL     1       7.304   4.757  13.300  0.00  0.00    +0.000 C 
ATOM     33  N   UNL     1       7.762   4.624  12.241  0.00  0.00    +0.000 NA
ENDBRANCH  27  32
ENDBRANCH  23  31
ENDBRANCH   1  23
TORSDOF 5
ENDMDL
MODEL 2
REMARK VINA RESULT:      -8.3      0.803      1.958
REMARK  Name = 
REMARK  8 active torsions:
REMARK  status: ('A' for Active; 'I' for Inactive)
REMARK    1  A    between atoms: C_1  and  C_2
REMARK    2  A    between atoms: C_4  and  C_5
REMARK    3  A    between atoms: C_8  and  C_9
REMARK    4  A    between atoms: C_10  and  O_11
REMARK    5  A    between atoms: O_11  and  C_12
REMARK    6  A    between atoms: N_15  and  C_16
REMARK    7  A    between atoms: C_19  and  S_20
REMARK    8  A    between atoms: S_20  and  C_21
REMARK                            x       y       z     vdW  Elec       q    Type
REMARK                         _______ _______ _______ _____ _____    ______ ____
ROOT
ATOM      1  C   UNL     1       4.154   5.211  19.038  0.00  0.00    +0.000 A 
ATOM      2  N   UNL     1       3.715   6.326  18.452  0.00  0.00    +0.000 NA
ATOM      3  C   UNL     1       2.510   6.797  18.765  0.00  0.00    +0.000 A 
ATOM      4  N   UNL     1       2.164   8.058  18.279  0.00  0.00    +0.000 N 
ATOM      5  N   UNL     1       1.653   6.136  19.529  0.00  0.00    +0.000 NA
ATOM      6  C   UNL     1       2.031   4.934  19.988  0.00  0.00    +0.000 A 
ATOM      7  C   UNL     1       3.309   4.416  19.798  0.00  0.00    +0.000 A 
ATOM      8  C   UNL     1       3.667   3.051  20.315  0.00  0.00    +0.000 C 
ATOM      9  C   UNL     1       2.660   2.506  21.340  0.00  0.00    +0.000 C 
ATOM     10  C   UNL     1       1.226   2.731  20.871  0.00  0.00    +0.000 C 
ATOM     11  C   UNL     1       0.960   4.221  20.759  0.00  0.00    +0.000 C 
ATOM     12  H   UNL     1       2.813   8.345  17.562  0.00  0.00    +0.000 HD
ENDROOT
BRANCH   4  13
ATOM     13  C   UNL     1       1.591   9.113  19.011  0.00  0.00    +0.000 A 
ATOM     14  C   UNL     1       1.449  10.409  18.488  0.00  0.00    +0.000 A 
ATOM     15  C   UNL     1       0.962  11.457  19.269  0.00  0.00    +0.000 A 
ATOM     16  C   UNL     1       0.612  11.213  20.594  0.00  0.00    +0.000 A 
ATOM     17  C   UNL     1       0.749   9.936  21.142  0.00  0.00    +0.000 A 
ATOM     18  C   UNL     1       1.225   8.890  20.345  0.00  0.00    +0.000 A 
BRANCH  16  19
ATOM     19  S   UNL     1       0.040  12.552  21.607  0.00  0.00    +0.000 S 
ATOM     20  C   UNL     1      -1.325  13.198  20.679  0.00  0.00    +0.000 C 
ATOM     21  O   UNL     1      -0.480  11.982  22.833  0.00  0.00    +0.000 OA
ATOM     22  O   UNL     1       1.082  13.562  21.636  0.00  0.00    +0.000 OA
ENDBRANCH  16  19
ENDBRANCH   4  13
BRANCH   1  23
ATOM     23  O   UNL     1       5.449   4.773  18.764  0.00  0.00    +0.000 OA
BRANCH  23  31
ATOM     24  C   UNL     1       7.677   6.902  17.788  0.00  0.00    +0.000 C 
ATOM     25  C   UNL     1       6.990   5.810  17.022  0.00  0.00    +0.000 A 
ATOM     26  C   UNL     1       7.377   5.786  15.660  0.00  0.00    +0.000 A 
ATOM     27  C   UNL     1       6.856   4.869  14.760  0.00  0.00    +0.000 A 
ATOM     28  C   UNL     1       5.942   3.933  15.214  0.00  0.00    +0.000 A 
ATOM     29  C   UNL     1       5.538   3.912  16.568  0.00  0.00    +0.000 A 
ATOM     30  C   UNL     1       4.542   2.847  16.953  0.00  0.00    +0.000 C 
ATOM     31  C   UNL     1       6.058   4.856  17.509  0.00  0.00    +0.000 A 
BRANCH  27  32
ATOM     32  C   UNL     1       7.257   4.909  13.389  0.00  0.00    +0.000 C 
ATOM     33  N   UNL     1       7.583   4.926  12.274  0.00  0.00    +0.000 NA
ENDBRANCH  27  32
ENDBRANCH  23  31
ENDBRANCH   1  23
TORSDOF 5
ENDMDL
MODEL 3
REMARK VINA RESULT:      -8.2      1.008      1.922
REMARK  Name = 
REMARK  8 active torsions:
REMARK  status: ('A' for Active; 'I' for Inactive)
REMARK    1  A    between atoms: C_1  and  C_2
REMARK    2  A    between atoms: C_4  and  C_5
REMARK    3  A    between atoms: C_8  and  C_9
REMARK    4  A    between atoms: C_10  and  O_11
REMARK    5  A    between atoms: O_11  and  C_12
REMARK    6  A    between atoms: N_15  and  C_16
REMARK    7  A    between atoms: C_19  and  S_20
REMARK    8  A    between atoms: S_20  and  C_21
REMARK                            x       y       z     vdW  Elec       q    Type
REMARK                         _______ _______ _______ _____ _____    ______ ____
ROOT
ATOM      1  C   UNL     1       4.168   5.143  19.030  0.00  0.00    +0.000 A 
ATOM      2  N   UNL     1       3.739   6.268  18.456  0.00  0.00    +0.000 NA
ATOM      3  C   UNL     1       2.545   6.757  18.789  0.00  0.00    +0.000 A 
ATOM      4  N   UNL     1       2.213   8.026  18.315  0.00  0.00    +0.000 N 
ATOM      5  N   UNL     1       1.689   6.105  19.561  0.00  0.00    +0.000 NA
ATOM      6  C   UNL     1       2.054   4.894  20.007  0.00  0.00    +0.000 A 
ATOM      7  C   UNL     1       3.320   4.357  19.798  0.00  0.00    +0.000 A 
ATOM      8  C   UNL     1       3.664   2.984  20.301  0.00  0.00    +0.000 C 
ATOM      9  C   UNL     1       2.662   2.449  21.337  0.00  0.00    +0.000 C 
ATOM     10  C   UNL     1       1.226   2.699  20.889  0.00  0.00    +0.000 C 
ATOM     11  C   UNL     1       0.982   4.194  20.789  0.00  0.00    +0.000 C 
ATOM     12  H   UNL     1       2.856   8.307  17.590  0.00  0.00    +0.000 HD
ENDROOT
BRANCH   4  13
ATOM     13  C   UNL     1       1.667   9.086  19.060  0.00  0.00    +0.000 A 
ATOM     14  C   UNL     1       1.213   8.929  20.380  0.00  0.00    +0.000 A 
ATOM     15  C   UNL     1       0.590   9.974  21.063  0.00  0.00    +0.000 A 
ATOM     16  C   UNL     1       0.415  11.196  20.420  0.00  0.00    +0.000 A 
ATOM     17  C   UNL     1       0.850  11.379  19.106  0.00  0.00    +0.000 A 
ATOM     18  C   UNL     1       1.485  10.327  18.438  0.00  0.00    +0.000 A 
BRANCH  16  19
ATOM     19  S   UNL     1      -0.421  12.514  21.264  0.00  0.00    +0.000 S 
ATOM     20  C   UNL     1      -1.233  11.679  22.600  0.00  0.00    +0.000 C 
ATOM     21  O   UNL     1       0.591  13.384  21.827  0.00  0.00    +0.000 OA
ATOM     22  O   UNL     1      -1.442  13.034  20.373  0.00  0.00    +0.000 OA
ENDBRANCH  16  19
ENDBRANCH   4  13
BRANCH   1  23
ATOM     23  O   UNL     1       5.452   4.687  18.736  0.00  0.00    +0.000 OA
BRANCH  23  31
ATOM     24  C   UNL     1       7.677   6.818  17.757  0.00  0.00    +0.000 C 
ATOM     25  C   UNL     1       6.979   5.734  16.988  0.00  0.00    +0.000 A 
ATOM     26  C   UNL     1       7.354   5.719  15.622  0.00  0.00    +0.000 A 
ATOM     27  C   UNL     1       6.822   4.812  14.720  0.00  0.00    +0.000 A 
ATOM     28  C   UNL     1       5.909   3.874  15.175  0.00  0.00    +0.000 A 
ATOM     29  C   UNL     1       5.518   3.844  16.533  0.00  0.00    +0.000 A 
ATOM     30  C   UNL     1       4.522   2.778  16.918  0.00  0.00    +0.000 C 
ATOM     31  C   UNL     1       6.049   4.778  17.476  0.00  0.00    +0.000 A 
BRANCH  27  32
ATOM     32  C   UNL     1       7.211   4.861  13.345  0.00  0.00    +0.000 C 
ATOM     33  N   UNL     1       7.514   4.894  12.225  0.00  0.00    +0.000 NA
ENDBRANCH  27  32
ENDBRANCH  23  31
ENDBRANCH   1  23
TORSDOF 5
ENDMDL
MODEL 4
REMARK VINA RESULT:      -7.8      0.982      1.105
REMARK  Name = 
REMARK  8 active torsions:
REMARK  status: ('A' for Active; 'I' for Inactive)
REMARK    1  A    between atoms: C_1  and  C_2
REMARK    2  A    between atoms: C_4  and  C_5
REMARK    3  A    between atoms: C_8  and  C_9
REMARK    4  A    between atoms: C_10  and  O_11
REMARK    5  A    between atoms: O_11  and  C_12
REMARK    6  A    between atoms: N_15  and  C_16
REMARK    7  A    between atoms: C_19  and  S_20
REMARK    8  A    between atoms: S_20  and  C_21
REMARK                            x       y       z     vdW  Elec       q    Type
REMARK                         _______ _______ _______ _____ _____    ______ ____
ROOT
ATOM      1  C   UNL     1       4.000   5.719  18.698  0.00  0.00    +0.000 A 
ATOM      2  N   UNL     1       3.442   6.836  18.228  0.00  0.00    +0.000 NA
ATOM      3  C   UNL     1       2.289   7.257  18.744  0.00  0.00    +0.000 A 
ATOM      4  N   UNL     1       1.836   8.520  18.364  0.00  0.00    +0.000 N 
ATOM      5  N   UNL     1       1.583   6.544  19.610  0.00  0.00    +0.000 NA
ATOM      6  C   UNL     1       2.063   5.342  19.959  0.00  0.00    +0.000 A 
ATOM      7  C   UNL     1       3.308   4.873  19.553  0.00  0.00    +0.000 A 
ATOM      8  C   UNL     1       3.781   3.505  19.958  0.00  0.00    +0.000 C 
ATOM      9  C   UNL     1       2.965   2.896  21.108  0.00  0.00    +0.000 C 
ATOM     10  C   UNL     1       1.469   3.087  20.879  0.00  0.00    +0.000 C 
ATOM     11  C   UNL     1       1.147   4.571  20.864  0.00  0.00    +0.000 C 
ATOM     12  H   UNL     1       2.354   8.851  17.564  0.00  0.00    +0.000 HD
ENDROOT
BRANCH   4  13
ATOM     13  C   UNL     1       1.356   9.533  19.214  0.00  0.00    +0.000 A 
ATOM     14  C   UNL     1       0.804   9.263  20.476  0.00  0.00    +0.000 A 
ATOM     15  C   UNL     1       0.251  10.277  21.259  0.00  0.00    +0.000 A 
ATOM     16  C   UNL     1       0.248  11.583  20.776  0.00  0.00    +0.000 A 
ATOM     17  C   UNL     1       0.785  11.879  19.521  0.00  0.00    +0.000 A 
ATOM     18  C   UNL     1       1.347  10.855  18.753  0.00  0.00    +0.000 A 
BRANCH  16  19
ATOM     19  S   UNL     1      -0.498  12.870  21.743  0.00  0.00    +0.000 S 
ATOM     20  C   UNL     1      -1.272  11.977  23.064  0.00  0.00    +0.000 C 
ATOM     21  O   UNL     1       0.570  13.669  22.305  0.00  0.00    +0.000 OA
ATOM     22  O   UNL     1      -1.543  13.479  20.940  0.00  0.00    +0.000 OA
ENDBRANCH  16  19
ENDBRANCH   4  13
BRANCH   1  23
ATOM     23  O   UNL     1       5.247   5.333  18.208  0.00  0.00    +0.000 OA
BRANCH  23  31
ATOM     24  C   UNL     1       3.678   3.202  16.351  0.00  0.00    +0.000 C 
ATOM     25  C   UNL     1       4.880   4.046  16.042  0.00  0.00    +0.000 A 
ATOM     26  C   UNL     1       5.392   3.794  14.746  0.00  0.00    +0.000 A 
ATOM     27  C   UNL     1       6.509   4.449  14.253  0.00  0.00    +0.000 A 
ATOM     28  C   UNL     1       7.133   5.396  15.048  0.00  0.00    +0.000 A 
ATOM     29  C   UNL     1       6.648   5.689  16.342  0.00  0.00    +0.000 A 
ATOM     30  C   UNL     1       7.402   6.740  17.118  0.00  0.00    +0.000 C 
ATOM     31  C   UNL     1       5.502   5.016  16.871  0.00  0.00    +0.000 A 
BRANCH  27  32
ATOM     32  C   UNL     1       7.004   4.134  12.949  0.00  0.00    +0.000 C 
ATOM     33  N   UNL     1       7.395   3.886  11.884  0.00  0.00    +0.000 NA
ENDBRANCH  27  32
ENDBRANCH  23  31
ENDBRANCH   1  23
TORSDOF 5
ENDMDL
MODEL 5
REMARK VINA RESULT:      -7.7      3.832     10.249
REMARK  Name = 
REMARK  8 active torsions:
REMARK  status: ('A' for Active; 'I' for Inactive)
REMARK    1  A    between atoms: C_1  and  C_2
REMARK    2  A    between atoms: C_4  and  C_5
REMARK    3  A    between atoms: C_8  and  C_9
REMARK    4  A    between atoms: C_10  and  O_11
REMARK    5  A    between atoms: O_11  and  C_12
REMARK    6  A    between atoms: N_15  and  C_16
REMARK    7  A    between atoms: C_19  and  S_20
REMARK    8  A    between atoms: S_20  and  C_21
REMARK                            x       y       z     vdW  Elec       q    Type
REMARK                         _______ _______ _______ _____ _____    ______ ____
ROOT
ATOM      1  C   UNL     1      -0.280  11.137  19.252  0.00  0.00    +0.000 A 
ATOM      2  N   UNL     1      -0.061   9.944  18.696  0.00  0.00    +0.000 NA
ATOM      3  C   UNL     1       1.137   9.675  18.180  0.00  0.00    +0.000 A 
ATOM      4  N   UNL     1       1.387   8.362  17.781  0.00  0.00    +0.000 N 
ATOM      5  N   UNL     1       2.091  10.586  18.058  0.00  0.00    +0.000 NA
ATOM      6  C   UNL     1       1.814  11.832  18.467  0.00  0.00    +0.000 A 
ATOM      7  C   UNL     1       0.631  12.174  19.115  0.00  0.00    +0.000 A 
ATOM      8  C   UNL     1       0.367  13.594  19.529  0.00  0.00    +0.000 C 
ATOM      9  C   UNL     1       1.625  14.476  19.512  0.00  0.00    +0.000 C 
ATOM     10  C   UNL     1       2.434  14.250  18.239  0.00  0.00    +0.000 C 
ATOM     11  C   UNL     1       2.918  12.812  18.198  0.00  0.00    +0.000 C 
ATOM     12  H   UNL     1       0.525   7.839  17.741  0.00  0.00    +0.000 HD
ENDROOT
BRANCH   4  13
ATOM     13  C   UNL     1       2.527   7.594  18.079  0.00  0.00    +0.000 A 
ATOM     14  C   UNL     1       3.650   7.548  17.238  0.00  0.00    +0.000 A 
ATOM     15  C   UNL     1       4.728   6.707  17.513  0.00  0.00    +0.000 A 
ATOM     16  C   UNL     1       4.687   5.896  18.644  0.00  0.00    +0.000 A 
ATOM     17  C   UNL     1       3.580   5.917  19.495  0.00  0.00    +0.000 A 
ATOM     18  C   UNL     1       2.512   6.775  19.215  0.00  0.00    +0.000 A 
BRANCH  16  19
ATOM     19  S   UNL     1       6.032   4.787  18.973  0.00  0.00    +0.000 S 
ATOM     20  C   UNL     1       6.826   4.646  17.394  0.00  0.00    +0.000 C 
ATOM     21  O   UNL     1       6.943   5.459  19.876  0.00  0.00    +0.000 OA
ATOM     22  O   UNL     1       5.467   3.492  19.309  0.00  0.00    +0.000 OA
ENDBRANCH  16  19
ENDBRANCH   4  13
BRANCH   1  23
ATOM     23  O   UNL     1      -1.510  11.377  19.862  0.00  0.00    +0.000 OA
BRANCH  23  31
ATOM     24  C   UNL     1      -2.246  10.358  16.884  0.00  0.00    +0.000 C 
ATOM     25  C   UNL     1      -3.047  11.190  17.841  0.00  0.00    +0.000 A 
ATOM     26  C   UNL     1      -4.283  11.605  17.285  0.00  0.00    +0.000 A 
ATOM     27  C   UNL     1      -5.178  12.397  17.985  0.00  0.00    +0.000 A 
ATOM     28  C   UNL     1      -4.864  12.778  19.280  0.00  0.00    +0.000 A 
ATOM     29  C   UNL     1      -3.649  12.375  19.878  0.00  0.00    +0.000 A 
ATOM     30  C   UNL     1      -3.412  12.843  21.293  0.00  0.00    +0.000 C 
ATOM     31  C   UNL     1      -2.708  11.566  19.168  0.00  0.00    +0.000 A 
BRANCH  27  32
ATOM     32  C   UNL     1      -6.397  12.815  17.366  0.00  0.00    +0.000 C 
ATOM     33  N   UNL     1      -7.380  13.156  16.850  0.00  0.00    +0.000 NA
ENDBRANCH  27  32
ENDBRANCH  23  31
ENDBRANCH   1  23
TORSDOF 5
ENDMDL
MODEL 6
REMARK VINA RESULT:      -7.7      1.475      2.369
REMARK  Name = 
REMARK  8 active torsions:
REMARK  status: ('A' for Active; 'I' for Inactive)
REMARK    1  A    between atoms: C_1  and  C_2
REMARK    2  A    between atoms: C_4  and  C_5
REMARK    3  A    between atoms: C_8  and  C_9
REMARK    4  A    between atoms: C_10  and  O_11
REMARK    5  A    between atoms: O_11  and  C_12
REMARK    6  A    between atoms: N_15  and  C_16
REMARK    7  A    between atoms: C_19  and  S_20
REMARK    8  A    between atoms: S_20  and  C_21
REMARK                            x       y       z     vdW  Elec       q    Type
REMARK                         _______ _______ _______ _____ _____    ______ ____
ROOT
ATOM      1  C   UNL     1       4.115   5.558  18.743  0.00  0.00    +0.000 A 
ATOM      2  N   UNL     1       3.700   6.617  18.046  0.00  0.00    +0.000 NA
ATOM      3  C   UNL     1       2.516   7.159  18.325  0.00  0.00    +0.000 A 
ATOM      4  N   UNL     1       2.201   8.371  17.711  0.00  0.00    +0.000 N 
ATOM      5  N   UNL     1       1.654   6.613  19.170  0.00  0.00    +0.000 NA
ATOM      6  C   UNL     1       2.003   5.455  19.750  0.00  0.00    +0.000 A 
ATOM      7  C   UNL     1       3.259   4.877  19.598  0.00  0.00    +0.000 A 
ATOM      8  C   UNL     1       3.584   3.565  20.253  0.00  0.00    +0.000 C 
ATOM      9  C   UNL     1       2.580   3.168  21.347  0.00  0.00    +0.000 C 
ATOM     10  C   UNL     1       1.145   3.388  20.878  0.00  0.00    +0.000 C 
ATOM     11  C   UNL     1       0.924   4.866  20.610  0.00  0.00    +0.000 C 
ATOM     12  H   UNL     1       2.844   8.558  16.957  0.00  0.00    +0.000 HD
ENDROOT
BRANCH   4  13
ATOM     13  C   UNL     1       1.675   9.518  18.334  0.00  0.00    +0.000 A 
ATOM     14  C   UNL     1       0.497   9.492  19.097  0.00  0.00    +0.000 A 
ATOM     15  C   UNL     1      -0.052  10.661  19.625  0.00  0.00    +0.000 A 
ATOM     16  C   UNL     1       0.583  11.877  19.388  0.00  0.00    +0.000 A 
ATOM     17  C   UNL     1       1.751  11.933  18.626  0.00  0.00    +0.000 A 
ATOM     18  C   UNL     1       2.299  10.753  18.114  0.00  0.00    +0.000 A 
BRANCH  16  19
ATOM     19  S   UNL     1      -0.137  13.374  20.013  0.00  0.00    +0.000 S 
ATOM     20  C   UNL     1       0.977  13.838  21.311  0.00  0.00    +0.000 C 
ATOM     21  O   UNL     1      -0.048  14.371  18.967  0.00  0.00    +0.000 OA
ATOM     22  O   UNL     1      -1.413  13.034  20.615  0.00  0.00    +0.000 OA
ENDBRANCH  16  19
ENDBRANCH   4  13
BRANCH   1  23
ATOM     23  O   UNL     1       5.390   5.051  18.498  0.00  0.00    +0.000 OA
BRANCH  23  31
ATOM     24  C   UNL     1       7.627   7.036  17.272  0.00  0.00    +0.000 C 
ATOM     25  C   UNL     1       6.918   5.876  16.637  0.00  0.00    +0.000 A 
ATOM     26  C   UNL     1       7.287   5.701  15.280  0.00  0.00    +0.000 A 
ATOM     27  C   UNL     1       6.745   4.700  14.490  0.00  0.00    +0.000 A 
ATOM     28  C   UNL     1       5.827   3.829  15.053  0.00  0.00    +0.000 A 
ATOM     29  C   UNL     1       5.441   3.958  16.406  0.00  0.00    +0.000 A 
ATOM     30  C   UNL     1       4.438   2.952  16.915  0.00  0.00    +0.000 C 
ATOM     31  C   UNL     1       5.982   4.991  17.234  0.00  0.00    +0.000 A 
BRANCH  27  32
ATOM     32  C   UNL     1       7.128   4.587  13.118  0.00  0.00    +0.000 C 
ATOM     33  N   UNL     1       7.432   4.508  11.999  0.00  0.00    +0.000 NA
ENDBRANCH  27  32
ENDBRANCH  23  31
ENDBRANCH   1  23
TORSDOF 5
ENDMDL
MODEL 7
REMARK VINA RESULT:      -7.6      3.784      8.874
REMARK  Name = 
REMARK  8 active torsions:
REMARK  status: ('A' for Active; 'I' for Inactive)
REMARK    1  A    between atoms: C_1  and  C_2
REMARK    2  A    between atoms: C_4  and  C_5
REMARK    3  A    between atoms: C_8  and  C_9
REMARK    4  A    between atoms: C_10  and  O_11
REMARK    5  A    between atoms: O_11  and  C_12
REMARK    6  A    between atoms: N_15  and  C_16
REMARK    7  A    between atoms: C_19  and  S_20
REMARK    8  A    between atoms: S_20  and  C_21
REMARK                            x       y       z     vdW  Elec       q    Type
REMARK                         _______ _______ _______ _____ _____    ______ ____
ROOT
ATOM      1  C   UNL     1       3.160   6.045  19.726  0.00  0.00    +0.000 A 
ATOM      2  N   UNL     1       4.350   6.109  19.126  0.00  0.00    +0.000 NA
ATOM      3  C   UNL     1       4.808   5.044  18.472  0.00  0.00    +0.000 A 
ATOM      4  N   UNL     1       5.960   5.207  17.702  0.00  0.00    +0.000 N 
ATOM      5  N   UNL     1       4.207   3.864  18.503  0.00  0.00    +0.000 NA
ATOM      6  C   UNL     1       3.095   3.755  19.244  0.00  0.00    +0.000 A 
ATOM      7  C   UNL     1       2.489   4.839  19.869  0.00  0.00    +0.000 A 
ATOM      8  C   UNL     1       1.255   4.651  20.707  0.00  0.00    +0.000 C 
ATOM      9  C   UNL     1       0.571   3.294  20.482  0.00  0.00    +0.000 C 
ATOM     10  C   UNL     1       1.592   2.161  20.463  0.00  0.00    +0.000 C 
ATOM     11  C   UNL     1       2.544   2.360  19.296  0.00  0.00    +0.000 C 
ATOM     12  H   UNL     1       6.413   6.079  17.932  0.00  0.00    +0.000 HD
ENDROOT
BRANCH   4  13
ATOM     13  C   UNL     1       6.156   4.773  16.378  0.00  0.00    +0.000 A 
ATOM     14  C   UNL     1       7.264   5.163  15.609  0.00  0.00    +0.000 A 
ATOM     15  C   UNL     1       7.384   4.793  14.270  0.00  0.00    +0.000 A 
ATOM     16  C   UNL     1       6.383   4.022  13.685  0.00  0.00    +0.000 A 
ATOM     17  C   UNL     1       5.267   3.626  14.424  0.00  0.00    +0.000 A 
ATOM     18  C   UNL     1       5.165   3.992  15.770  0.00  0.00    +0.000 A 
BRANCH  16  19
ATOM     19  S   UNL     1       6.504   3.589  11.969  0.00  0.00    +0.000 S 
ATOM     20  C   UNL     1       4.808   3.452  11.473  0.00  0.00    +0.000 C 
ATOM     21  O   UNL     1       7.086   4.719  11.273  0.00  0.00    +0.000 OA
ATOM     22  O   UNL     1       7.105   2.270  11.885  0.00  0.00    +0.000 OA
ENDBRANCH  16  19
ENDBRANCH   4  13
BRANCH   1  23
ATOM     23  O   UNL     1       2.653   7.192  20.337  0.00  0.00    +0.000 OA
BRANCH  23  31
ATOM     24  C   UNL     1       2.740   8.122  17.242  0.00  0.00    +0.000 C 
ATOM     25  C   UNL     1       1.868   8.599  18.366  0.00  0.00    +0.000 A 
ATOM     26  C   UNL     1       1.007   9.651  17.965  0.00  0.00    +0.000 A 
ATOM     27  C   UNL     1       0.124  10.257  18.844  0.00  0.00    +0.000 A 
ATOM     28  C   UNL     1       0.068   9.806  20.153  0.00  0.00    +0.000 A 
ATOM     29  C   UNL     1       0.899   8.751  20.591  0.00  0.00    +0.000 A 
ATOM     30  C   UNL     1       0.750   8.338  22.035  0.00  0.00    +0.000 C 
ATOM     31  C   UNL     1       1.823   8.119  19.701  0.00  0.00    +0.000 A 
BRANCH  27  32
ATOM     32  C   UNL     1      -0.701  11.336  18.397  0.00  0.00    +0.000 C 
ATOM     33  N   UNL     1      -1.376  12.214  18.046  0.00  0.00    +0.000 NA
ENDBRANCH  27  32
ENDBRANCH  23  31
ENDBRANCH   1  23
TORSDOF 5
ENDMDL
MODEL 8
REMARK VINA RESULT:      -7.5      3.965     10.897
REMARK  Name = 
REMARK  8 active torsions:
REMARK  status: ('A' for Active; 'I' for Inactive)
REMARK    1  A    between atoms: C_1  and  C_2
REMARK    2  A    between atoms: C_4  and  C_5
REMARK    3  A    between atoms: C_8  and  C_9
REMARK    4  A    between atoms: C_10  and  O_11
REMARK    5  A    between atoms: O_11  and  C_12
REMARK    6  A    between atoms: N_15  and  C_16
REMARK    7  A    between atoms: C_19  and  S_20
REMARK    8  A    between atoms: S_20  and  C_21
REMARK                            x       y       z     vdW  Elec       q    Type
REMARK                         _______ _______ _______ _____ _____    ______ ____
ROOT
ATOM      1  C   UNL     1       0.835  12.945  21.045  0.00  0.00    +0.000 A 
ATOM      2  N   UNL     1       0.427  11.733  20.662  0.00  0.00    +0.000 NA
ATOM      3  C   UNL     1       0.975  11.171  19.587  0.00  0.00    +0.000 A 
ATOM      4  N   UNL     1       0.664   9.836  19.328  0.00  0.00    +0.000 N 
ATOM      5  N   UNL     1       1.810  11.813  18.783  0.00  0.00    +0.000 NA
ATOM      6  C   UNL     1       2.094  13.090  19.076  0.00  0.00    +0.000 A 
ATOM      7  C   UNL     1       1.652  13.720  20.235  0.00  0.00    +0.000 A 
ATOM      8  C   UNL     1       1.983  15.162  20.498  0.00  0.00    +0.000 C 
ATOM      9  C   UNL     1       3.109  15.699  19.601  0.00  0.00    +0.000 C 
ATOM     10  C   UNL     1       2.904  15.274  18.150  0.00  0.00    +0.000 C 
ATOM     11  C   UNL     1       2.967  13.760  18.056  0.00  0.00    +0.000 C 
ATOM     12  H   UNL     1      -0.123   9.546  19.889  0.00  0.00    +0.000 HD
ENDROOT
BRANCH   4  13
ATOM     13  C   UNL     1       1.569   8.808  19.008  0.00  0.00    +0.000 A 
ATOM     14  C   UNL     1       2.185   8.705  17.751  0.00  0.00    +0.000 A 
ATOM     15  C   UNL     1       3.006   7.624  17.431  0.00  0.00    +0.000 A 
ATOM     16  C   UNL     1       3.216   6.626  18.379  0.00  0.00    +0.000 A 
ATOM     17  C   UNL     1       2.610   6.699  19.635  0.00  0.00    +0.000 A 
ATOM     18  C   UNL     1       1.801   7.795  19.948  0.00  0.00    +0.000 A 
BRANCH  16  19
ATOM     19  S   UNL     1       4.218   5.222  17.962  0.00  0.00    +0.000 S 
ATOM     20  C   UNL     1       3.017   3.981  17.564  0.00  0.00    +0.000 C 
ATOM     21  O   UNL     1       4.944   5.548  16.752  0.00  0.00    +0.000 OA
ATOM     22  O   UNL     1       4.917   4.803  19.163  0.00  0.00    +0.000 OA
ENDBRANCH  16  19
ENDBRANCH   4  13
BRANCH   1  23
ATOM     23  O   UNL     1       0.315  13.488  22.219  0.00  0.00    +0.000 OA
BRANCH  23  31
ATOM     24  C   UNL     1      -1.023  10.716  23.207  0.00  0.00    +0.000 C 
ATOM     25  C   UNL     1      -1.636  12.076  23.048  0.00  0.00    +0.000 A 
ATOM     26  C   UNL     1      -3.021  12.077  23.342  0.00  0.00    +0.000 A 
ATOM     27  C   UNL     1      -3.796  13.222  23.246  0.00  0.00    +0.000 A 
ATOM     28  C   UNL     1      -3.189  14.410  22.871  0.00  0.00    +0.000 A 
ATOM     29  C   UNL     1      -1.807  14.457  22.583  0.00  0.00    +0.000 A 
ATOM     30  C   UNL     1      -1.251  15.804  22.189  0.00  0.00    +0.000 C 
ATOM     31  C   UNL     1      -0.994  13.284  22.667  0.00  0.00    +0.000 A 
BRANCH  27  32
ATOM     32  C   UNL     1      -5.197  13.161  23.523  0.00  0.00    +0.000 C 
ATOM     33  N   UNL     1      -6.336  13.126  23.749  0.00  0.00    +0.000 NA
ENDBRANCH  27  32
ENDBRANCH  23  31
ENDBRANCH   1  23
TORSDOF 5
ENDMDL
MODEL 9
REMARK VINA RESULT:      -7.4      3.935     10.721
REMARK  Name = 
REMARK  8 active torsions:
REMARK  status: ('A' for Active; 'I' for Inactive)
REMARK    1  A    between atoms: C_1  and  C_2
REMARK    2  A    between atoms: C_4  and  C_5
REMARK    3  A    between atoms: C_8  and  C_9
REMARK    4  A    between atoms: C_10  and  O_11
REMARK    5  A    between atoms: O_11  and  C_12
REMARK    6  A    between atoms: N_15  and  C_16
REMARK    7  A    between atoms: C_19  and  S_20
REMARK    8  A    between atoms: S_20  and  C_21
REMARK                            x       y       z     vdW  Elec       q    Type
REMARK                         _______ _______ _______ _____ _____    ______ ____
ROOT
ATOM      1  C   UNL     1       0.242  13.446  19.439  0.00  0.00    +0.000 A 
ATOM      2  N   UNL     1       0.004  12.234  18.933  0.00  0.00    +0.000 NA
ATOM      3  C   UNL     1       1.012  11.534  18.417  0.00  0.00    +0.000 A 
ATOM      4  N   UNL     1       0.764  10.205  18.073  0.00  0.00    +0.000 N 
ATOM      5  N   UNL     1       2.226  12.036  18.245  0.00  0.00    +0.000 NA
ATOM      6  C   UNL     1       2.425  13.313  18.603  0.00  0.00    +0.000 A 
ATOM      7  C   UNL     1       1.461  14.080  19.248  0.00  0.00    +0.000 A 
ATOM      8  C   UNL     1       1.734  15.515  19.602  0.00  0.00    +0.000 C 
ATOM      9  C   UNL     1       3.224  15.884  19.533  0.00  0.00    +0.000 C 
ATOM     10  C   UNL     1       3.866  15.336  18.263  0.00  0.00    +0.000 C 
ATOM     11  C   UNL     1       3.800  13.819  18.280  0.00  0.00    +0.000 C 
ATOM     12  H   UNL     1      -0.229  10.026  18.065  0.00  0.00    +0.000 HD
ENDROOT
BRANCH   4  13
ATOM     13  C   UNL     1       1.560   9.091  18.392  0.00  0.00    +0.000 A 
ATOM     14  C   UNL     1       2.418   8.480  17.463  0.00  0.00    +0.000 A 
ATOM     15  C   UNL     1       3.125   7.321  17.780  0.00  0.00    +0.000 A 
ATOM     16  C   UNL     1       2.976   6.758  19.045  0.00  0.00    +0.000 A 
ATOM     17  C   UNL     1       2.125   7.340  19.987  0.00  0.00    +0.000 A 
ATOM     18  C   UNL     1       1.432   8.509  19.661  0.00  0.00    +0.000 A 
BRANCH  16  19
ATOM     19  S   UNL     1       3.833   5.255  19.438  0.00  0.00    +0.000 S 
ATOM     20  C   UNL     1       3.763   4.347  17.918  0.00  0.00    +0.000 C 
ATOM     21  O   UNL     1       5.217   5.596  19.695  0.00  0.00    +0.000 OA
ATOM     22  O   UNL     1       3.045   4.540  20.426  0.00  0.00    +0.000 OA
ENDBRANCH  16  19
ENDBRANCH   4  13
BRANCH   1  23
ATOM     23  O   UNL     1      -0.804  14.135  20.051  0.00  0.00    +0.000 OA
BRANCH  23  31
ATOM     24  C   UNL     1      -3.442  12.349  19.503  0.00  0.00    +0.000 C 
ATOM     25  C   UNL     1      -2.865  12.839  20.798  0.00  0.00    +0.000 A 
ATOM     26  C   UNL     1      -3.664  12.478  21.911  0.00  0.00    +0.000 A 
ATOM     27  C   UNL     1      -3.332  12.840  23.207  0.00  0.00    +0.000 A 
ATOM     28  C   UNL     1      -2.169  13.561  23.422  0.00  0.00    +0.000 A 
ATOM     29  C   UNL     1      -1.335  13.930  22.342  0.00  0.00    +0.000 A 
ATOM     30  C   UNL     1      -0.092  14.709  22.693  0.00  0.00    +0.000 C 
ATOM     31  C   UNL     1      -1.667  13.574  20.998  0.00  0.00    +0.000 A 
BRANCH  27  32
ATOM     32  C   UNL     1      -4.190  12.477  24.291  0.00  0.00    +0.000 C 
ATOM     33  N   UNL     1      -4.881  12.169  25.172  0.00  0.00    +0.000 NA
ENDBRANCH  27  32
ENDBRANCH  23  31
ENDBRANCH   1  23
TORSDOF 5
ENDMDL
