MODEL 1
REMARK VINA RESULT:      -7.2      0.000      0.000
REMARK  Name = 
REMARK  8 active torsions:
REMARK  status: ('A' for Active; 'I' for Inactive)
REMARK    1  A    between atoms: N_2  and  C_4
REMARK    2  A    between atoms: N_8  and  C_9
REMARK    3  A    between atoms: C_9  and  C_10
REMARK    4  A    between atoms: C_10  and  N_11
REMARK    5  A    between atoms: N_11  and  C_12
REMARK    6  A    between atoms: N_11  and  C_15
REMARK    7  A    between atoms: C_12  and  C_13
REMARK    8  A    between atoms: C_15  and  C_16
REMARK                            x       y       z     vdW  Elec       q    Type
REMARK                         _______ _______ _______ _____ _____    ______ ____
ROOT
ATOM      1  N   UNL     1       2.999   6.882  18.663  0.00  0.00    +0.000 NA
ENDROOT
BRANCH   1   2
ATOM      2  C   UNL     1       4.001   7.175  17.596  0.00  0.00    +0.000 C 
BRANCH   2   3
ATOM      3  C   UNL     1       4.509   5.971  16.778  0.00  0.00    +0.000 C 
BRANCH   3   8
ATOM      4  C   UNL     1       6.831   4.861  16.700  0.00  0.00    +0.000 A 
ATOM      5  C   UNL     1       7.735   4.569  17.693  0.00  0.00    +0.000 A 
ATOM      6  N   UNL     1       7.226   4.922  18.917  0.00  0.00    +0.000 NA
ATOM      7  C   UNL     1       6.039   5.426  18.667  0.00  0.00    +0.000 A 
ATOM      8  N   UNL     1       5.744   5.417  17.323  0.00  0.00    +0.000 N 
BRANCH   4  10
ATOM      9  O   UNL     1       7.761   5.377  14.705  0.00  0.00    +0.000 OA
ATOM     10  N   UNL     1       6.981   4.632  15.305  0.00  0.00    +0.000 N 
ATOM     11  O   UNL     1       6.339   3.703  14.803  0.00  0.00    +0.000 OA
ENDBRANCH   4  10
ENDBRANCH   3   8
ENDBRANCH   2   3
ENDBRANCH   1   2
BRANCH   1  12
ATOM     12  C   UNL     1       2.116   8.059  18.888  0.00  0.00    +0.000 C 
BRANCH  12  13
ATOM     13  C   UNL     1       2.098   9.096  17.757  0.00  0.00    +0.000 C 
ATOM     14 BR   UNL     1       1.415  10.794  18.446  0.00  0.00    +0.000 Br
ENDBRANCH  12  13
ENDBRANCH   1  12
BRANCH   1  15
ATOM     15  C   UNL     1       2.172   5.710  18.253  0.00  0.00    +0.000 C 
BRANCH  15  16
ATOM     16  C   UNL     1       1.957   4.690  19.348  0.00  0.00    +0.000 A 
ATOM     17  C   UNL     1       2.440   4.908  20.648  0.00  0.00    +0.000 A 
ATOM     18  C   UNL     1       2.268   3.931  21.631  0.00  0.00    +0.000 A 
ATOM     19  C   UNL     1       1.611   2.744  21.318  0.00  0.00    +0.000 A 
ATOM     20  F   UNL     1       1.466   1.803  22.260  0.00  0.00    +0.000 F 
ATOM     21  C   UNL     1       1.110   2.516  20.044  0.00  0.00    +0.000 A 
ATOM     22  C   UNL     1       1.284   3.492  19.072  0.00  0.00    +0.000 A 
ATOM     23  F   UNL     1       0.814   3.260  17.838  0.00  0.00    +0.000 F 
ENDBRANCH  15  16
ENDBRANCH   1  15
TORSDOF 8
ENDMDL
MODEL 2
REMARK VINA RESULT:      -7.0      1.450      1.952
REMARK  Name = 
REMARK  8 active torsions:
REMARK  status: ('A' for Active; 'I' for Inactive)
REMARK    1  A    between atoms: N_2  and  C_4
REMARK    2  A    between atoms: N_8  and  C_9
REMARK    3  A    between atoms: C_9  and  C_10
REMARK    4  A    between atoms: C_10  and  N_11
REMARK    5  A    between atoms: N_11  and  C_12
REMARK    6  A    between atoms: N_11  and  C_15
REMARK    7  A    between atoms: C_12  and  C_13
REMARK    8  A    between atoms: C_15  and  C_16
REMARK                            x       y       z     vdW  Elec       q    Type
REMARK                         _______ _______ _______ _____ _____    ______ ____
ROOT
ATOM      1  N   UNL     1       3.252   6.916  18.354  0.00  0.00    +0.000 NA
ENDROOT
BRANCH   1   2
ATOM      2  C   UNL     1       4.012   7.470  17.194  0.00  0.00    +0.000 C 
BRANCH   2   3
ATOM      3  C   UNL     1       5.508   7.106  17.113  0.00  0.00    +0.000 C 
BRANCH   3   8
ATOM      4  C   UNL     1       6.246   4.655  16.846  0.00  0.00    +0.000 A 
ATOM      5  C   UNL     1       6.163   3.788  15.782  0.00  0.00    +0.000 A 
ATOM      6  N   UNL     1       5.620   4.423  14.695  0.00  0.00    +0.000 NA
ATOM      7  C   UNL     1       5.370   5.649  15.097  0.00  0.00    +0.000 A 
ATOM      8  N   UNL     1       5.731   5.848  16.410  0.00  0.00    +0.000 N 
BRANCH   4  10
ATOM      9  O   UNL     1       7.992   4.408  18.262  0.00  0.00    +0.000 OA
ATOM     10  N   UNL     1       6.764   4.380  18.142  0.00  0.00    +0.000 N 
ATOM     11  O   UNL     1       5.955   4.150  19.047  0.00  0.00    +0.000 OA
ENDBRANCH   4  10
ENDBRANCH   3   8
ENDBRANCH   2   3
ENDBRANCH   1   2
BRANCH   1  12
ATOM     12  C   UNL     1       2.205   7.875  18.798  0.00  0.00    +0.000 C 
BRANCH  12  13
ATOM     13  C   UNL     1       1.929   9.042  17.841  0.00  0.00    +0.000 C 
ATOM     14 BR   UNL     1       0.544  10.193  18.604  0.00  0.00    +0.000 Br
ENDBRANCH  12  13
ENDBRANCH   1  12
BRANCH   1  15
ATOM     15  C   UNL     1       2.612   5.629  17.953  0.00  0.00    +0.000 C 
BRANCH  15  16
ATOM     16  C   UNL     1       2.186   4.759  19.113  0.00  0.00    +0.000 A 
ATOM     17  C   UNL     1       2.687   4.979  20.407  0.00  0.00    +0.000 A 
ATOM     18  C   UNL     1       2.313   4.134  21.454  0.00  0.00    +0.000 A 
ATOM     19  C   UNL     1       1.438   3.079  21.212  0.00  0.00    +0.000 A 
ATOM     20  F   UNL     1       1.098   2.262  22.217  0.00  0.00    +0.000 F 
ATOM     21  C   UNL     1       0.917   2.856  19.945  0.00  0.00    +0.000 A 
ATOM     22  C   UNL     1       1.292   3.700  18.908  0.00  0.00    +0.000 A 
ATOM     23  F   UNL     1       0.800   3.470  17.683  0.00  0.00    +0.000 F 
ENDBRANCH  15  16
ENDBRANCH   1  15
TORSDOF 8
ENDMDL
MODEL 3
REMARK VINA RESULT:      -7.0      3.819      5.541
REMARK  Name = 
REMARK  8 active torsions:
REMARK  status: ('A' for Active; 'I' for Inactive)
REMARK    1  A    between atoms: N_2  and  C_4
REMARK    2  A    between atoms: N_8  and  C_9
REMARK    3  A    between atoms: C_9  and  C_10
REMARK    4  A    between atoms: C_10  and  N_11
REMARK    5  A    between atoms: N_11  and  C_12
REMARK    6  A    between atoms: N_11  and  C_15
REMARK    7  A    between atoms: C_12  and  C_13
REMARK    8  A    between atoms: C_15  and  C_16
REMARK                            x       y       z     vdW  Elec       q    Type
REMARK                         _______ _______ _______ _____ _____    ______ ____
ROOT
ATOM      1  N   UNL     1       3.364   5.631  18.682  0.00  0.00    +0.000 NA
ENDROOT
BRANCH   1   2
ATOM      2  C   UNL     1       2.821   4.642  17.704  0.00  0.00    +0.000 C 
BRANCH   2   3
ATOM      3  C   UNL     1       1.717   3.697  18.220  0.00  0.00    +0.000 C 
BRANCH   3   8
ATOM      4  C   UNL     1       2.909   2.545  20.189  0.00  0.00    +0.000 A 
ATOM      5  C   UNL     1       2.660   2.561  21.540  0.00  0.00    +0.000 A 
ATOM      6  N   UNL     1       1.542   3.309  21.808  0.00  0.00    +0.000 NA
ATOM      7  C   UNL     1       1.127   3.744  20.640  0.00  0.00    +0.000 A 
ATOM      8  N   UNL     1       1.930   3.309  19.609  0.00  0.00    +0.000 N 
BRANCH   4  10
ATOM      9  O   UNL     1       5.089   1.975  20.012  0.00  0.00    +0.000 OA
ATOM     10  N   UNL     1       3.965   1.870  19.516  0.00  0.00    +0.000 N 
ATOM     11  O   UNL     1       3.678   1.222  18.504  0.00  0.00    +0.000 OA
ENDBRANCH   4  10
ENDBRANCH   3   8
ENDBRANCH   2   3
ENDBRANCH   1   2
BRANCH   1  12
ATOM     12  C   UNL     1       4.828   5.433  18.866  0.00  0.00    +0.000 C 
BRANCH  12  13
ATOM     13  C   UNL     1       5.525   4.610  17.775  0.00  0.00    +0.000 C 
ATOM     14 BR   UNL     1       7.453   4.934  17.853  0.00  0.00    +0.000 Br
ENDBRANCH  12  13
ENDBRANCH   1  12
BRANCH   1  15
ATOM     15  C   UNL     1       3.108   7.012  18.178  0.00  0.00    +0.000 C 
BRANCH  15  16
ATOM     16  C   UNL     1       2.202   7.837  19.065  0.00  0.00    +0.000 A 
ATOM     17  C   UNL     1       1.911   7.436  20.378  0.00  0.00    +0.000 A 
ATOM     18  C   UNL     1       1.036   8.191  21.162  0.00  0.00    +0.000 A 
ATOM     19  C   UNL     1       0.460   9.345  20.639  0.00  0.00    +0.000 A 
ATOM     20  F   UNL     1      -0.391  10.055  21.390  0.00  0.00    +0.000 F 
ATOM     21  C   UNL     1       0.749   9.769  19.350  0.00  0.00    +0.000 A 
ATOM     22  C   UNL     1       1.620   9.014  18.576  0.00  0.00    +0.000 A 
ATOM     23  F   UNL     1       1.882   9.418  17.324  0.00  0.00    +0.000 F 
ENDBRANCH  15  16
ENDBRANCH   1  15
TORSDOF 8
ENDMDL
MODEL 4
REMARK VINA RESULT:      -7.0      4.627      6.837
REMARK  Name = 
REMARK  8 active torsions:
REMARK  status: ('A' for Active; 'I' for Inactive)
REMARK    1  A    between atoms: N_2  and  C_4
REMARK    2  A    between atoms: N_8  and  C_9
REMARK    3  A    between atoms: C_9  and  C_10
REMARK    4  A    between atoms: C_10  and  N_11
REMARK    5  A    between atoms: N_11  and  C_12
REMARK    6  A    between atoms: N_11  and  C_15
REMARK    7  A    between atoms: C_12  and  C_13
REMARK    8  A    between atoms: C_15  and  C_16
REMARK                            x       y       z     vdW  Elec       q    Type
REMARK                         _______ _______ _______ _____ _____    ______ ____
ROOT
ATOM      1  N   UNL     1       2.801   4.827  18.172  0.00  0.00    +0.000 NA
ENDROOT
BRANCH   1   2
ATOM      2  C   UNL     1       2.379   6.257  18.086  0.00  0.00    +0.000 C 
BRANCH   2   3
ATOM      3  C   UNL     1       2.391   7.060  19.402  0.00  0.00    +0.000 C 
BRANCH   3   8
ATOM      4  C   UNL     1       1.076   9.151  20.126  0.00  0.00    +0.000 A 
ATOM      5  C   UNL     1       0.813  10.333  19.476  0.00  0.00    +0.000 A 
ATOM      6  N   UNL     1       1.338  10.304  18.209  0.00  0.00    +0.000 NA
ATOM      7  C   UNL     1       1.917   9.130  18.100  0.00  0.00    +0.000 A 
ATOM      8  N   UNL     1       1.791   8.380  19.247  0.00  0.00    +0.000 N 
BRANCH   4  10
ATOM      9  O   UNL     1       1.523   8.964  22.335  0.00  0.00    +0.000 OA
ATOM     10  N   UNL     1       0.686   8.790  21.445  0.00  0.00    +0.000 N 
ATOM     11  O   UNL     1      -0.457   8.348  21.605  0.00  0.00    +0.000 OA
ENDBRANCH   4  10
ENDBRANCH   3   8
ENDBRANCH   2   3
ENDBRANCH   1   2
BRANCH   1  12
ATOM     12  C   UNL     1       1.671   3.927  17.814  0.00  0.00    +0.000 C 
BRANCH  12  13
ATOM     13  C   UNL     1       1.401   2.782  18.799  0.00  0.00    +0.000 C 
ATOM     14 BR   UNL     1       1.240   3.509  20.608  0.00  0.00    +0.000 Br
ENDBRANCH  12  13
ENDBRANCH   1  12
BRANCH   1  15
ATOM     15  C   UNL     1       3.940   4.594  17.237  0.00  0.00    +0.000 C 
BRANCH  15  16
ATOM     16  C   UNL     1       5.229   5.268  17.649  0.00  0.00    +0.000 A 
ATOM     17  C   UNL     1       5.888   4.909  18.836  0.00  0.00    +0.000 A 
ATOM     18  C   UNL     1       7.053   5.577  19.219  0.00  0.00    +0.000 A 
ATOM     19  C   UNL     1       7.561   6.595  18.416  0.00  0.00    +0.000 A 
ATOM     20  F   UNL     1       8.669   7.243  18.798  0.00  0.00    +0.000 F 
ATOM     21  C   UNL     1       6.936   6.952  17.230  0.00  0.00    +0.000 A 
ATOM     22  C   UNL     1       5.778   6.284  16.856  0.00  0.00    +0.000 A 
ATOM     23  F   UNL     1       5.167   6.645  15.718  0.00  0.00    +0.000 F 
ENDBRANCH  15  16
ENDBRANCH   1  15
TORSDOF 8
ENDMDL
MODEL 5
REMARK VINA RESULT:      -7.0      2.525      3.388
REMARK  Name = 
REMARK  8 active torsions:
REMARK  status: ('A' for Active; 'I' for Inactive)
REMARK    1  A    between atoms: N_2  and  C_4
REMARK    2  A    between atoms: N_8  and  C_9
REMARK    3  A    between atoms: C_9  and  C_10
REMARK    4  A    between atoms: C_10  and  N_11
REMARK    5  A    between atoms: N_11  and  C_12
REMARK    6  A    between atoms: N_11  and  C_15
REMARK    7  A    between atoms: C_12  and  C_13
REMARK    8  A    between atoms: C_15  and  C_16
REMARK                            x       y       z     vdW  Elec       q    Type
REMARK                         _______ _______ _______ _____ _____    ______ ____
ROOT
ATOM      1  N   UNL     1       4.875   4.425  17.457  0.00  0.00    +0.000 NA
ENDROOT
BRANCH   1   2
ATOM      2  C   UNL     1       5.222   4.887  16.079  0.00  0.00    +0.000 C 
BRANCH   2   3
ATOM      3  C   UNL     1       5.346   3.797  14.997  0.00  0.00    +0.000 C 
BRANCH   3   8
ATOM      4  C   UNL     1       6.300   3.843  12.607  0.00  0.00    +0.000 A 
ATOM      5  C   UNL     1       7.351   4.539  12.058  0.00  0.00    +0.000 A 
ATOM      6  N   UNL     1       7.979   5.287  13.021  0.00  0.00    +0.000 NA
ATOM      7  C   UNL     1       7.314   5.054  14.130  0.00  0.00    +0.000 A 
ATOM      8  N   UNL     1       6.271   4.178  13.935  0.00  0.00    +0.000 N 
BRANCH   4  10
ATOM      9  O   UNL     1       5.887   1.857  11.608  0.00  0.00    +0.000 OA
ATOM     10  N   UNL     1       5.418   2.949  11.939  0.00  0.00    +0.000 N 
ATOM     11  O   UNL     1       4.254   3.321  11.756  0.00  0.00    +0.000 OA
ENDBRANCH   4  10
ENDBRANCH   3   8
ENDBRANCH   2   3
ENDBRANCH   1   2
BRANCH   1  12
ATOM     12  C   UNL     1       4.471   5.577  18.307  0.00  0.00    +0.000 C 
BRANCH  12  13
ATOM     13  C   UNL     1       4.169   6.880  17.555  0.00  0.00    +0.000 C 
ATOM     14 BR   UNL     1       2.436   7.576  18.136  0.00  0.00    +0.000 Br
ENDBRANCH  12  13
ENDBRANCH   1  12
BRANCH   1  15
ATOM     15  C   UNL     1       3.752   3.446  17.378  0.00  0.00    +0.000 C 
BRANCH  15  16
ATOM     16  C   UNL     1       3.014   3.243  18.681  0.00  0.00    +0.000 A 
ATOM     17  C   UNL     1       3.641   2.643  19.785  0.00  0.00    +0.000 A 
ATOM     18  C   UNL     1       2.925   2.425  20.963  0.00  0.00    +0.000 A 
ATOM     19  C   UNL     1       1.590   2.810  21.041  0.00  0.00    +0.000 A 
ATOM     20  F   UNL     1       0.903   2.582  22.169  0.00  0.00    +0.000 F 
ATOM     21  C   UNL     1       0.956   3.421  19.969  0.00  0.00    +0.000 A 
ATOM     22  C   UNL     1       1.674   3.635  18.800  0.00  0.00    +0.000 A 
ATOM     23  F   UNL     1       1.052   4.210  17.760  0.00  0.00    +0.000 F 
ENDBRANCH  15  16
ENDBRANCH   1  15
TORSDOF 8
ENDMDL
MODEL 6
REMARK VINA RESULT:      -6.9      2.807      3.818
REMARK  Name = 
REMARK  8 active torsions:
REMARK  status: ('A' for Active; 'I' for Inactive)
REMARK    1  A    between atoms: N_2  and  C_4
REMARK    2  A    between atoms: N_8  and  C_9
REMARK    3  A    between atoms: C_9  and  C_10
REMARK    4  A    between atoms: C_10  and  N_11
REMARK    5  A    between atoms: N_11  and  C_12
REMARK    6  A    between atoms: N_11  and  C_15
REMARK    7  A    between atoms: C_12  and  C_13
REMARK    8  A    between atoms: C_15  and  C_16
REMARK                            x       y       z     vdW  Elec       q    Type
REMARK                         _______ _______ _______ _____ _____    ______ ____
ROOT
ATOM      1  N   UNL     1       5.578   4.315  17.604  0.00  0.00    +0.000 NA
ENDROOT
BRANCH   1   2
ATOM      2  C   UNL     1       6.407   4.140  16.374  0.00  0.00    +0.000 C 
BRANCH   2   3
ATOM      3  C   UNL     1       5.644   3.971  15.045  0.00  0.00    +0.000 C 
BRANCH   3   8
ATOM      4  C   UNL     1       6.372   3.970  12.576  0.00  0.00    +0.000 A 
ATOM      5  C   UNL     1       7.350   4.673  11.914  0.00  0.00    +0.000 A 
ATOM      6  N   UNL     1       8.047   5.461  12.794  0.00  0.00    +0.000 NA
ATOM      7  C   UNL     1       7.493   5.245  13.966  0.00  0.00    +0.000 A 
ATOM      8  N   UNL     1       6.458   4.342  13.893  0.00  0.00    +0.000 N 
BRANCH   4  10
ATOM      9  O   UNL     1       5.892   1.914  11.768  0.00  0.00    +0.000 OA
ATOM     10  N   UNL     1       5.453   3.040  12.018  0.00  0.00    +0.000 N 
ATOM     11  O   UNL     1       4.290   3.417  11.840  0.00  0.00    +0.000 OA
ENDBRANCH   4  10
ENDBRANCH   3   8
ENDBRANCH   2   3
ENDBRANCH   1   2
BRANCH   1  12
ATOM     12  C   UNL     1       5.783   5.670  18.183  0.00  0.00    +0.000 C 
BRANCH  12  13
ATOM     13  C   UNL     1       5.983   6.800  17.165  0.00  0.00    +0.000 C 
ATOM     14 BR   UNL     1       7.647   7.747  17.567  0.00  0.00    +0.000 Br
ENDBRANCH  12  13
ENDBRANCH   1  12
BRANCH   1  15
ATOM     15  C   UNL     1       4.139   4.133  17.256  0.00  0.00    +0.000 C 
BRANCH  15  16
ATOM     16  C   UNL     1       3.259   3.763  18.428  0.00  0.00    +0.000 A 
ATOM     17  C   UNL     1       3.804   3.210  19.598  0.00  0.00    +0.000 A 
ATOM     18  C   UNL     1       2.966   2.835  20.650  0.00  0.00    +0.000 A 
ATOM     19  C   UNL     1       1.591   3.016  20.537  0.00  0.00    +0.000 A 
ATOM     20  F   UNL     1       0.791   2.637  21.542  0.00  0.00    +0.000 F 
ATOM     21  C   UNL     1       1.033   3.578  19.397  0.00  0.00    +0.000 A 
ATOM     22  C   UNL     1       1.872   3.950  18.355  0.00  0.00    +0.000 A 
ATOM     23  F   UNL     1       1.328   4.475  17.248  0.00  0.00    +0.000 F 
ENDBRANCH  15  16
ENDBRANCH   1  15
TORSDOF 8
ENDMDL
MODEL 7
REMARK VINA RESULT:      -6.9      3.286      5.010
REMARK  Name = 
REMARK  8 active torsions:
REMARK  status: ('A' for Active; 'I' for Inactive)
REMARK    1  A    between atoms: N_2  and  C_4
REMARK    2  A    between atoms: N_8  and  C_9
REMARK    3  A    between atoms: C_9  and  C_10
REMARK    4  A    between atoms: C_10  and  N_11
REMARK    5  A    between atoms: N_11  and  C_12
REMARK    6  A    between atoms: N_11  and  C_15
REMARK    7  A    between atoms: C_12  and  C_13
REMARK    8  A    between atoms: C_15  and  C_16
REMARK                            x       y       z     vdW  Elec       q    Type
REMARK                         _______ _______ _______ _____ _____    ______ ____
ROOT
ATOM      1  N   UNL     1       2.121   5.515  18.587  0.00  0.00    +0.000 NA
ENDROOT
BRANCH   1   2
ATOM      2  C   UNL     1       3.214   5.039  17.686  0.00  0.00    +0.000 C 
BRANCH   2   3
ATOM      3  C   UNL     1       4.641   5.515  18.021  0.00  0.00    +0.000 C 
BRANCH   3   8
ATOM      4  C   UNL     1       6.865   5.628  16.731  0.00  0.00    +0.000 A 
ATOM      5  C   UNL     1       7.329   4.918  15.649  0.00  0.00    +0.000 A 
ATOM      6  N   UNL     1       6.369   4.044  15.209  0.00  0.00    +0.000 NA
ATOM      7  C   UNL     1       5.346   4.216  16.016  0.00  0.00    +0.000 A 
ATOM      8  N   UNL     1       5.595   5.174  16.972  0.00  0.00    +0.000 N 
BRANCH   4  10
ATOM      9  O   UNL     1       7.678   7.731  16.902  0.00  0.00    +0.000 OA
ATOM     10  N   UNL     1       7.556   6.637  17.458  0.00  0.00    +0.000 N 
ATOM     11  O   UNL     1       7.964   6.351  18.589  0.00  0.00    +0.000 OA
ENDBRANCH   4  10
ENDBRANCH   3   8
ENDBRANCH   2   3
ENDBRANCH   1   2
BRANCH   1  12
ATOM     12  C   UNL     1       1.571   4.384  19.383  0.00  0.00    +0.000 C 
BRANCH  12  13
ATOM     13  C   UNL     1       1.843   4.445  20.892  0.00  0.00    +0.000 C 
ATOM     14 BR   UNL     1       1.533   2.681  21.678  0.00  0.00    +0.000 Br
ENDBRANCH  12  13
ENDBRANCH   1  12
BRANCH   1  15
ATOM     15  C   UNL     1       2.663   6.556  19.508  0.00  0.00    +0.000 C 
BRANCH  15  16
ATOM     16  C   UNL     1       2.028   7.918  19.345  0.00  0.00    +0.000 A 
ATOM     17  C   UNL     1       2.094   8.609  18.124  0.00  0.00    +0.000 A 
ATOM     18  C   UNL     1       1.540   9.885  18.011  0.00  0.00    +0.000 A 
ATOM     19  C   UNL     1       0.916  10.467  19.111  0.00  0.00    +0.000 A 
ATOM     20  F   UNL     1       0.402  11.699  19.001  0.00  0.00    +0.000 F 
ATOM     21  C   UNL     1       0.823   9.795  20.322  0.00  0.00    +0.000 A 
ATOM     22  C   UNL     1       1.377   8.526  20.427  0.00  0.00    +0.000 A 
ATOM     23  F   UNL     1       1.300   7.887  21.603  0.00  0.00    +0.000 F 
ENDBRANCH  15  16
ENDBRANCH   1  15
TORSDOF 8
ENDMDL
MODEL 8
REMARK VINA RESULT:      -6.8      2.811      4.426
REMARK  Name = 
REMARK  8 active torsions:
REMARK  status: ('A' for Active; 'I' for Inactive)
REMARK    1  A    between atoms: N_2  and  C_4
REMARK    2  A    between atoms: N_8  and  C_9
REMARK    3  A    between atoms: C_9  and  C_10
REMARK    4  A    between atoms: C_10  and  N_11
REMARK    5  A    between atoms: N_11  and  C_12
REMARK    6  A    between atoms: N_11  and  C_15
REMARK    7  A    between atoms: C_12  and  C_13
REMARK    8  A    between atoms: C_15  and  C_16
REMARK                            x       y       z     vdW  Elec       q    Type
REMARK                         _______ _______ _______ _____ _____    ______ ____
ROOT
ATOM      1  N   UNL     1       2.794   5.400  18.176  0.00  0.00    +0.000 NA
ENDROOT
BRANCH   1   2
ATOM      2  C   UNL     1       3.800   5.467  17.075  0.00  0.00    +0.000 C 
BRANCH   2   3
ATOM      3  C   UNL     1       5.017   6.384  17.306  0.00  0.00    +0.000 C 
BRANCH   3   8
ATOM      4  C   UNL     1       7.081   4.889  16.942  0.00  0.00    +0.000 A 
ATOM      5  C   UNL     1       8.059   4.459  17.806  0.00  0.00    +0.000 A 
ATOM      6  N   UNL     1       7.803   4.911  19.075  0.00  0.00    +0.000 NA
ATOM      7  C   UNL     1       6.694   5.610  18.978  0.00  0.00    +0.000 A 
ATOM      8  N   UNL     1       6.207   5.633  17.691  0.00  0.00    +0.000 N 
BRANCH   4  10
ATOM      9  O   UNL     1       7.638   5.344  14.799  0.00  0.00    +0.000 OA
ATOM     10  N   UNL     1       6.983   4.617  15.549  0.00  0.00    +0.000 N 
ATOM     11  O   UNL     1       6.270   3.671  15.198  0.00  0.00    +0.000 OA
ENDBRANCH   4  10
ENDBRANCH   3   8
ENDBRANCH   2   3
ENDBRANCH   1   2
BRANCH   1  12
ATOM     12  C   UNL     1       2.805   4.055  18.813  0.00  0.00    +0.000 C 
BRANCH  12  13
ATOM     13  C   UNL     1       1.455   3.573  19.361  0.00  0.00    +0.000 C 
ATOM     14 BR   UNL     1       1.605   3.283  21.289  0.00  0.00    +0.000 Br
ENDBRANCH  12  13
ENDBRANCH   1  12
BRANCH   1  15
ATOM     15  C   UNL     1       3.115   6.438  19.198  0.00  0.00    +0.000 C 
BRANCH  15  16
ATOM     16  C   UNL     1       2.208   7.647  19.161  0.00  0.00    +0.000 A 
ATOM     17  C   UNL     1       2.062   8.409  17.991  0.00  0.00    +0.000 A 
ATOM     18  C   UNL     1       1.253   9.547  17.994  0.00  0.00    +0.000 A 
ATOM     19  C   UNL     1       0.589   9.919  19.159  0.00  0.00    +0.000 A 
ATOM     20  F   UNL     1      -0.171  11.022  19.160  0.00  0.00    +0.000 F 
ATOM     21  C   UNL     1       0.705   9.170  20.321  0.00  0.00    +0.000 A 
ATOM     22  C   UNL     1       1.510   8.039  20.311  0.00  0.00    +0.000 A 
ATOM     23  F   UNL     1       1.634   7.329  21.441  0.00  0.00    +0.000 F 
ENDBRANCH  15  16
ENDBRANCH   1  15
TORSDOF 8
ENDMDL
MODEL 9
REMARK VINA RESULT:      -6.8      3.059      4.519
REMARK  Name = 
REMARK  8 active torsions:
REMARK  status: ('A' for Active; 'I' for Inactive)
REMARK    1  A    between atoms: N_2  and  C_4
REMARK    2  A    between atoms: N_8  and  C_9
REMARK    3  A    between atoms: C_9  and  C_10
REMARK    4  A    between atoms: C_10  and  N_11
REMARK    5  A    between atoms: N_11  and  C_12
REMARK    6  A    between atoms: N_11  and  C_15
REMARK    7  A    between atoms: C_12  and  C_13
REMARK    8  A    between atoms: C_15  and  C_16
REMARK                            x       y       z     vdW  Elec       q    Type
REMARK                         _______ _______ _______ _____ _____    ______ ____
ROOT
ATOM      1  N   UNL     1       2.166   5.474  18.534  0.00  0.00    +0.000 NA
ENDROOT
BRANCH   1   2
ATOM      2  C   UNL     1       3.119   5.074  17.457  0.00  0.00    +0.000 C 
BRANCH   2   3
ATOM      3  C   UNL     1       4.101   3.934  17.793  0.00  0.00    +0.000 C 
BRANCH   3   8
ATOM      4  C   UNL     1       6.418   4.784  17.061  0.00  0.00    +0.000 A 
ATOM      5  C   UNL     1       7.498   5.227  17.786  0.00  0.00    +0.000 A 
ATOM      6  N   UNL     1       7.238   5.132  19.130  0.00  0.00    +0.000 NA
ATOM      7  C   UNL     1       6.019   4.649  19.214  0.00  0.00    +0.000 A 
ATOM      8  N   UNL     1       5.465   4.419  17.975  0.00  0.00    +0.000 N 
BRANCH   4  10
ATOM      9  O   UNL     1       6.223   5.785  15.043  0.00  0.00    +0.000 OA
ATOM     10  N   UNL     1       6.305   4.711  15.645  0.00  0.00    +0.000 N 
ATOM     11  O   UNL     1       6.313   3.590  15.126  0.00  0.00    +0.000 OA
ENDBRANCH   4  10
ENDBRANCH   3   8
ENDBRANCH   2   3
ENDBRANCH   1   2
BRANCH   1  12
ATOM     12  C   UNL     1       1.782   4.295  19.357  0.00  0.00    +0.000 C 
BRANCH  12  13
ATOM     13  C   UNL     1       2.070   4.416  20.859  0.00  0.00    +0.000 C 
ATOM     14 BR   UNL     1       1.751   2.690  21.721  0.00  0.00    +0.000 Br
ENDBRANCH  12  13
ENDBRANCH   1  12
BRANCH   1  15
ATOM     15  C   UNL     1       2.810   6.501  19.404  0.00  0.00    +0.000 C 
BRANCH  15  16
ATOM     16  C   UNL     1       2.039   7.796  19.510  0.00  0.00    +0.000 A 
ATOM     17  C   UNL     1       1.376   8.151  20.696  0.00  0.00    +0.000 A 
ATOM     18  C   UNL     1       0.633   9.331  20.756  0.00  0.00    +0.000 A 
ATOM     19  C   UNL     1       0.556  10.157  19.638  0.00  0.00    +0.000 A 
ATOM     20  F   UNL     1      -0.173  11.279  19.696  0.00  0.00    +0.000 F 
ATOM     21  C   UNL     1       1.219   9.835  18.462  0.00  0.00    +0.000 A 
ATOM     22  C   UNL     1       1.957   8.660  18.409  0.00  0.00    +0.000 A 
ATOM     23  F   UNL     1       2.580   8.343  17.266  0.00  0.00    +0.000 F 
ENDBRANCH  15  16
ENDBRANCH   1  15
TORSDOF 8
ENDMDL
