MODEL 1
REMARK VINA RESULT:      -7.6      0.000      0.000
REMARK  Name = 
REMARK  9 active torsions:
REMARK  status: ('A' for Active; 'I' for Inactive)
REMARK    1  A    between atoms: C_1  and  C_2
REMARK    2  A    between atoms: C_2  and  N_3
REMARK    3  A    between atoms: C_5  and  C_6
REMARK    4  A    between atoms: N_11  and  C_12
REMARK    5  A    between atoms: C_15  and  O_16
REMARK    6  A    between atoms: O_16  and  C_17
REMARK    7  A    between atoms: C_18  and  O_19
REMARK    8  A    between atoms: O_19  and  C_20
REMARK    9  A    between atoms: C_22  and  C_23
REMARK                            x       y       z     vdW  Elec       q    Type
REMARK                         _______ _______ _______ _____ _____    ______ ____
ROOT
ATOM      1  C   UNL     1       3.999   3.948  18.571  0.00  0.00    +0.000 A 
ATOM      2  N   UNL     1       3.949   2.647  18.528  0.00  0.00    +0.000 NA
ATOM      3  N   UNL     1       2.748   2.348  19.115  0.00  0.00    +0.000 N 
ATOM      4  C   UNL     1       2.083   3.506  19.507  0.00  0.00    +0.000 A 
ATOM      5  O   UNL     1       0.983   3.545  20.035  0.00  0.00    +0.000 OA
ATOM      6  N   UNL     1       2.906   4.545  19.119  0.00  0.00    +0.000 N 
ATOM      7  H   UNL     1       2.405   1.402  19.217  0.00  0.00    +0.000 HD
ENDROOT
BRANCH   1  10
ATOM      8  N   UNL     1       6.998   5.921  18.199  0.00  0.00    +0.000 N 
ATOM      9  C   UNL     1       5.997   5.440  18.983  0.00  0.00    +0.000 A 
ATOM     10  C   UNL     1       5.186   4.668  18.166  0.00  0.00    +0.000 A 
ATOM     11  C   UNL     1       5.841   4.715  16.902  0.00  0.00    +0.000 A 
ATOM     12  C   UNL     1       5.457   4.067  15.623  0.00  0.00    +0.000 C 
ATOM     13  N   UNL     1       6.940   5.483  16.934  0.00  0.00    +0.000 NA
BRANCH   8  15
ATOM     14  C   UNL     1       7.946   8.149  17.813  0.00  0.00    +0.000 C 
ATOM     15  C   UNL     1       8.032   6.855  18.601  0.00  0.00    +0.000 C 
ENDBRANCH   8  15
ENDBRANCH   1  10
BRANCH   6  16
ATOM     16  C   UNL     1       2.517   5.893  19.106  0.00  0.00    +0.000 A 
ATOM     17  C   UNL     1       2.590   6.642  17.933  0.00  0.00    +0.000 A 
ATOM     18  C   UNL     1       2.191   7.978  17.941  0.00  0.00    +0.000 A 
ATOM     19  C   UNL     1       1.762   8.601  19.122  0.00  0.00    +0.000 A 
ATOM     20  C   UNL     1       1.727   7.862  20.319  0.00  0.00    +0.000 A 
ATOM     21  C   UNL     1       2.063   6.498  20.285  0.00  0.00    +0.000 A 
BRANCH  19  22
ATOM     22  O   UNL     1       1.430   9.914  18.913  0.00  0.00    +0.000 OA
ATOM     23  C   UNL     1       0.142  10.224  18.404  0.00  0.00    +0.000 C 
ENDBRANCH  19  22
BRANCH  20  24
ATOM     24  O   UNL     1       1.392   8.513  21.476  0.00  0.00    +0.000 OA
ATOM     25  C   UNL     1       0.015   8.681  21.785  0.00  0.00    +0.000 C 
ENDBRANCH  20  24
ENDBRANCH   6  16
TORSDOF 5
ENDMDL
MODEL 2
REMARK VINA RESULT:      -7.5      1.005      1.951
REMARK  Name = 
REMARK  9 active torsions:
REMARK  status: ('A' for Active; 'I' for Inactive)
REMARK    1  A    between atoms: C_1  and  C_2
REMARK    2  A    between atoms: C_2  and  N_3
REMARK    3  A    between atoms: C_5  and  C_6
REMARK    4  A    between atoms: N_11  and  C_12
REMARK    5  A    between atoms: C_15  and  O_16
REMARK    6  A    between atoms: O_16  and  C_17
REMARK    7  A    between atoms: C_18  and  O_19
REMARK    8  A    between atoms: O_19  and  C_20
REMARK    9  A    between atoms: C_22  and  C_23
REMARK                            x       y       z     vdW  Elec       q    Type
REMARK                         _______ _______ _______ _____ _____    ______ ____
ROOT
ATOM      1  C   UNL     1       3.706   3.314  17.967  0.00  0.00    +0.000 A 
ATOM      2  N   UNL     1       3.554   2.142  17.422  0.00  0.00    +0.000 NA
ATOM      3  N   UNL     1       2.305   1.753  17.828  0.00  0.00    +0.000 N 
ATOM      4  C   UNL     1       1.715   2.729  18.628  0.00  0.00    +0.000 A 
ATOM      5  O   UNL     1       0.597   2.663  19.112  0.00  0.00    +0.000 OA
ATOM      6  N   UNL     1       2.638   3.754  18.687  0.00  0.00    +0.000 N 
ATOM      7  H   UNL     1       1.882   0.878  17.549  0.00  0.00    +0.000 HD
ENDROOT
BRANCH   1  10
ATOM      8  N   UNL     1       6.820   5.075  18.443  0.00  0.00    +0.000 N 
ATOM      9  C   UNL     1       5.712   4.486  18.964  0.00  0.00    +0.000 A 
ATOM     10  C   UNL     1       4.966   4.021  17.892  0.00  0.00    +0.000 A 
ATOM     11  C   UNL     1       5.767   4.345  16.760  0.00  0.00    +0.000 A 
ATOM     12  C   UNL     1       5.505   4.087  15.322  0.00  0.00    +0.000 C 
ATOM     13  N   UNL     1       6.890   4.990  17.108  0.00  0.00    +0.000 NA
BRANCH   8  15
ATOM     14  C   UNL     1       8.119   7.151  18.575  0.00  0.00    +0.000 C 
ATOM     15  C   UNL     1       7.844   5.787  19.183  0.00  0.00    +0.000 C 
ENDBRANCH   8  15
ENDBRANCH   1  10
BRANCH   6  16
ATOM     16  C   UNL     1       2.359   5.033  19.192  0.00  0.00    +0.000 A 
ATOM     17  C   UNL     1       1.882   5.196  20.492  0.00  0.00    +0.000 A 
ATOM     18  C   UNL     1       1.619   6.477  20.975  0.00  0.00    +0.000 A 
ATOM     19  C   UNL     1       1.779   7.607  20.160  0.00  0.00    +0.000 A 
ATOM     20  C   UNL     1       2.218   7.446  18.833  0.00  0.00    +0.000 A 
ATOM     21  C   UNL     1       2.549   6.159  18.379  0.00  0.00    +0.000 A 
BRANCH  19  22
ATOM     22  O   UNL     1       1.455   8.762  20.824  0.00  0.00    +0.000 OA
ATOM     23  C   UNL     1       0.188   8.861  21.455  0.00  0.00    +0.000 C 
ENDBRANCH  19  22
BRANCH  20  24
ATOM     24  O   UNL     1       2.280   8.553  18.029  0.00  0.00    +0.000 OA
ATOM     25  C   UNL     1       1.091   9.306  17.820  0.00  0.00    +0.000 C 
ENDBRANCH  20  24
ENDBRANCH   6  16
TORSDOF 5
ENDMDL
MODEL 3
REMARK VINA RESULT:      -7.3      1.989      3.265
REMARK  Name = 
REMARK  9 active torsions:
REMARK  status: ('A' for Active; 'I' for Inactive)
REMARK    1  A    between atoms: C_1  and  C_2
REMARK    2  A    between atoms: C_2  and  N_3
REMARK    3  A    between atoms: C_5  and  C_6
REMARK    4  A    between atoms: N_11  and  C_12
REMARK    5  A    between atoms: C_15  and  O_16
REMARK    6  A    between atoms: O_16  and  C_17
REMARK    7  A    between atoms: C_18  and  O_19
REMARK    8  A    between atoms: O_19  and  C_20
REMARK    9  A    between atoms: C_22  and  C_23
REMARK                            x       y       z     vdW  Elec       q    Type
REMARK                         _______ _______ _______ _____ _____    ______ ____
ROOT
ATOM      1  C   UNL     1       6.588   5.473  16.922  0.00  0.00    +0.000 A 
ATOM      2  N   UNL     1       7.187   4.644  16.115  0.00  0.00    +0.000 NA
ATOM      3  N   UNL     1       6.218   3.724  15.816  0.00  0.00    +0.000 N 
ATOM      4  C   UNL     1       5.024   4.029  16.464  0.00  0.00    +0.000 A 
ATOM      5  O   UNL     1       3.985   3.397  16.364  0.00  0.00    +0.000 OA
ATOM      6  N   UNL     1       5.278   5.192  17.164  0.00  0.00    +0.000 N 
ATOM      7  H   UNL     1       6.370   2.949  15.185  0.00  0.00    +0.000 HD
ENDROOT
BRANCH   1  10
ATOM      8  N   UNL     1       8.195   8.494  18.069  0.00  0.00    +0.000 N 
ATOM      9  C   UNL     1       7.445   7.841  17.143  0.00  0.00    +0.000 A 
ATOM     10  C   UNL     1       7.315   6.534  17.585  0.00  0.00    +0.000 A 
ATOM     11  C   UNL     1       7.993   6.534  18.837  0.00  0.00    +0.000 A 
ATOM     12  C   UNL     1       8.185   5.420  19.799  0.00  0.00    +0.000 C 
ATOM     13  N   UNL     1       8.528   7.731  19.119  0.00  0.00    +0.000 NA
BRANCH   8  15
ATOM     14  C   UNL     1       9.352  10.294  19.268  0.00  0.00    +0.000 C 
ATOM     15  C   UNL     1       8.670   9.862  17.982  0.00  0.00    +0.000 C 
ENDBRANCH   8  15
ENDBRANCH   1  10
BRANCH   6  16
ATOM     16  C   UNL     1       4.286   5.980  17.766  0.00  0.00    +0.000 A 
ATOM     17  C   UNL     1       3.966   7.235  17.252  0.00  0.00    +0.000 A 
ATOM     18  C   UNL     1       2.972   7.998  17.862  0.00  0.00    +0.000 A 
ATOM     19  C   UNL     1       2.317   7.548  19.017  0.00  0.00    +0.000 A 
ATOM     20  C   UNL     1       2.667   6.301  19.568  0.00  0.00    +0.000 A 
ATOM     21  C   UNL     1       3.619   5.509  18.904  0.00  0.00    +0.000 A 
BRANCH  19  22
ATOM     22  O   UNL     1       1.388   8.452  19.461  0.00  0.00    +0.000 OA
ATOM     23  C   UNL     1       1.125   9.607  18.680  0.00  0.00    +0.000 C 
ENDBRANCH  19  22
BRANCH  20  24
ATOM     24  O   UNL     1       2.080   5.922  20.746  0.00  0.00    +0.000 OA
ATOM     25  C   UNL     1       1.795   4.543  20.949  0.00  0.00    +0.000 C 
ENDBRANCH  20  24
ENDBRANCH   6  16
TORSDOF 5
ENDMDL
MODEL 4
REMARK VINA RESULT:      -7.2      1.049      2.024
REMARK  Name = 
REMARK  9 active torsions:
REMARK  status: ('A' for Active; 'I' for Inactive)
REMARK    1  A    between atoms: C_1  and  C_2
REMARK    2  A    between atoms: C_2  and  N_3
REMARK    3  A    between atoms: C_5  and  C_6
REMARK    4  A    between atoms: N_11  and  C_12
REMARK    5  A    between atoms: C_15  and  O_16
REMARK    6  A    between atoms: O_16  and  C_17
REMARK    7  A    between atoms: C_18  and  O_19
REMARK    8  A    between atoms: O_19  and  C_20
REMARK    9  A    between atoms: C_22  and  C_23
REMARK                            x       y       z     vdW  Elec       q    Type
REMARK                         _______ _______ _______ _____ _____    ______ ____
ROOT
ATOM      1  C   UNL     1       3.786   3.539  18.421  0.00  0.00    +0.000 A 
ATOM      2  N   UNL     1       3.657   2.252  18.570  0.00  0.00    +0.000 NA
ATOM      3  N   UNL     1       2.615   2.128  19.450  0.00  0.00    +0.000 N 
ATOM      4  C   UNL     1       2.124   3.378  19.818  0.00  0.00    +0.000 A 
ATOM      5  O   UNL     1       1.184   3.573  20.572  0.00  0.00    +0.000 OA
ATOM      6  N   UNL     1       2.887   4.289  19.115  0.00  0.00    +0.000 N 
ATOM      7  H   UNL     1       2.255   1.235  19.756  0.00  0.00    +0.000 HD
ENDROOT
BRANCH   1  10
ATOM      8  N   UNL     1       6.205   4.686  16.001  0.00  0.00    +0.000 N 
ATOM      9  C   UNL     1       5.060   4.012  16.290  0.00  0.00    +0.000 A 
ATOM     10  C   UNL     1       4.881   4.102  17.661  0.00  0.00    +0.000 A 
ATOM     11  C   UNL     1       5.969   4.914  18.090  0.00  0.00    +0.000 A 
ATOM     12  C   UNL     1       6.312   5.375  19.459  0.00  0.00    +0.000 C 
ATOM     13  N   UNL     1       6.770   5.260  17.072  0.00  0.00    +0.000 NA
BRANCH   8  15
ATOM     14  C   UNL     1       6.145   3.904  13.677  0.00  0.00    +0.000 C 
ATOM     15  C   UNL     1       6.842   4.781  14.702  0.00  0.00    +0.000 C 
ENDBRANCH   8  15
ENDBRANCH   1  10
BRANCH   6  16
ATOM     16  C   UNL     1       2.578   5.653  19.004  0.00  0.00    +0.000 A 
ATOM     17  C   UNL     1       2.701   6.312  17.782  0.00  0.00    +0.000 A 
ATOM     18  C   UNL     1       2.383   7.667  17.694  0.00  0.00    +0.000 A 
ATOM     19  C   UNL     1       1.986   8.395  18.825  0.00  0.00    +0.000 A 
ATOM     20  C   UNL     1       1.902   7.746  20.070  0.00  0.00    +0.000 A 
ATOM     21  C   UNL     1       2.156   6.365  20.134  0.00  0.00    +0.000 A 
BRANCH  19  22
ATOM     22  O   UNL     1       1.733   9.707  18.522  0.00  0.00    +0.000 OA
ATOM     23  C   UNL     1       0.386  10.138  18.402  0.00  0.00    +0.000 C 
ENDBRANCH  19  22
BRANCH  20  24
ATOM     24  O   UNL     1       1.601   8.495  21.176  0.00  0.00    +0.000 OA
ATOM     25  C   UNL     1       0.270   8.462  21.675  0.00  0.00    +0.000 C 
ENDBRANCH  20  24
ENDBRANCH   6  16
TORSDOF 5
ENDMDL
MODEL 5
REMARK VINA RESULT:      -7.0      1.046      1.975
REMARK  Name = 
REMARK  9 active torsions:
REMARK  status: ('A' for Active; 'I' for Inactive)
REMARK    1  A    between atoms: C_1  and  C_2
REMARK    2  A    between atoms: C_2  and  N_3
REMARK    3  A    between atoms: C_5  and  C_6
REMARK    4  A    between atoms: N_11  and  C_12
REMARK    5  A    between atoms: C_15  and  O_16
REMARK    6  A    between atoms: O_16  and  C_17
REMARK    7  A    between atoms: C_18  and  O_19
REMARK    8  A    between atoms: O_19  and  C_20
REMARK    9  A    between atoms: C_22  and  C_23
REMARK                            x       y       z     vdW  Elec       q    Type
REMARK                         _______ _______ _______ _____ _____    ______ ____
ROOT
ATOM      1  C   UNL     1       4.175   4.190  17.705  0.00  0.00    +0.000 A 
ATOM      2  N   UNL     1       4.204   2.984  17.215  0.00  0.00    +0.000 NA
ATOM      3  N   UNL     1       3.066   2.404  17.709  0.00  0.00    +0.000 N 
ATOM      4  C   UNL     1       2.356   3.299  18.505  0.00  0.00    +0.000 A 
ATOM      5  O   UNL     1       1.294   3.063  19.057  0.00  0.00    +0.000 OA
ATOM      6  N   UNL     1       3.085   4.471  18.471  0.00  0.00    +0.000 N 
ATOM      7  H   UNL     1       2.790   1.456  17.489  0.00  0.00    +0.000 HD
ENDROOT
BRANCH   1  10
ATOM      8  N   UNL     1       7.028   6.390  17.919  0.00  0.00    +0.000 N 
ATOM      9  C   UNL     1       6.124   5.575  18.525  0.00  0.00    +0.000 A 
ATOM     10  C   UNL     1       5.286   5.100  17.529  0.00  0.00    +0.000 A 
ATOM     11  C   UNL     1       5.826   5.664  16.338  0.00  0.00    +0.000 A 
ATOM     12  C   UNL     1       5.365   5.509  14.935  0.00  0.00    +0.000 C 
ATOM     13  N   UNL     1       6.883   6.449  16.588  0.00  0.00    +0.000 NA
BRANCH   8  15
ATOM     14  C   UNL     1       8.149   8.571  17.963  0.00  0.00    +0.000 C 
ATOM     15  C   UNL     1       8.045   7.186  18.578  0.00  0.00    +0.000 C 
ENDBRANCH   8  15
ENDBRANCH   1  10
BRANCH   6  16
ATOM     16  C   UNL     1       2.612   5.704  18.942  0.00  0.00    +0.000 A 
ATOM     17  C   UNL     1       2.247   5.862  20.278  0.00  0.00    +0.000 A 
ATOM     18  C   UNL     1       1.786   7.099  20.727  0.00  0.00    +0.000 A 
ATOM     19  C   UNL     1       1.635   8.180  19.847  0.00  0.00    +0.000 A 
ATOM     20  C   UNL     1       1.960   8.015  18.487  0.00  0.00    +0.000 A 
ATOM     21  C   UNL     1       2.491   6.787  18.061  0.00  0.00    +0.000 A 
BRANCH  19  22
ATOM     22  O   UNL     1       1.159   9.294  20.487  0.00  0.00    +0.000 OA
ATOM     23  C   UNL     1       1.248   9.366  21.901  0.00  0.00    +0.000 C 
ENDBRANCH  19  22
BRANCH  20  24
ATOM     24  O   UNL     1       1.719   9.055  17.630  0.00  0.00    +0.000 OA
ATOM     25  C   UNL     1       2.305  10.319  17.916  0.00  0.00    +0.000 C 
ENDBRANCH  20  24
ENDBRANCH   6  16
TORSDOF 5
ENDMDL
MODEL 6
REMARK VINA RESULT:      -6.9      1.339      2.264
REMARK  Name = 
REMARK  9 active torsions:
REMARK  status: ('A' for Active; 'I' for Inactive)
REMARK    1  A    between atoms: C_1  and  C_2
REMARK    2  A    between atoms: C_2  and  N_3
REMARK    3  A    between atoms: C_5  and  C_6
REMARK    4  A    between atoms: N_11  and  C_12
REMARK    5  A    between atoms: C_15  and  O_16
REMARK    6  A    between atoms: O_16  and  C_17
REMARK    7  A    between atoms: C_18  and  O_19
REMARK    8  A    between atoms: O_19  and  C_20
REMARK    9  A    between atoms: C_22  and  C_23
REMARK                            x       y       z     vdW  Elec       q    Type
REMARK                         _______ _______ _______ _____ _____    ______ ____
ROOT
ATOM      1  C   UNL     1       4.709   3.970  18.975  0.00  0.00    +0.000 A 
ATOM      2  N   UNL     1       4.770   2.777  19.495  0.00  0.00    +0.000 NA
ATOM      3  N   UNL     1       3.806   2.796  20.467  0.00  0.00    +0.000 N 
ATOM      4  C   UNL     1       3.166   4.032  20.510  0.00  0.00    +0.000 A 
ATOM      5  O   UNL     1       2.251   4.328  21.261  0.00  0.00    +0.000 OA
ATOM      6  N   UNL     1       3.754   4.779  19.509  0.00  0.00    +0.000 N 
ATOM      7  H   UNL     1       3.591   1.996  21.046  0.00  0.00    +0.000 HD
ENDROOT
BRANCH   1  10
ATOM      8  N   UNL     1       6.689   4.801  16.074  0.00  0.00    +0.000 N 
ATOM      9  C   UNL     1       5.583   4.227  16.617  0.00  0.00    +0.000 A 
ATOM     10  C   UNL     1       5.672   4.409  17.988  0.00  0.00    +0.000 A 
ATOM     11  C   UNL     1       6.866   5.168  18.149  0.00  0.00    +0.000 A 
ATOM     12  C   UNL     1       7.487   5.684  19.395  0.00  0.00    +0.000 C 
ATOM     13  N   UNL     1       7.478   5.397  16.978  0.00  0.00    +0.000 NA
BRANCH   8  15
ATOM     14  C   UNL     1       6.113   3.935  13.853  0.00  0.00    +0.000 C 
ATOM     15  C   UNL     1       7.074   4.775  14.676  0.00  0.00    +0.000 C 
ENDBRANCH   8  15
ENDBRANCH   1  10
BRANCH   6  16
ATOM     16  C   UNL     1       3.253   6.005  19.045  0.00  0.00    +0.000 A 
ATOM     17  C   UNL     1       3.648   6.512  17.808  0.00  0.00    +0.000 A 
ATOM     18  C   UNL     1       3.132   7.728  17.363  0.00  0.00    +0.000 A 
ATOM     19  C   UNL     1       2.256   8.480  18.160  0.00  0.00    +0.000 A 
ATOM     20  C   UNL     1       1.888   7.995  19.429  0.00  0.00    +0.000 A 
ATOM     21  C   UNL     1       2.357   6.735  19.836  0.00  0.00    +0.000 A 
BRANCH  19  22
ATOM     22  O   UNL     1       1.879   9.644  17.543  0.00  0.00    +0.000 OA
ATOM     23  C   UNL     1       2.180  10.882  18.168  0.00  0.00    +0.000 C 
ENDBRANCH  19  22
BRANCH  20  24
ATOM     24  O   UNL     1       1.106   8.787  20.226  0.00  0.00    +0.000 OA
ATOM     25  C   UNL     1       1.282   8.714  21.635  0.00  0.00    +0.000 C 
ENDBRANCH  20  24
ENDBRANCH   6  16
TORSDOF 5
ENDMDL
MODEL 7
REMARK VINA RESULT:      -6.9      2.351      4.341
REMARK  Name = 
REMARK  9 active torsions:
REMARK  status: ('A' for Active; 'I' for Inactive)
REMARK    1  A    between atoms: C_1  and  C_2
REMARK    2  A    between atoms: C_2  and  N_3
REMARK    3  A    between atoms: C_5  and  C_6
REMARK    4  A    between atoms: N_11  and  C_12
REMARK    5  A    between atoms: C_15  and  O_16
REMARK    6  A    between atoms: O_16  and  C_17
REMARK    7  A    between atoms: C_18  and  O_19
REMARK    8  A    between atoms: O_19  and  C_20
REMARK    9  A    between atoms: C_22  and  C_23
REMARK                            x       y       z     vdW  Elec       q    Type
REMARK                         _______ _______ _______ _____ _____    ______ ____
ROOT
ATOM      1  C   UNL     1       7.056   5.765  16.388  0.00  0.00    +0.000 A 
ATOM      2  N   UNL     1       7.607   5.548  15.228  0.00  0.00    +0.000 NA
ATOM      3  N   UNL     1       6.933   4.459  14.745  0.00  0.00    +0.000 N 
ATOM      4  C   UNL     1       5.961   4.034  15.648  0.00  0.00    +0.000 A 
ATOM      5  O   UNL     1       5.195   3.101  15.473  0.00  0.00    +0.000 OA
ATOM      6  N   UNL     1       6.040   4.917  16.707  0.00  0.00    +0.000 N 
ATOM      7  H   UNL     1       7.120   4.052  13.839  0.00  0.00    +0.000 HD
ENDROOT
BRANCH   1  10
ATOM      8  N   UNL     1       8.203   8.686  18.170  0.00  0.00    +0.000 N 
ATOM      9  C   UNL     1       7.661   8.127  17.057  0.00  0.00    +0.000 A 
ATOM     10  C   UNL     1       7.580   6.764  17.295  0.00  0.00    +0.000 A 
ATOM     11  C   UNL     1       8.060   6.626  18.628  0.00  0.00    +0.000 A 
ATOM     12  C   UNL     1       8.203   5.399  19.451  0.00  0.00    +0.000 C 
ATOM     13  N   UNL     1       8.441   7.802  19.149  0.00  0.00    +0.000 NA
BRANCH   8  15
ATOM     14  C   UNL     1       9.407  10.283  19.590  0.00  0.00    +0.000 C 
ATOM     15  C   UNL     1       8.565  10.080  18.344  0.00  0.00    +0.000 C 
ENDBRANCH   8  15
ENDBRANCH   1  10
BRANCH   6  16
ATOM     16  C   UNL     1       5.085   5.004  17.731  0.00  0.00    +0.000 A 
ATOM     17  C   UNL     1       4.880   3.936  18.603  0.00  0.00    +0.000 A 
ATOM     18  C   UNL     1       3.930   4.046  19.618  0.00  0.00    +0.000 A 
ATOM     19  C   UNL     1       3.140   5.197  19.750  0.00  0.00    +0.000 A 
ATOM     20  C   UNL     1       3.311   6.261  18.846  0.00  0.00    +0.000 A 
ATOM     21  C   UNL     1       4.320   6.168  17.872  0.00  0.00    +0.000 A 
BRANCH  19  22
ATOM     22  O   UNL     1       2.265   5.095  20.800  0.00  0.00    +0.000 OA
ATOM     23  C   UNL     1       1.075   4.340  20.633  0.00  0.00    +0.000 C 
ENDBRANCH  19  22
BRANCH  20  24
ATOM     24  O   UNL     1       2.467   7.336  18.938  0.00  0.00    +0.000 OA
ATOM     25  C   UNL     1       2.365   8.214  17.824  0.00  0.00    +0.000 C 
ENDBRANCH  20  24
ENDBRANCH   6  16
TORSDOF 5
ENDMDL
MODEL 8
REMARK VINA RESULT:      -6.7      2.872      5.723
REMARK  Name = 
REMARK  9 active torsions:
REMARK  status: ('A' for Active; 'I' for Inactive)
REMARK    1  A    between atoms: C_1  and  C_2
REMARK    2  A    between atoms: C_2  and  N_3
REMARK    3  A    between atoms: C_5  and  C_6
REMARK    4  A    between atoms: N_11  and  C_12
REMARK    5  A    between atoms: C_15  and  O_16
REMARK    6  A    between atoms: O_16  and  C_17
REMARK    7  A    between atoms: C_18  and  O_19
REMARK    8  A    between atoms: O_19  and  C_20
REMARK    9  A    between atoms: C_22  and  C_23
REMARK                            x       y       z     vdW  Elec       q    Type
REMARK                         _______ _______ _______ _____ _____    ______ ____
ROOT
ATOM      1  C   UNL     1       1.990   4.681  19.376  0.00  0.00    +0.000 A 
ATOM      2  N   UNL     1       1.087   3.802  19.706  0.00  0.00    +0.000 NA
ATOM      3  N   UNL     1       1.498   2.660  19.072  0.00  0.00    +0.000 N 
ATOM      4  C   UNL     1       2.672   2.882  18.357  0.00  0.00    +0.000 A 
ATOM      5  O   UNL     1       3.277   2.039  17.714  0.00  0.00    +0.000 OA
ATOM      6  N   UNL     1       2.992   4.205  18.588  0.00  0.00    +0.000 N 
ATOM      7  H   UNL     1       1.007   1.780  19.149  0.00  0.00    +0.000 HD
ENDROOT
BRANCH   1  10
ATOM      8  N   UNL     1       1.555   7.926  20.894  0.00  0.00    +0.000 N 
ATOM      9  C   UNL     1       1.601   6.572  21.007  0.00  0.00    +0.000 A 
ATOM     10  C   UNL     1       1.849   6.075  19.738  0.00  0.00    +0.000 A 
ATOM     11  C   UNL     1       1.992   7.246  18.940  0.00  0.00    +0.000 A 
ATOM     12  C   UNL     1       2.281   7.361  17.489  0.00  0.00    +0.000 C 
ATOM     13  N   UNL     1       1.807   8.366  19.654  0.00  0.00    +0.000 NA
BRANCH   8  15
ATOM     14  C   UNL     1      -0.274   8.971  22.150  0.00  0.00    +0.000 C 
ATOM     15  C   UNL     1       1.227   8.867  21.948  0.00  0.00    +0.000 C 
ENDBRANCH   8  15
ENDBRANCH   1  10
BRANCH   6  16
ATOM     16  C   UNL     1       4.225   4.785  18.253  0.00  0.00    +0.000 A 
ATOM     17  C   UNL     1       5.103   5.213  19.248  0.00  0.00    +0.000 A 
ATOM     18  C   UNL     1       6.325   5.781  18.892  0.00  0.00    +0.000 A 
ATOM     19  C   UNL     1       6.672   5.975  17.547  0.00  0.00    +0.000 A 
ATOM     20  C   UNL     1       5.771   5.586  16.539  0.00  0.00    +0.000 A 
ATOM     21  C   UNL     1       4.573   4.950  16.907  0.00  0.00    +0.000 A 
BRANCH  19  22
ATOM     22  O   UNL     1       7.906   6.557  17.419  0.00  0.00    +0.000 OA
ATOM     23  C   UNL     1       8.053   7.933  17.732  0.00  0.00    +0.000 C 
ENDBRANCH  19  22
BRANCH  20  24
ATOM     24  O   UNL     1       6.090   5.868  15.237  0.00  0.00    +0.000 OA
ATOM     25  C   UNL     1       6.576   4.815  14.415  0.00  0.00    +0.000 C 
ENDBRANCH  20  24
ENDBRANCH   6  16
TORSDOF 5
ENDMDL
MODEL 9
REMARK VINA RESULT:      -6.7      2.925      5.572
REMARK  Name = 
REMARK  9 active torsions:
REMARK  status: ('A' for Active; 'I' for Inactive)
REMARK    1  A    between atoms: C_1  and  C_2
REMARK    2  A    between atoms: C_2  and  N_3
REMARK    3  A    between atoms: C_5  and  C_6
REMARK    4  A    between atoms: N_11  and  C_12
REMARK    5  A    between atoms: C_15  and  O_16
REMARK    6  A    between atoms: O_16  and  C_17
REMARK    7  A    between atoms: C_18  and  O_19
REMARK    8  A    between atoms: O_19  and  C_20
REMARK    9  A    between atoms: C_22  and  C_23
REMARK                            x       y       z     vdW  Elec       q    Type
REMARK                         _______ _______ _______ _____ _____    ______ ____
ROOT
ATOM      1  C   UNL     1       2.937   4.385  20.117  0.00  0.00    +0.000 A 
ATOM      2  N   UNL     1       2.400   3.870  21.186  0.00  0.00    +0.000 NA
ATOM      3  N   UNL     1       3.092   2.702  21.368  0.00  0.00    +0.000 N 
ATOM      4  C   UNL     1       4.059   2.537  20.380  0.00  0.00    +0.000 A 
ATOM      5  O   UNL     1       4.837   1.601  20.304  0.00  0.00    +0.000 OA
ATOM      6  N   UNL     1       3.959   3.661  19.584  0.00  0.00    +0.000 N 
ATOM      7  H   UNL     1       2.919   2.074  22.141  0.00  0.00    +0.000 HD
ENDROOT
BRANCH   1  10
ATOM      8  N   UNL     1       1.833   7.669  19.106  0.00  0.00    +0.000 N 
ATOM      9  C   UNL     1       2.460   6.865  20.005  0.00  0.00    +0.000 A 
ATOM     10  C   UNL     1       2.392   5.575  19.501  0.00  0.00    +0.000 A 
ATOM     11  C   UNL     1       1.738   5.739  18.247  0.00  0.00    +0.000 A 
ATOM     12  C   UNL     1       1.388   4.714  17.232  0.00  0.00    +0.000 C 
ATOM     13  N   UNL     1       1.400   7.016  18.020  0.00  0.00    +0.000 NA
BRANCH   8  15
ATOM     14  C   UNL     1       0.796   9.637  18.074  0.00  0.00    +0.000 C 
ATOM     15  C   UNL     1       1.575   9.088  19.256  0.00  0.00    +0.000 C 
ENDBRANCH   8  15
ENDBRANCH   1  10
BRANCH   6  16
ATOM     16  C   UNL     1       4.902   4.021  18.610  0.00  0.00    +0.000 A 
ATOM     17  C   UNL     1       4.826   3.498  17.320  0.00  0.00    +0.000 A 
ATOM     18  C   UNL     1       5.770   3.874  16.366  0.00  0.00    +0.000 A 
ATOM     19  C   UNL     1       6.828   4.735  16.691  0.00  0.00    +0.000 A 
ATOM     20  C   UNL     1       6.936   5.231  18.004  0.00  0.00    +0.000 A 
ATOM     21  C   UNL     1       5.940   4.903  18.938  0.00  0.00    +0.000 A 
BRANCH  19  22
ATOM     22  O   UNL     1       7.646   4.965  15.616  0.00  0.00    +0.000 OA
ATOM     23  C   UNL     1       7.106   4.864  14.307  0.00  0.00    +0.000 C 
ENDBRANCH  19  22
BRANCH  20  24
ATOM     24  O   UNL     1       8.027   5.996  18.322  0.00  0.00    +0.000 OA
ATOM     25  C   UNL     1       7.944   7.404  18.142  0.00  0.00    +0.000 C 
ENDBRANCH  20  24
ENDBRANCH   6  16
TORSDOF 5
ENDMDL
