MODEL 1
REMARK VINA RESULT:      -7.2      0.000      0.000
REMARK  Name = 
REMARK  9 active torsions:
REMARK  status: ('A' for Active; 'I' for Inactive)
REMARK    1  A    between atoms: C_1  and  C_2
REMARK    2  A    between atoms: C_2  and  N_3
REMARK    3  A    between atoms: N_5  and  C_6
REMARK    4  A    between atoms: C_9  and  C_10
REMARK    5  A    between atoms: C_12  and  C_13
REMARK    6  A    between atoms: N_20  and  C_21
REMARK    7  A    between atoms: C_24  and  C_25
REMARK    8  A    between atoms: C_28  and  C_29
REMARK    9  A    between atoms: C_28  and  C_30
REMARK                            x       y       z     vdW  Elec       q    Type
REMARK                         _______ _______ _______ _____ _____    ______ ____
ROOT
ATOM      1  N   UNL     1      -1.416  14.788  20.358  0.00  0.00    +0.000 NA
ATOM      2  C   UNL     1      -1.191  13.527  20.535  0.00  0.00    +0.000 C 
ATOM      3  N   UNL     1      -1.656  12.690  21.524  0.00  0.00    +0.000 N 
ATOM      4  C   UNL     1      -0.842  11.551  21.584  0.00  0.00    +0.000 C 
ATOM      5  S   UNL     1      -0.780  10.425  22.833  0.00  0.00    +0.000 S 
ATOM      6  N   UNL     1       0.005  11.560  20.428  0.00  0.00    +0.000 N 
ATOM      7  C   UNL     1      -0.260  12.744  19.591  0.00  0.00    +0.000 C 
ATOM      8  C   UNL     1      -1.070  12.403  18.330  0.00  0.00    +0.000 C 
ATOM      9  C   UNL     1       0.959  13.603  19.240  0.00  0.00    +0.000 C 
ENDROOT
BRANCH   6  10
ATOM     10  C   UNL     1       0.688  10.410  19.898  0.00  0.00    +0.000 A 
ATOM     11  C   UNL     1       1.113  10.363  18.562  0.00  0.00    +0.000 A 
ATOM     12  C   UNL     1       1.747   9.233  18.027  0.00  0.00    +0.000 A 
ATOM     13  C   UNL     1       2.014   8.128  18.832  0.00  0.00    +0.000 A 
ATOM     14  C   UNL     1       2.692   6.911  18.277  0.00  0.00    +0.000 C 
ATOM     15  C   UNL     1       1.628   8.172  20.173  0.00  0.00    +0.000 A 
ATOM     16  C   UNL     1       0.966   9.295  20.693  0.00  0.00    +0.000 A 
ENDBRANCH   6  10
BRANCH   3  17
ATOM     17  C   UNL     1      -2.975  12.774  22.076  0.00  0.00    +0.000 A 
ATOM     18  C   UNL     1      -3.134  13.063  23.440  0.00  0.00    +0.000 A 
ATOM     19  C   UNL     1      -4.406  13.165  24.015  0.00  0.00    +0.000 A 
ATOM     20  C   UNL     1      -5.560  13.007  23.238  0.00  0.00    +0.000 A 
ATOM     21  C   UNL     1      -5.433  12.730  21.868  0.00  0.00    +0.000 A 
ATOM     22  C   UNL     1      -4.135  12.602  21.312  0.00  0.00    +0.000 A 
BRANCH  21  23
ATOM     23  C   UNL     1      -6.608  12.569  20.932  0.00  0.00    +0.000 C 
ATOM     24  F   UNL     1      -6.288  12.320  19.638  0.00  0.00    +0.000 F 
ATOM     25  F   UNL     1      -7.422  11.547  21.314  0.00  0.00    +0.000 F 
ATOM     26  F   UNL     1      -7.393  13.681  20.910  0.00  0.00    +0.000 F 
ENDBRANCH  21  23
BRANCH  20  27
ATOM     27  C   UNL     1      -6.831  13.133  23.899  0.00  0.00    +0.000 C 
ATOM     28  N   UNL     1      -7.835  13.251  24.466  0.00  0.00    +0.000 NA
ENDBRANCH  20  27
ENDBRANCH   3  17
BRANCH   1  30
ATOM     29  C   UNL     1      -3.323  16.230  20.793  0.00  0.00    +0.000 C 
ATOM     30  C   UNL     1      -2.075  15.596  21.382  0.00  0.00    +0.000 C 
ENDBRANCH   1  30
TORSDOF 5
ENDMDL
MODEL 2
REMARK VINA RESULT:      -7.1      0.288      1.009
REMARK  Name = 
REMARK  9 active torsions:
REMARK  status: ('A' for Active; 'I' for Inactive)
REMARK    1  A    between atoms: C_1  and  C_2
REMARK    2  A    between atoms: C_2  and  N_3
REMARK    3  A    between atoms: N_5  and  C_6
REMARK    4  A    between atoms: C_9  and  C_10
REMARK    5  A    between atoms: C_12  and  C_13
REMARK    6  A    between atoms: N_20  and  C_21
REMARK    7  A    between atoms: C_24  and  C_25
REMARK    8  A    between atoms: C_28  and  C_29
REMARK    9  A    between atoms: C_28  and  C_30
REMARK                            x       y       z     vdW  Elec       q    Type
REMARK                         _______ _______ _______ _____ _____    ______ ____
ROOT
ATOM      1  N   UNL     1      -1.427  14.721  20.327  0.00  0.00    +0.000 NA
ATOM      2  C   UNL     1      -1.206  13.461  20.511  0.00  0.00    +0.000 C 
ATOM      3  N   UNL     1      -1.672  12.631  21.507  0.00  0.00    +0.000 N 
ATOM      4  C   UNL     1      -0.862  11.491  21.574  0.00  0.00    +0.000 C 
ATOM      5  S   UNL     1      -0.802  10.372  22.830  0.00  0.00    +0.000 S 
ATOM      6  N   UNL     1      -0.017  11.490  20.417  0.00  0.00    +0.000 N 
ATOM      7  C   UNL     1      -0.279  12.669  19.572  0.00  0.00    +0.000 C 
ATOM      8  C   UNL     1      -1.091  12.322  18.314  0.00  0.00    +0.000 C 
ATOM      9  C   UNL     1       0.943  13.521  19.214  0.00  0.00    +0.000 C 
ENDROOT
BRANCH   6  10
ATOM     10  C   UNL     1       0.662  10.334  19.893  0.00  0.00    +0.000 A 
ATOM     11  C   UNL     1       0.992   9.245  20.713  0.00  0.00    +0.000 A 
ATOM     12  C   UNL     1       1.683   8.130  20.219  0.00  0.00    +0.000 A 
ATOM     13  C   UNL     1       2.028   8.055  18.872  0.00  0.00    +0.000 A 
ATOM     14  C   UNL     1       2.767   6.870  18.326  0.00  0.00    +0.000 C 
ATOM     15  C   UNL     1       1.677   9.115  18.035  0.00  0.00    +0.000 A 
ATOM     16  C   UNL     1       1.011  10.241  18.543  0.00  0.00    +0.000 A 
ENDBRANCH   6  10
BRANCH   3  17
ATOM     17  C   UNL     1      -2.991  12.724  22.060  0.00  0.00    +0.000 A 
ATOM     18  C   UNL     1      -3.147  12.992  23.428  0.00  0.00    +0.000 A 
ATOM     19  C   UNL     1      -4.418  13.101  24.004  0.00  0.00    +0.000 A 
ATOM     20  C   UNL     1      -5.574  12.970  23.224  0.00  0.00    +0.000 A 
ATOM     21  C   UNL     1      -5.449  12.715  21.850  0.00  0.00    +0.000 A 
ATOM     22  C   UNL     1      -4.153  12.579  21.292  0.00  0.00    +0.000 A 
BRANCH  21  23
ATOM     23  C   UNL     1      -6.626  12.585  20.910  0.00  0.00    +0.000 C 
ATOM     24  F   UNL     1      -6.307  12.371  19.610  0.00  0.00    +0.000 F 
ATOM     25  F   UNL     1      -7.444  11.556  21.265  0.00  0.00    +0.000 F 
ATOM     26  F   UNL     1      -7.406  13.701  20.920  0.00  0.00    +0.000 F 
ENDBRANCH  21  23
BRANCH  20  27
ATOM     27  C   UNL     1      -6.843  13.102  23.887  0.00  0.00    +0.000 C 
ATOM     28  N   UNL     1      -7.875  13.168  24.409  0.00  0.00    +0.000 NA
ENDBRANCH  20  27
ENDBRANCH   3  17
BRANCH   1  30
ATOM     29  C   UNL     1      -1.037  16.080  22.304  0.00  0.00    +0.000 C 
ATOM     30  C   UNL     1      -2.083  15.538  21.345  0.00  0.00    +0.000 C 
ENDBRANCH   1  30
TORSDOF 5
ENDMDL
MODEL 3
REMARK VINA RESULT:      -6.8      0.984      1.116
REMARK  Name = 
REMARK  9 active torsions:
REMARK  status: ('A' for Active; 'I' for Inactive)
REMARK    1  A    between atoms: C_1  and  C_2
REMARK    2  A    between atoms: C_2  and  N_3
REMARK    3  A    between atoms: N_5  and  C_6
REMARK    4  A    between atoms: C_9  and  C_10
REMARK    5  A    between atoms: C_12  and  C_13
REMARK    6  A    between atoms: N_20  and  C_21
REMARK    7  A    between atoms: C_24  and  C_25
REMARK    8  A    between atoms: C_28  and  C_29
REMARK    9  A    between atoms: C_28  and  C_30
REMARK                            x       y       z     vdW  Elec       q    Type
REMARK                         _______ _______ _______ _____ _____    ______ ____
ROOT
ATOM      1  N   UNL     1      -0.383  14.316  20.677  0.00  0.00    +0.000 NA
ATOM      2  C   UNL     1      -0.337  13.027  20.745  0.00  0.00    +0.000 C 
ATOM      3  N   UNL     1      -0.967  12.178  21.628  0.00  0.00    +0.000 N 
ATOM      4  C   UNL     1      -0.315  10.938  21.621  0.00  0.00    +0.000 C 
ATOM      5  S   UNL     1      -0.477   9.710  22.761  0.00  0.00    +0.000 S 
ATOM      6  N   UNL     1       0.595  10.931  20.514  0.00  0.00    +0.000 N 
ATOM      7  C   UNL     1       0.539  12.208  19.779  0.00  0.00    +0.000 C 
ATOM      8  C   UNL     1      -0.231  12.091  18.453  0.00  0.00    +0.000 C 
ATOM      9  C   UNL     1       1.879  12.920  19.569  0.00  0.00    +0.000 C 
ENDROOT
BRANCH   6  10
ATOM     10  C   UNL     1       1.151   9.749  19.912  0.00  0.00    +0.000 A 
ATOM     11  C   UNL     1       1.416   9.683  18.535  0.00  0.00    +0.000 A 
ATOM     12  C   UNL     1       1.925   8.524  17.935  0.00  0.00    +0.000 A 
ATOM     13  C   UNL     1       2.226   7.404  18.708  0.00  0.00    +0.000 A 
ATOM     14  C   UNL     1       2.772   6.155  18.082  0.00  0.00    +0.000 C 
ATOM     15  C   UNL     1       2.001   7.465  20.084  0.00  0.00    +0.000 A 
ATOM     16  C   UNL     1       1.463   8.619  20.673  0.00  0.00    +0.000 A 
ENDBRANCH   6  10
BRANCH   3  17
ATOM     17  C   UNL     1      -2.294  12.394  22.121  0.00  0.00    +0.000 A 
ATOM     18  C   UNL     1      -2.501  12.549  23.501  0.00  0.00    +0.000 A 
ATOM     19  C   UNL     1      -3.781  12.772  24.020  0.00  0.00    +0.000 A 
ATOM     20  C   UNL     1      -4.892  12.873  23.174  0.00  0.00    +0.000 A 
ATOM     21  C   UNL     1      -4.715  12.736  21.789  0.00  0.00    +0.000 A 
ATOM     22  C   UNL     1      -3.414  12.480  21.286  0.00  0.00    +0.000 A 
BRANCH  21  23
ATOM     23  C   UNL     1      -5.837  12.855  20.783  0.00  0.00    +0.000 C 
ATOM     24  F   UNL     1      -5.467  12.730  19.485  0.00  0.00    +0.000 F 
ATOM     25  F   UNL     1      -6.800  11.914  20.986  0.00  0.00    +0.000 F 
ATOM     26  F   UNL     1      -6.469  14.058  20.872  0.00  0.00    +0.000 F 
ENDBRANCH  21  23
BRANCH  20  27
ATOM     27  C   UNL     1      -6.173  13.110  23.783  0.00  0.00    +0.000 C 
ATOM     28  N   UNL     1      -7.212  13.333  24.245  0.00  0.00    +0.000 NA
ENDBRANCH  20  27
ENDBRANCH   3  17
BRANCH   1  30
ATOM     29  C   UNL     1       0.088  15.571  22.704  0.00  0.00    +0.000 C 
ATOM     30  C   UNL     1      -0.991  15.116  21.738  0.00  0.00    +0.000 C 
ENDBRANCH   1  30
TORSDOF 5
ENDMDL
MODEL 4
REMARK VINA RESULT:      -6.8      3.701      7.738
REMARK  Name = 
REMARK  9 active torsions:
REMARK  status: ('A' for Active; 'I' for Inactive)
REMARK    1  A    between atoms: C_1  and  C_2
REMARK    2  A    between atoms: C_2  and  N_3
REMARK    3  A    between atoms: N_5  and  C_6
REMARK    4  A    between atoms: C_9  and  C_10
REMARK    5  A    between atoms: C_12  and  C_13
REMARK    6  A    between atoms: N_20  and  C_21
REMARK    7  A    between atoms: C_24  and  C_25
REMARK    8  A    between atoms: C_28  and  C_29
REMARK    9  A    between atoms: C_28  and  C_30
REMARK                            x       y       z     vdW  Elec       q    Type
REMARK                         _______ _______ _______ _____ _____    ______ ____
ROOT
ATOM      1  N   UNL     1       1.108  13.721  21.642  0.00  0.00    +0.000 NA
ATOM      2  C   UNL     1      -0.120  13.394  21.410  0.00  0.00    +0.000 C 
ATOM      3  N   UNL     1      -0.616  12.363  20.644  0.00  0.00    +0.000 N 
ATOM      4  C   UNL     1      -1.952  12.631  20.319  0.00  0.00    +0.000 C 
ATOM      5  S   UNL     1      -2.871  11.870  19.131  0.00  0.00    +0.000 S 
ATOM      6  N   UNL     1      -2.379  13.742  21.118  0.00  0.00    +0.000 N 
ATOM      7  C   UNL     1      -1.287  14.216  21.986  0.00  0.00    +0.000 C 
ATOM      8  C   UNL     1      -1.470  13.785  23.450  0.00  0.00    +0.000 C 
ATOM      9  C   UNL     1      -0.959  15.710  21.895  0.00  0.00    +0.000 C 
ENDROOT
BRANCH   6  10
ATOM     10  C   UNL     1      -3.751  14.080  21.393  0.00  0.00    +0.000 A 
ATOM     11  C   UNL     1      -4.590  13.211  22.106  0.00  0.00    +0.000 A 
ATOM     12  C   UNL     1      -5.936  13.516  22.348  0.00  0.00    +0.000 A 
ATOM     13  C   UNL     1      -6.472  14.728  21.918  0.00  0.00    +0.000 A 
ATOM     14  C   UNL     1      -7.910  15.071  22.169  0.00  0.00    +0.000 C 
ATOM     15  C   UNL     1      -5.641  15.619  21.237  0.00  0.00    +0.000 A 
ATOM     16  C   UNL     1      -4.303  15.293  20.972  0.00  0.00    +0.000 A 
ENDBRANCH   6  10
BRANCH   3  17
ATOM     17  C   UNL     1      -0.009  11.067  20.572  0.00  0.00    +0.000 A 
ATOM     18  C   UNL     1      -0.115  10.195  21.666  0.00  0.00    +0.000 A 
ATOM     19  C   UNL     1       0.455   8.918  21.632  0.00  0.00    +0.000 A 
ATOM     20  C   UNL     1       1.128   8.462  20.491  0.00  0.00    +0.000 A 
ATOM     21  C   UNL     1       1.239   9.306  19.376  0.00  0.00    +0.000 A 
ATOM     22  C   UNL     1       0.680  10.608  19.444  0.00  0.00    +0.000 A 
BRANCH  21  23
ATOM     23  C   UNL     1       1.916   8.908  18.086  0.00  0.00    +0.000 C 
ATOM     24  F   UNL     1       3.146   8.355  18.224  0.00  0.00    +0.000 F 
ATOM     25  F   UNL     1       1.179   8.002  17.387  0.00  0.00    +0.000 F 
ATOM     26  F   UNL     1       2.083   9.973  17.253  0.00  0.00    +0.000 F 
ENDBRANCH  21  23
BRANCH  20  27
ATOM     27  C   UNL     1       1.681   7.135  20.529  0.00  0.00    +0.000 C 
ATOM     28  N   UNL     1       2.151   6.077  20.593  0.00  0.00    +0.000 NA
ENDBRANCH  20  27
ENDBRANCH   3  17
BRANCH   1  30
ATOM     29  C   UNL     1       2.475  13.934  19.644  0.00  0.00    +0.000 C 
ATOM     30  C   UNL     1       2.213  13.120  20.899  0.00  0.00    +0.000 C 
ENDBRANCH   1  30
TORSDOF 5
ENDMDL
MODEL 5
REMARK VINA RESULT:      -6.6      4.082      8.204
REMARK  Name = 
REMARK  9 active torsions:
REMARK  status: ('A' for Active; 'I' for Inactive)
REMARK    1  A    between atoms: C_1  and  C_2
REMARK    2  A    between atoms: C_2  and  N_3
REMARK    3  A    between atoms: N_5  and  C_6
REMARK    4  A    between atoms: C_9  and  C_10
REMARK    5  A    between atoms: C_12  and  C_13
REMARK    6  A    between atoms: N_20  and  C_21
REMARK    7  A    between atoms: C_24  and  C_25
REMARK    8  A    between atoms: C_28  and  C_29
REMARK    9  A    between atoms: C_28  and  C_30
REMARK                            x       y       z     vdW  Elec       q    Type
REMARK                         _______ _______ _______ _____ _____    ______ ____
ROOT
ATOM      1  N   UNL     1      -2.048  10.973  17.981  0.00  0.00    +0.000 NA
ATOM      2  C   UNL     1      -1.545  11.225  19.145  0.00  0.00    +0.000 C 
ATOM      3  N   UNL     1      -0.671  10.472  19.898  0.00  0.00    +0.000 N 
ATOM      4  C   UNL     1      -0.732  10.893  21.232  0.00  0.00    +0.000 C 
ATOM      5  S   UNL     1      -0.136  10.070  22.574  0.00  0.00    +0.000 S 
ATOM      6  N   UNL     1      -1.479  12.115  21.270  0.00  0.00    +0.000 N 
ATOM      7  C   UNL     1      -1.925  12.501  19.919  0.00  0.00    +0.000 C 
ATOM      8  C   UNL     1      -1.095  13.655  19.332  0.00  0.00    +0.000 C 
ATOM      9  C   UNL     1      -3.424  12.772  19.760  0.00  0.00    +0.000 C 
ENDROOT
BRANCH   6  10
ATOM     10  C   UNL     1      -1.440  13.073  22.343  0.00  0.00    +0.000 A 
ATOM     11  C   UNL     1      -2.435  13.106  23.331  0.00  0.00    +0.000 A 
ATOM     12  C   UNL     1      -2.423  14.058  24.360  0.00  0.00    +0.000 A 
ATOM     13  C   UNL     1      -1.385  14.981  24.454  0.00  0.00    +0.000 A 
ATOM     14  C   UNL     1      -1.356  16.005  25.549  0.00  0.00    +0.000 C 
ATOM     15  C   UNL     1      -0.368  14.939  23.499  0.00  0.00    +0.000 A 
ATOM     16  C   UNL     1      -0.403  14.003  22.454  0.00  0.00    +0.000 A 
ENDBRANCH   6  10
BRANCH   3  17
ATOM     17  C   UNL     1       0.404   9.711  19.335  0.00  0.00    +0.000 A 
ATOM     18  C   UNL     1       1.179  10.268  18.307  0.00  0.00    +0.000 A 
ATOM     19  C   UNL     1       2.245   9.561  17.739  0.00  0.00    +0.000 A 
ATOM     20  C   UNL     1       2.585   8.283  18.199  0.00  0.00    +0.000 A 
ATOM     21  C   UNL     1       1.837   7.705  19.235  0.00  0.00    +0.000 A 
ATOM     22  C   UNL     1       0.743   8.426  19.776  0.00  0.00    +0.000 A 
BRANCH  21  23
ATOM     23  C   UNL     1       2.134   6.347  19.828  0.00  0.00    +0.000 C 
ATOM     24  F   UNL     1       3.430   6.131  20.163  0.00  0.00    +0.000 F 
ATOM     25  F   UNL     1       1.416   6.123  20.963  0.00  0.00    +0.000 F 
ATOM     26  F   UNL     1       1.802   5.339  18.973  0.00  0.00    +0.000 F 
ENDBRANCH  21  23
BRANCH  20  27
ATOM     27  C   UNL     1       3.697   7.623  17.570  0.00  0.00    +0.000 C 
ATOM     28  N   UNL     1       4.567   7.061  17.048  0.00  0.00    +0.000 NA
ENDBRANCH  20  27
ENDBRANCH   3  17
BRANCH   1  30
ATOM     29  C   UNL     1      -2.670   9.645  16.044  0.00  0.00    +0.000 C 
ATOM     30  C   UNL     1      -1.906   9.660  17.356  0.00  0.00    +0.000 C 
ENDBRANCH   1  30
TORSDOF 5
ENDMDL
MODEL 6
REMARK VINA RESULT:      -6.5      3.620      7.737
REMARK  Name = 
REMARK  9 active torsions:
REMARK  status: ('A' for Active; 'I' for Inactive)
REMARK    1  A    between atoms: C_1  and  C_2
REMARK    2  A    between atoms: C_2  and  N_3
REMARK    3  A    between atoms: N_5  and  C_6
REMARK    4  A    between atoms: C_9  and  C_10
REMARK    5  A    between atoms: C_12  and  C_13
REMARK    6  A    between atoms: N_20  and  C_21
REMARK    7  A    between atoms: C_24  and  C_25
REMARK    8  A    between atoms: C_28  and  C_29
REMARK    9  A    between atoms: C_28  and  C_30
REMARK                            x       y       z     vdW  Elec       q    Type
REMARK                         _______ _______ _______ _____ _____    ______ ____
ROOT
ATOM      1  N   UNL     1       1.038  14.052  21.728  0.00  0.00    +0.000 NA
ATOM      2  C   UNL     1      -0.207  13.721  21.629  0.00  0.00    +0.000 C 
ATOM      3  N   UNL     1      -0.779  12.681  20.932  0.00  0.00    +0.000 N 
ATOM      4  C   UNL     1      -2.142  12.945  20.746  0.00  0.00    +0.000 C 
ATOM      5  S   UNL     1      -3.179  12.169  19.670  0.00  0.00    +0.000 S 
ATOM      6  N   UNL     1      -2.485  14.064  21.572  0.00  0.00    +0.000 N 
ATOM      7  C   UNL     1      -1.309  14.549  22.316  0.00  0.00    +0.000 C 
ATOM      8  C   UNL     1      -1.336  14.135  23.796  0.00  0.00    +0.000 C 
ATOM      9  C   UNL     1      -0.995  16.042  22.174  0.00  0.00    +0.000 C 
ENDROOT
BRANCH   6  10
ATOM     10  C   UNL     1      -3.821  14.405  21.986  0.00  0.00    +0.000 A 
ATOM     11  C   UNL     1      -4.473  15.543  21.489  0.00  0.00    +0.000 A 
ATOM     12  C   UNL     1      -5.760  15.901  21.914  0.00  0.00    +0.000 A 
ATOM     13  C   UNL     1      -6.452  15.101  22.821  0.00  0.00    +0.000 A 
ATOM     14  C   UNL     1      -7.829  15.468  23.284  0.00  0.00    +0.000 C 
ATOM     15  C   UNL     1      -5.830  13.946  23.298  0.00  0.00    +0.000 A 
ATOM     16  C   UNL     1      -4.529  13.610  22.893  0.00  0.00    +0.000 A 
ENDBRANCH   6  10
BRANCH   3  17
ATOM     17  C   UNL     1      -0.180  11.385  20.812  0.00  0.00    +0.000 A 
ATOM     18  C   UNL     1      -0.262  10.486  21.886  0.00  0.00    +0.000 A 
ATOM     19  C   UNL     1       0.301   9.207  21.804  0.00  0.00    +0.000 A 
ATOM     20  C   UNL     1       0.941   8.778  20.634  0.00  0.00    +0.000 A 
ATOM     21  C   UNL     1       1.027   9.650  19.539  0.00  0.00    +0.000 A 
ATOM     22  C   UNL     1       0.476  10.951  19.654  0.00  0.00    +0.000 A 
BRANCH  21  23
ATOM     23  C   UNL     1       1.668   9.282  18.221  0.00  0.00    +0.000 C 
ATOM     24  F   UNL     1       0.929   8.471  17.424  0.00  0.00    +0.000 F 
ATOM     25  F   UNL     1       1.949  10.383  17.471  0.00  0.00    +0.000 F 
ATOM     26  F   UNL     1       2.856   8.640  18.399  0.00  0.00    +0.000 F 
ENDBRANCH  21  23
BRANCH  20  27
ATOM     27  C   UNL     1       1.488   7.448  20.625  0.00  0.00    +0.000 C 
ATOM     28  N   UNL     1       1.941   6.382  20.577  0.00  0.00    +0.000 NA
ENDBRANCH  20  27
ENDBRANCH   3  17
BRANCH   1  30
ATOM     29  C   UNL     1       3.415  14.034  21.223  0.00  0.00    +0.000 C 
ATOM     30  C   UNL     1       2.059  13.443  20.879  0.00  0.00    +0.000 C 
ENDBRANCH   1  30
TORSDOF 5
ENDMDL
MODEL 7
REMARK VINA RESULT:      -6.4      1.637      2.443
REMARK  Name = 
REMARK  9 active torsions:
REMARK  status: ('A' for Active; 'I' for Inactive)
REMARK    1  A    between atoms: C_1  and  C_2
REMARK    2  A    between atoms: C_2  and  N_3
REMARK    3  A    between atoms: N_5  and  C_6
REMARK    4  A    between atoms: C_9  and  C_10
REMARK    5  A    between atoms: C_12  and  C_13
REMARK    6  A    between atoms: N_20  and  C_21
REMARK    7  A    between atoms: C_24  and  C_25
REMARK    8  A    between atoms: C_28  and  C_29
REMARK    9  A    between atoms: C_28  and  C_30
REMARK                            x       y       z     vdW  Elec       q    Type
REMARK                         _______ _______ _______ _____ _____    ______ ____
ROOT
ATOM      1  N   UNL     1       0.274  12.976  18.951  0.00  0.00    +0.000 NA
ATOM      2  C   UNL     1       0.322  11.818  19.521  0.00  0.00    +0.000 C 
ATOM      3  N   UNL     1      -0.114  11.444  20.772  0.00  0.00    +0.000 N 
ATOM      4  C   UNL     1       0.511  10.245  21.139  0.00  0.00    +0.000 C 
ATOM      5  S   UNL     1       0.584   9.580  22.684  0.00  0.00    +0.000 S 
ATOM      6  N   UNL     1       1.165   9.722  19.976  0.00  0.00    +0.000 N 
ATOM      7  C   UNL     1       0.965  10.609  18.816  0.00  0.00    +0.000 C 
ATOM      8  C   UNL     1      -0.069  10.056  17.823  0.00  0.00    +0.000 C 
ATOM      9  C   UNL     1       2.237  11.055  18.087  0.00  0.00    +0.000 C 
ENDROOT
BRANCH   6  10
ATOM     10  C   UNL     1       1.571   8.352  19.805  0.00  0.00    +0.000 A 
ATOM     11  C   UNL     1       2.283   7.936  18.670  0.00  0.00    +0.000 A 
ATOM     12  C   UNL     1       2.652   6.597  18.479  0.00  0.00    +0.000 A 
ATOM     13  C   UNL     1       2.354   5.638  19.445  0.00  0.00    +0.000 A 
ATOM     14  C   UNL     1       2.741   4.203  19.257  0.00  0.00    +0.000 C 
ATOM     15  C   UNL     1       1.676   6.043  20.596  0.00  0.00    +0.000 A 
ATOM     16  C   UNL     1       1.283   7.379  20.766  0.00  0.00    +0.000 A 
ENDBRANCH   6  10
BRANCH   3  17
ATOM     17  C   UNL     1      -1.305  11.957  21.381  0.00  0.00    +0.000 A 
ATOM     18  C   UNL     1      -1.258  12.422  22.704  0.00  0.00    +0.000 A 
ATOM     19  C   UNL     1      -2.396  12.941  23.330  0.00  0.00    +0.000 A 
ATOM     20  C   UNL     1      -3.614  13.035  22.643  0.00  0.00    +0.000 A 
ATOM     21  C   UNL     1      -3.688  12.590  21.315  0.00  0.00    +0.000 A 
ATOM     22  C   UNL     1      -2.530  12.041  20.709  0.00  0.00    +0.000 A 
BRANCH  21  23
ATOM     23  C   UNL     1      -4.940  12.671  20.472  0.00  0.00    +0.000 C 
ATOM     24  F   UNL     1      -5.453  13.916  20.315  0.00  0.00    +0.000 F 
ATOM     25  F   UNL     1      -4.733  12.194  19.214  0.00  0.00    +0.000 F 
ATOM     26  F   UNL     1      -5.950  11.920  20.994  0.00  0.00    +0.000 F 
ENDBRANCH  21  23
BRANCH  20  27
ATOM     27  C   UNL     1      -4.737  13.586  23.352  0.00  0.00    +0.000 C 
ATOM     28  N   UNL     1      -5.668  14.005  23.901  0.00  0.00    +0.000 NA
ENDBRANCH  20  27
ENDBRANCH   3  17
BRANCH   1  30
ATOM     29  C   UNL     1      -0.092  15.371  18.755  0.00  0.00    +0.000 C 
ATOM     30  C   UNL     1      -0.089  14.179  19.697  0.00  0.00    +0.000 C 
ENDBRANCH   1  30
TORSDOF 5
ENDMDL
MODEL 8
REMARK VINA RESULT:      -6.4      8.083     11.638
REMARK  Name = 
REMARK  9 active torsions:
REMARK  status: ('A' for Active; 'I' for Inactive)
REMARK    1  A    between atoms: C_1  and  C_2
REMARK    2  A    between atoms: C_2  and  N_3
REMARK    3  A    between atoms: N_5  and  C_6
REMARK    4  A    between atoms: C_9  and  C_10
REMARK    5  A    between atoms: C_12  and  C_13
REMARK    6  A    between atoms: N_20  and  C_21
REMARK    7  A    between atoms: C_24  and  C_25
REMARK    8  A    between atoms: C_28  and  C_29
REMARK    9  A    between atoms: C_28  and  C_30
REMARK                            x       y       z     vdW  Elec       q    Type
REMARK                         _______ _______ _______ _____ _____    ______ ____
ROOT
ATOM      1  N   UNL     1       5.039  13.495  22.300  0.00  0.00    +0.000 NA
ATOM      2  C   UNL     1       4.954  14.354  21.339  0.00  0.00    +0.000 C 
ATOM      3  N   UNL     1       5.950  15.092  20.739  0.00  0.00    +0.000 N 
ATOM      4  C   UNL     1       5.378  16.181  20.070  0.00  0.00    +0.000 C 
ATOM      5  S   UNL     1       6.182  17.544  19.497  0.00  0.00    +0.000 S 
ATOM      6  N   UNL     1       3.960  15.977  20.038  0.00  0.00    +0.000 N 
ATOM      7  C   UNL     1       3.595  14.718  20.713  0.00  0.00    +0.000 C 
ATOM      8  C   UNL     1       3.236  13.601  19.719  0.00  0.00    +0.000 C 
ATOM      9  C   UNL     1       2.534  14.830  21.812  0.00  0.00    +0.000 C 
ENDROOT
BRANCH   6  10
ATOM     10  C   UNL     1       3.054  16.623  19.126  0.00  0.00    +0.000 A 
ATOM     11  C   UNL     1       3.269  16.598  17.740  0.00  0.00    +0.000 A 
ATOM     12  C   UNL     1       2.411  17.255  16.847  0.00  0.00    +0.000 A 
ATOM     13  C   UNL     1       1.283  17.924  17.317  0.00  0.00    +0.000 A 
ATOM     14  C   UNL     1       0.355  18.631  16.376  0.00  0.00    +0.000 C 
ATOM     15  C   UNL     1       1.036  17.929  18.690  0.00  0.00    +0.000 A 
ATOM     16  C   UNL     1       1.916  17.295  19.581  0.00  0.00    +0.000 A 
ENDBRANCH   6  10
BRANCH   3  17
ATOM     17  C   UNL     1       7.267  14.585  20.488  0.00  0.00    +0.000 A 
ATOM     18  C   UNL     1       8.292  14.841  21.411  0.00  0.00    +0.000 A 
ATOM     19  C   UNL     1       9.588  14.355  21.208  0.00  0.00    +0.000 A 
ATOM     20  C   UNL     1       9.894  13.574  20.086  0.00  0.00    +0.000 A 
ATOM     21  C   UNL     1       8.887  13.290  19.151  0.00  0.00    +0.000 A 
ATOM     22  C   UNL     1       7.587  13.818  19.362  0.00  0.00    +0.000 A 
BRANCH  21  23
ATOM     23  C   UNL     1       9.098  12.437  17.923  0.00  0.00    +0.000 C 
ATOM     24  F   UNL     1      10.105  12.834  17.107  0.00  0.00    +0.000 F 
ATOM     25  F   UNL     1       9.373  11.143  18.248  0.00  0.00    +0.000 F 
ATOM     26  F   UNL     1       7.985  12.394  17.139  0.00  0.00    +0.000 F 
ENDBRANCH  21  23
BRANCH  20  27
ATOM     27  C   UNL     1      11.247  13.105  19.950  0.00  0.00    +0.000 C 
ATOM     28  N   UNL     1      12.325  12.691  19.858  0.00  0.00    +0.000 NA
ENDBRANCH  20  27
ENDBRANCH   3  17
BRANCH   1  30
ATOM     29  C   UNL     1       6.183  14.185  24.331  0.00  0.00    +0.000 C 
ATOM     30  C   UNL     1       6.267  13.335  23.075  0.00  0.00    +0.000 C 
ENDBRANCH   1  30
TORSDOF 5
ENDMDL
MODEL 9
REMARK VINA RESULT:      -6.4      3.304      7.687
REMARK  Name = 
REMARK  9 active torsions:
REMARK  status: ('A' for Active; 'I' for Inactive)
REMARK    1  A    between atoms: C_1  and  C_2
REMARK    2  A    between atoms: C_2  and  N_3
REMARK    3  A    between atoms: N_5  and  C_6
REMARK    4  A    between atoms: C_9  and  C_10
REMARK    5  A    between atoms: C_12  and  C_13
REMARK    6  A    between atoms: N_20  and  C_21
REMARK    7  A    between atoms: C_24  and  C_25
REMARK    8  A    between atoms: C_28  and  C_29
REMARK    9  A    between atoms: C_28  and  C_30
REMARK                            x       y       z     vdW  Elec       q    Type
REMARK                         _______ _______ _______ _____ _____    ______ ____
ROOT
ATOM      1  N   UNL     1       0.524  14.610  20.902  0.00  0.00    +0.000 NA
ATOM      2  C   UNL     1      -0.647  14.077  21.024  0.00  0.00    +0.000 C 
ATOM      3  N   UNL     1      -1.187  12.999  20.358  0.00  0.00    +0.000 N 
ATOM      4  C   UNL     1      -2.583  13.036  20.476  0.00  0.00    +0.000 C 
ATOM      5  S   UNL     1      -3.693  12.163  19.561  0.00  0.00    +0.000 S 
ATOM      6  N   UNL     1      -2.910  14.026  21.460  0.00  0.00    +0.000 N 
ATOM      7  C   UNL     1      -1.691  14.659  21.995  0.00  0.00    +0.000 C 
ATOM      8  C   UNL     1      -1.336  14.154  23.403  0.00  0.00    +0.000 C 
ATOM      9  C   UNL     1      -1.650  16.189  21.939  0.00  0.00    +0.000 C 
ENDROOT
BRANCH   6  10
ATOM     10  C   UNL     1      -4.162  14.105  22.165  0.00  0.00    +0.000 A 
ATOM     11  C   UNL     1      -5.037  15.187  21.983  0.00  0.00    +0.000 A 
ATOM     12  C   UNL     1      -6.242  15.290  22.692  0.00  0.00    +0.000 A 
ATOM     13  C   UNL     1      -6.628  14.284  23.575  0.00  0.00    +0.000 A 
ATOM     14  C   UNL     1      -7.913  14.377  24.341  0.00  0.00    +0.000 C 
ATOM     15  C   UNL     1      -5.785  13.184  23.741  0.00  0.00    +0.000 A 
ATOM     16  C   UNL     1      -4.565  13.103  23.051  0.00  0.00    +0.000 A 
ENDBRANCH   6  10
BRANCH   3  17
ATOM     17  C   UNL     1      -0.434  11.836  19.995  0.00  0.00    +0.000 A 
ATOM     18  C   UNL     1       0.110  11.742  18.705  0.00  0.00    +0.000 A 
ATOM     19  C   UNL     1       0.861  10.627  18.316  0.00  0.00    +0.000 A 
ATOM     20  C   UNL     1       1.113   9.582  19.213  0.00  0.00    +0.000 A 
ATOM     21  C   UNL     1       0.593   9.654  20.514  0.00  0.00    +0.000 A 
ATOM     22  C   UNL     1      -0.190  10.778  20.879  0.00  0.00    +0.000 A 
BRANCH  21  23
ATOM     23  C   UNL     1       0.826   8.599  21.571  0.00  0.00    +0.000 C 
ATOM     24  F   UNL     1       0.750   7.317  21.136  0.00  0.00    +0.000 F 
ATOM     25  F   UNL     1       2.055   8.723  22.145  0.00  0.00    +0.000 F 
ATOM     26  F   UNL     1      -0.072   8.696  22.589  0.00  0.00    +0.000 F 
ENDBRANCH  21  23
BRANCH  20  27
ATOM     27  C   UNL     1       1.898   8.473  18.741  0.00  0.00    +0.000 C 
ATOM     28  N   UNL     1       2.538   7.569  18.400  0.00  0.00    +0.000 NA
ENDBRANCH  20  27
ENDBRANCH   3  17
BRANCH   1  30
ATOM     29  C   UNL     1       2.860  14.443  20.253  0.00  0.00    +0.000 C 
ATOM     30  C   UNL     1       1.421  14.240  19.811  0.00  0.00    +0.000 C 
ENDBRANCH   1  30
TORSDOF 5
ENDMDL
