MODEL 1
REMARK VINA RESULT:      -7.5      0.000      0.000
REMARK  Name = 
REMARK  12 active torsions:
REMARK  status: ('A' for Active; 'I' for Inactive)
REMARK    1  A    between atoms: C_1  and  C_2
REMARK    2  A    between atoms: C_2  and  N_3
REMARK    3  A    between atoms: N_3  and  C_4
REMARK    4  A    between atoms: N_3  and  C_6
REMARK    5  A    between atoms: C_4  and  C_5
REMARK    6  A    between atoms: C_6  and  C_7
REMARK    7  A    between atoms: C_7  and  N_8
REMARK    8  A    between atoms: N_8  and  C_9
REMARK    9  A    between atoms: C_16  and  C_17
REMARK   10  A    between atoms: C_20  and  O_21
REMARK   11  A    between atoms: O_21  and  C_22
REMARK   12  A    between atoms: C_23  and  N_24
REMARK                            x       y       z     vdW  Elec       q    Type
REMARK                         _______ _______ _______ _____ _____    ______ ____
ROOT
ATOM      1  C   UNL     1       3.762   3.551  17.606  0.00  0.00    +0.000 A 
ATOM      2  N   UNL     1       4.043   2.265  17.880  0.00  0.00    +0.000 NA
ATOM      3  C   UNL     1       3.694   1.813  19.087  0.00  0.00    +0.000 A 
ATOM      4  N   UNL     1       3.102   2.518  20.053  0.00  0.00    +0.000 NA
ATOM      5  C   UNL     1       2.856   3.801  19.783  0.00  0.00    +0.000 A 
ATOM      6  C   UNL     1       2.244   4.572  20.757  0.00  0.00    +0.000 A 
ATOM      7  C   UNL     1       1.941   5.921  20.551  0.00  0.00    +0.000 A 
ATOM      8  C   UNL     1       2.254   6.556  19.344  0.00  0.00    +0.000 A 
ATOM      9  C   UNL     1       2.882   5.778  18.359  0.00  0.00    +0.000 A 
ATOM     10  C   UNL     1       3.177   4.402  18.560  0.00  0.00    +0.000 A 
ENDROOT
BRANCH   8  11
ATOM     11  C   UNL     1       1.956   7.980  19.122  0.00  0.00    +0.000 A 
ATOM     12  C   UNL     1       2.315   8.627  17.943  0.00  0.00    +0.000 A 
ATOM     13  N   UNL     1       2.076   9.931  17.675  0.00  0.00    +0.000 NA
ATOM     14  C   UNL     1       1.430  10.670  18.609  0.00  0.00    +0.000 A 
ATOM     15  C   UNL     1       1.011  10.123  19.816  0.00  0.00    +0.000 A 
ATOM     16  C   UNL     1       1.290   8.768  20.072  0.00  0.00    +0.000 A 
BRANCH  15  17
ATOM     17  N   UNL     1       0.286  10.892  20.823  0.00  0.00    +0.000 N 
ATOM     18  O   UNL     1      -0.931  11.070  20.699  0.00  0.00    +0.000 OA
ATOM     19  O   UNL     1       0.948  11.339  21.775  0.00  0.00    +0.000 OA
ENDBRANCH  15  17
BRANCH  14  20
ATOM     20  O   UNL     1       1.208  11.991  18.309  0.00  0.00    +0.000 OA
ATOM     21  C   UNL     1       2.347  12.826  18.506  0.00  0.00    +0.000 C 
ENDBRANCH  14  20
ENDBRANCH   8  11
BRANCH   1  22
ATOM     22  N   UNL     1       4.102   4.059  16.324  0.00  0.00    +0.000 N 
ATOM     23  H   UNL     1       3.792   3.383  15.625  0.00  0.00    +0.000 HD
BRANCH  22  24
ATOM     24  C   UNL     1       5.553   4.208  16.133  0.00  0.00    +0.000 C 
BRANCH  24  25
ATOM     25  C   UNL     1       5.933   5.710  16.034  0.00  0.00    +0.000 C 
BRANCH  25  26
ATOM     26  N   UNL     1       7.033   6.126  16.949  0.00  0.00    +0.000 NA
BRANCH  26  28
ATOM     27  C   UNL     1       8.047   8.319  17.704  0.00  0.00    +0.000 C 
ATOM     28  C   UNL     1       6.793   7.479  17.482  0.00  0.00    +0.000 C 
ENDBRANCH  26  28
BRANCH  26  29
ATOM     29  C   UNL     1       7.256   5.105  17.991  0.00  0.00    +0.000 C 
ATOM     30  C   UNL     1       6.650   5.396  19.362  0.00  0.00    +0.000 C 
ENDBRANCH  26  29
ENDBRANCH  25  26
ENDBRANCH  24  25
ENDBRANCH  22  24
ENDBRANCH   1  22
TORSDOF 9
ENDMDL
MODEL 2
REMARK VINA RESULT:      -7.1      1.064      1.285
REMARK  Name = 
REMARK  12 active torsions:
REMARK  status: ('A' for Active; 'I' for Inactive)
REMARK    1  A    between atoms: C_1  and  C_2
REMARK    2  A    between atoms: C_2  and  N_3
REMARK    3  A    between atoms: N_3  and  C_4
REMARK    4  A    between atoms: N_3  and  C_6
REMARK    5  A    between atoms: C_4  and  C_5
REMARK    6  A    between atoms: C_6  and  C_7
REMARK    7  A    between atoms: C_7  and  N_8
REMARK    8  A    between atoms: N_8  and  C_9
REMARK    9  A    between atoms: C_16  and  C_17
REMARK   10  A    between atoms: C_20  and  O_21
REMARK   11  A    between atoms: O_21  and  C_22
REMARK   12  A    between atoms: C_23  and  N_24
REMARK                            x       y       z     vdW  Elec       q    Type
REMARK                         _______ _______ _______ _____ _____    ______ ____
ROOT
ATOM      1  C   UNL     1       3.823   3.525  17.511  0.00  0.00    +0.000 A 
ATOM      2  N   UNL     1       4.107   2.211  17.469  0.00  0.00    +0.000 NA
ATOM      3  C   UNL     1       3.638   1.458  18.467  0.00  0.00    +0.000 A 
ATOM      4  N   UNL     1       2.922   1.886  19.509  0.00  0.00    +0.000 NA
ATOM      5  C   UNL     1       2.673   3.195  19.558  0.00  0.00    +0.000 A 
ATOM      6  C   UNL     1       1.936   3.683  20.623  0.00  0.00    +0.000 A 
ATOM      7  C   UNL     1       1.621   5.040  20.746  0.00  0.00    +0.000 A 
ATOM      8  C   UNL     1       2.049   5.970  19.791  0.00  0.00    +0.000 A 
ATOM      9  C   UNL     1       2.804   5.477  18.715  0.00  0.00    +0.000 A 
ATOM     10  C   UNL     1       3.113   4.096  18.581  0.00  0.00    +0.000 A 
ENDROOT
BRANCH   8  11
ATOM     11  C   UNL     1       1.739   7.403  19.918  0.00  0.00    +0.000 A 
ATOM     12  C   UNL     1       1.993   8.300  18.884  0.00  0.00    +0.000 A 
ATOM     13  N   UNL     1       1.737   9.627  18.934  0.00  0.00    +0.000 NA
ATOM     14  C   UNL     1       1.180  10.131  20.063  0.00  0.00    +0.000 A 
ATOM     15  C   UNL     1       0.870   9.324  21.150  0.00  0.00    +0.000 A 
ATOM     16  C   UNL     1       1.165   7.951  21.074  0.00  0.00    +0.000 A 
BRANCH  15  17
ATOM     17  N   UNL     1       0.241   9.841  22.363  0.00  0.00    +0.000 N 
ATOM     18  O   UNL     1       0.850   9.790  23.438  0.00  0.00    +0.000 OA
ATOM     19  O   UNL     1      -0.901  10.315  22.247  0.00  0.00    +0.000 OA
ENDBRANCH  15  17
BRANCH  14  20
ATOM     20  O   UNL     1       0.939  11.482  20.084  0.00  0.00    +0.000 OA
ATOM     21  C   UNL     1      -0.037  11.909  19.136  0.00  0.00    +0.000 C 
ENDBRANCH  14  20
ENDBRANCH   8  11
BRANCH   1  22
ATOM     22  N   UNL     1       4.291   4.352  16.456  0.00  0.00    +0.000 N 
ATOM     23  H   UNL     1       3.870   4.021  15.587  0.00  0.00    +0.000 HD
BRANCH  22  24
ATOM     24  C   UNL     1       5.747   4.268  16.264  0.00  0.00    +0.000 C 
BRANCH  24  25
ATOM     25  C   UNL     1       6.334   5.675  15.971  0.00  0.00    +0.000 C 
BRANCH  25  26
ATOM     26  N   UNL     1       7.318   6.152  16.983  0.00  0.00    +0.000 NA
BRANCH  26  28
ATOM     27  C   UNL     1       7.996   8.521  17.559  0.00  0.00    +0.000 C 
ATOM     28  C   UNL     1       6.909   7.451  17.546  0.00  0.00    +0.000 C 
ENDBRANCH  26  28
BRANCH  26  29
ATOM     29  C   UNL     1       7.561   5.111  18.001  0.00  0.00    +0.000 C 
ATOM     30  C   UNL     1       7.750   5.600  19.435  0.00  0.00    +0.000 C 
ENDBRANCH  26  29
ENDBRANCH  25  26
ENDBRANCH  24  25
ENDBRANCH  22  24
ENDBRANCH   1  22
TORSDOF 9
ENDMDL
MODEL 3
REMARK VINA RESULT:      -7.0      2.344      3.893
REMARK  Name = 
REMARK  12 active torsions:
REMARK  status: ('A' for Active; 'I' for Inactive)
REMARK    1  A    between atoms: C_1  and  C_2
REMARK    2  A    between atoms: C_2  and  N_3
REMARK    3  A    between atoms: N_3  and  C_4
REMARK    4  A    between atoms: N_3  and  C_6
REMARK    5  A    between atoms: C_4  and  C_5
REMARK    6  A    between atoms: C_6  and  C_7
REMARK    7  A    between atoms: C_7  and  N_8
REMARK    8  A    between atoms: N_8  and  C_9
REMARK    9  A    between atoms: C_16  and  C_17
REMARK   10  A    between atoms: C_20  and  O_21
REMARK   11  A    between atoms: O_21  and  C_22
REMARK   12  A    between atoms: C_23  and  N_24
REMARK                            x       y       z     vdW  Elec       q    Type
REMARK                         _______ _______ _______ _____ _____    ______ ____
ROOT
ATOM      1  C   UNL     1       6.695   6.763  16.896  0.00  0.00    +0.000 A 
ATOM      2  N   UNL     1       7.553   5.812  16.482  0.00  0.00    +0.000 NA
ATOM      3  C   UNL     1       7.100   4.557  16.458  0.00  0.00    +0.000 A 
ATOM      4  N   UNL     1       5.880   4.151  16.816  0.00  0.00    +0.000 NA
ATOM      5  C   UNL     1       5.047   5.096  17.255  0.00  0.00    +0.000 A 
ATOM      6  C   UNL     1       3.772   4.719  17.639  0.00  0.00    +0.000 A 
ATOM      7  C   UNL     1       2.833   5.648  18.101  0.00  0.00    +0.000 A 
ATOM      8  C   UNL     1       3.152   7.007  18.202  0.00  0.00    +0.000 A 
ATOM      9  C   UNL     1       4.447   7.388  17.821  0.00  0.00    +0.000 A 
ATOM     10  C   UNL     1       5.398   6.448  17.337  0.00  0.00    +0.000 A 
ENDROOT
BRANCH   8  11
ATOM     11  C   UNL     1       2.179   7.991  18.703  0.00  0.00    +0.000 A 
ATOM     12  C   UNL     1       1.621   8.957  17.870  0.00  0.00    +0.000 A 
ATOM     13  N   UNL     1       0.727   9.892  18.263  0.00  0.00    +0.000 NA
ATOM     14  C   UNL     1       0.325   9.890  19.558  0.00  0.00    +0.000 A 
ATOM     15  C   UNL     1       0.804   8.961  20.473  0.00  0.00    +0.000 A 
ATOM     16  C   UNL     1       1.747   8.013  20.037  0.00  0.00    +0.000 A 
BRANCH  15  17
ATOM     17  N   UNL     1       0.361   8.922  21.865  0.00  0.00    +0.000 N 
ATOM     18  O   UNL     1      -0.648   8.276  22.169  0.00  0.00    +0.000 OA
ATOM     19  O   UNL     1       1.040   9.557  22.690  0.00  0.00    +0.000 OA
ENDBRANCH  15  17
BRANCH  14  20
ATOM     20  O   UNL     1      -0.579  10.856  19.927  0.00  0.00    +0.000 OA
ATOM     21  C   UNL     1      -0.446  12.077  19.204  0.00  0.00    +0.000 C 
ENDBRANCH  14  20
ENDBRANCH   8  11
BRANCH   1  22
ATOM     22  N   UNL     1       7.139   8.111  16.916  0.00  0.00    +0.000 N 
ATOM     23  H   UNL     1       7.617   8.298  16.034  0.00  0.00    +0.000 HD
BRANCH  22  24
ATOM     24  C   UNL     1       8.120   8.377  17.978  0.00  0.00    +0.000 C 
BRANCH  24  25
ATOM     25  C   UNL     1       8.199   9.899  18.272  0.00  0.00    +0.000 C 
BRANCH  25  26
ATOM     26  N   UNL     1       9.521  10.357  18.785  0.00  0.00    +0.000 NA
BRANCH  26  28
ATOM     27  C   UNL     1       9.234  12.568  17.587  0.00  0.00    +0.000 C 
ATOM     28  C   UNL     1      10.117  11.361  17.886  0.00  0.00    +0.000 C 
ENDBRANCH  26  28
BRANCH  26  29
ATOM     29  C   UNL     1       9.407  10.804  20.187  0.00  0.00    +0.000 C 
ATOM     30  C   UNL     1      10.514  11.726  20.693  0.00  0.00    +0.000 C 
ENDBRANCH  26  29
ENDBRANCH  25  26
ENDBRANCH  24  25
ENDBRANCH  22  24
ENDBRANCH   1  22
TORSDOF 9
ENDMDL
MODEL 4
REMARK VINA RESULT:      -6.9      1.271      2.369
REMARK  Name = 
REMARK  12 active torsions:
REMARK  status: ('A' for Active; 'I' for Inactive)
REMARK    1  A    between atoms: C_1  and  C_2
REMARK    2  A    between atoms: C_2  and  N_3
REMARK    3  A    between atoms: N_3  and  C_4
REMARK    4  A    between atoms: N_3  and  C_6
REMARK    5  A    between atoms: C_4  and  C_5
REMARK    6  A    between atoms: C_6  and  C_7
REMARK    7  A    between atoms: C_7  and  N_8
REMARK    8  A    between atoms: N_8  and  C_9
REMARK    9  A    between atoms: C_16  and  C_17
REMARK   10  A    between atoms: C_20  and  O_21
REMARK   11  A    between atoms: O_21  and  C_22
REMARK   12  A    between atoms: C_23  and  N_24
REMARK                            x       y       z     vdW  Elec       q    Type
REMARK                         _______ _______ _______ _____ _____    ______ ____
ROOT
ATOM      1  C   UNL     1       3.931   4.737  17.624  0.00  0.00    +0.000 A 
ATOM      2  N   UNL     1       4.236   3.452  17.368  0.00  0.00    +0.000 NA
ATOM      3  C   UNL     1       3.670   2.528  18.147  0.00  0.00    +0.000 A 
ATOM      4  N   UNL     1       2.837   2.757  19.165  0.00  0.00    +0.000 NA
ATOM      5  C   UNL     1       2.566   4.035  19.432  0.00  0.00    +0.000 A 
ATOM      6  C   UNL     1       1.708   4.320  20.481  0.00  0.00    +0.000 A 
ATOM      7  C   UNL     1       1.363   5.632  20.820  0.00  0.00    +0.000 A 
ATOM      8  C   UNL     1       1.881   6.721  20.111  0.00  0.00    +0.000 A 
ATOM      9  C   UNL     1       2.757   6.435  19.052  0.00  0.00    +0.000 A 
ATOM     10  C   UNL     1       3.098   5.101  18.697  0.00  0.00    +0.000 A 
ENDROOT
BRANCH   8  11
ATOM     11  C   UNL     1       1.539   8.107  20.470  0.00  0.00    +0.000 A 
ATOM     12  C   UNL     1       1.417   8.509  21.797  0.00  0.00    +0.000 A 
ATOM     13  N   UNL     1       1.102   9.761  22.198  0.00  0.00    +0.000 NA
ATOM     14  C   UNL     1       0.900  10.707  21.247  0.00  0.00    +0.000 A 
ATOM     15  C   UNL     1       1.012  10.421  19.892  0.00  0.00    +0.000 A 
ATOM     16  C   UNL     1       1.324   9.104  19.508  0.00  0.00    +0.000 A 
BRANCH  15  17
ATOM     17  N   UNL     1       0.830  11.431  18.854  0.00  0.00    +0.000 N 
ATOM     18  O   UNL     1      -0.309  11.710  18.463  0.00  0.00    +0.000 OA
ATOM     19  O   UNL     1       1.856  11.970  18.406  0.00  0.00    +0.000 OA
ENDBRANCH  15  17
BRANCH  14  20
ATOM     20  O   UNL     1       0.576  11.967  21.687  0.00  0.00    +0.000 OA
ATOM     21  C   UNL     1      -0.786  12.105  22.087  0.00  0.00    +0.000 C 
ENDBRANCH  14  20
ENDBRANCH   8  11
BRANCH   1  22
ATOM     22  N   UNL     1       4.501   5.744  16.802  0.00  0.00    +0.000 N 
ATOM     23  H   UNL     1       3.793   6.039  16.129  0.00  0.00    +0.000 HD
BRANCH  22  24
ATOM     24  C   UNL     1       5.642   5.260  16.010  0.00  0.00    +0.000 C 
BRANCH  24  25
ATOM     25  C   UNL     1       6.869   6.191  16.206  0.00  0.00    +0.000 C 
BRANCH  25  26
ATOM     26  N   UNL     1       6.926   6.856  17.539  0.00  0.00    +0.000 NA
BRANCH  26  28
ATOM     27  C   UNL     1       6.854   5.369  19.587  0.00  0.00    +0.000 C 
ATOM     28  C   UNL     1       7.690   6.041  18.502  0.00  0.00    +0.000 C 
ENDBRANCH  26  28
BRANCH  26  29
ATOM     29  C   UNL     1       7.417   8.241  17.408  0.00  0.00    +0.000 C 
ATOM     30  C   UNL     1       8.494   8.673  18.401  0.00  0.00    +0.000 C 
ENDBRANCH  26  29
ENDBRANCH  25  26
ENDBRANCH  24  25
ENDBRANCH  22  24
ENDBRANCH   1  22
TORSDOF 9
ENDMDL
MODEL 5
REMARK VINA RESULT:      -6.8      1.154      2.031
REMARK  Name = 
REMARK  12 active torsions:
REMARK  status: ('A' for Active; 'I' for Inactive)
REMARK    1  A    between atoms: C_1  and  C_2
REMARK    2  A    between atoms: C_2  and  N_3
REMARK    3  A    between atoms: N_3  and  C_4
REMARK    4  A    between atoms: N_3  and  C_6
REMARK    5  A    between atoms: C_4  and  C_5
REMARK    6  A    between atoms: C_6  and  C_7
REMARK    7  A    between atoms: C_7  and  N_8
REMARK    8  A    between atoms: N_8  and  C_9
REMARK    9  A    between atoms: C_16  and  C_17
REMARK   10  A    between atoms: C_20  and  O_21
REMARK   11  A    between atoms: O_21  and  C_22
REMARK   12  A    between atoms: C_23  and  N_24
REMARK                            x       y       z     vdW  Elec       q    Type
REMARK                         _______ _______ _______ _____ _____    ______ ____
ROOT
ATOM      1  C   UNL     1       3.740   4.200  17.671  0.00  0.00    +0.000 A 
ATOM      2  N   UNL     1       3.972   2.892  17.462  0.00  0.00    +0.000 NA
ATOM      3  C   UNL     1       3.363   2.030  18.280  0.00  0.00    +0.000 A 
ATOM      4  N   UNL     1       2.554   2.343  19.295  0.00  0.00    +0.000 NA
ATOM      5  C   UNL     1       2.355   3.644  19.514  0.00  0.00    +0.000 A 
ATOM      6  C   UNL     1       1.525   4.014  20.557  0.00  0.00    +0.000 A 
ATOM      7  C   UNL     1       1.255   5.355  20.849  0.00  0.00    +0.000 A 
ATOM      8  C   UNL     1       1.826   6.387  20.095  0.00  0.00    +0.000 A 
ATOM      9  C   UNL     1       2.675   6.013  19.042  0.00  0.00    +0.000 A 
ATOM     10  C   UNL     1       2.939   4.650  18.735  0.00  0.00    +0.000 A 
ENDROOT
BRANCH   8  11
ATOM     11  C   UNL     1       1.563   7.802  20.403  0.00  0.00    +0.000 A 
ATOM     12  C   UNL     1       1.445   8.254  21.714  0.00  0.00    +0.000 A 
ATOM     13  N   UNL     1       1.200   9.536  22.069  0.00  0.00    +0.000 NA
ATOM     14  C   UNL     1       1.072  10.461  21.086  0.00  0.00    +0.000 A 
ATOM     15  C   UNL     1       1.189  10.123  19.743  0.00  0.00    +0.000 A 
ATOM     16  C   UNL     1       1.425   8.778  19.406  0.00  0.00    +0.000 A 
BRANCH  15  17
ATOM     17  N   UNL     1       1.086  11.108  18.669  0.00  0.00    +0.000 N 
ATOM     18  O   UNL     1       2.112  11.602  18.190  0.00  0.00    +0.000 OA
ATOM     19  O   UNL     1      -0.058  11.405  18.285  0.00  0.00    +0.000 OA
ENDBRANCH  15  17
BRANCH  14  20
ATOM     20  O   UNL     1       0.819  11.751  21.479  0.00  0.00    +0.000 OA
ATOM     21  C   UNL     1      -0.500  11.953  21.982  0.00  0.00    +0.000 C 
ENDBRANCH  14  20
ENDBRANCH   8  11
BRANCH   1  22
ATOM     22  N   UNL     1       4.357   5.142  16.807  0.00  0.00    +0.000 N 
ATOM     23  H   UNL     1       3.694   5.371  16.066  0.00  0.00    +0.000 HD
BRANCH  22  24
ATOM     24  C   UNL     1       5.553   4.610  16.136  0.00  0.00    +0.000 C 
BRANCH  24  25
ATOM     25  C   UNL     1       6.574   5.748  15.870  0.00  0.00    +0.000 C 
BRANCH  25  26
ATOM     26  N   UNL     1       7.374   6.145  17.063  0.00  0.00    +0.000 NA
BRANCH  26  28
ATOM     27  C   UNL     1       8.031   8.521  17.640  0.00  0.00    +0.000 C 
ATOM     28  C   UNL     1       6.940   7.457  17.576  0.00  0.00    +0.000 C 
ENDBRANCH  26  28
BRANCH  26  29
ATOM     29  C   UNL     1       7.362   5.073  18.077  0.00  0.00    +0.000 C 
ATOM     30  C   UNL     1       7.837   5.462  19.475  0.00  0.00    +0.000 C 
ENDBRANCH  26  29
ENDBRANCH  25  26
ENDBRANCH  24  25
ENDBRANCH  22  24
ENDBRANCH   1  22
TORSDOF 9
ENDMDL
MODEL 6
REMARK VINA RESULT:      -6.7      1.037      1.644
REMARK  Name = 
REMARK  12 active torsions:
REMARK  status: ('A' for Active; 'I' for Inactive)
REMARK    1  A    between atoms: C_1  and  C_2
REMARK    2  A    between atoms: C_2  and  N_3
REMARK    3  A    between atoms: N_3  and  C_4
REMARK    4  A    between atoms: N_3  and  C_6
REMARK    5  A    between atoms: C_4  and  C_5
REMARK    6  A    between atoms: C_6  and  C_7
REMARK    7  A    between atoms: C_7  and  N_8
REMARK    8  A    between atoms: N_8  and  C_9
REMARK    9  A    between atoms: C_16  and  C_17
REMARK   10  A    between atoms: C_20  and  O_21
REMARK   11  A    between atoms: O_21  and  C_22
REMARK   12  A    between atoms: C_23  and  N_24
REMARK                            x       y       z     vdW  Elec       q    Type
REMARK                         _______ _______ _______ _____ _____    ______ ____
ROOT
ATOM      1  C   UNL     1       3.237   3.496  17.792  0.00  0.00    +0.000 A 
ATOM      2  N   UNL     1       3.450   2.205  18.102  0.00  0.00    +0.000 NA
ATOM      3  C   UNL     1       3.144   1.821  19.344  0.00  0.00    +0.000 A 
ATOM      4  N   UNL     1       2.655   2.599  20.312  0.00  0.00    +0.000 NA
ATOM      5  C   UNL     1       2.477   3.885  20.005  0.00  0.00    +0.000 A 
ATOM      6  C   UNL     1       1.974   4.730  20.980  0.00  0.00    +0.000 A 
ATOM      7  C   UNL     1       1.747   6.088  20.737  0.00  0.00    +0.000 A 
ATOM      8  C   UNL     1       2.029   6.656  19.489  0.00  0.00    +0.000 A 
ATOM      9  C   UNL     1       2.547   5.803  18.503  0.00  0.00    +0.000 A 
ATOM     10  C   UNL     1       2.765   4.418  18.743  0.00  0.00    +0.000 A 
ENDROOT
BRANCH   8  11
ATOM     11  C   UNL     1       1.810   8.088  19.228  0.00  0.00    +0.000 A 
ATOM     12  C   UNL     1       2.261   8.694  18.059  0.00  0.00    +0.000 A 
ATOM     13  N   UNL     1       2.099  10.002  17.756  0.00  0.00    +0.000 NA
ATOM     14  C   UNL     1       1.439  10.789  18.641  0.00  0.00    +0.000 A 
ATOM     15  C   UNL     1       0.932  10.285  19.833  0.00  0.00    +0.000 A 
ATOM     16  C   UNL     1       1.133   8.924  20.127  0.00  0.00    +0.000 A 
BRANCH  15  17
ATOM     17  N   UNL     1       0.191  11.107  20.786  0.00  0.00    +0.000 N 
ATOM     18  O   UNL     1      -1.004  11.349  20.587  0.00  0.00    +0.000 OA
ATOM     19  O   UNL     1       0.819  11.530  21.772  0.00  0.00    +0.000 OA
ENDBRANCH  15  17
BRANCH  14  20
ATOM     20  O   UNL     1       1.297  12.112  18.307  0.00  0.00    +0.000 OA
ATOM     21  C   UNL     1       2.528  12.829  18.252  0.00  0.00    +0.000 C 
ENDBRANCH  14  20
ENDBRANCH   8  11
BRANCH   1  22
ATOM     22  N   UNL     1       3.534   3.933  16.475  0.00  0.00    +0.000 N 
ATOM     23  H   UNL     1       3.153   3.248  15.822  0.00  0.00    +0.000 HD
BRANCH  22  24
ATOM     24  C   UNL     1       4.979   3.997  16.204  0.00  0.00    +0.000 C 
BRANCH  24  25
ATOM     25  C   UNL     1       5.263   4.958  15.018  0.00  0.00    +0.000 C 
BRANCH  25  26
ATOM     26  N   UNL     1       6.633   5.544  15.020  0.00  0.00    +0.000 NA
BRANCH  26  28
ATOM     27  C   UNL     1       7.292   6.691  17.178  0.00  0.00    +0.000 C 
ATOM     28  C   UNL     1       7.262   5.412  16.346  0.00  0.00    +0.000 C 
ENDBRANCH  26  28
BRANCH  26  29
ATOM     29  C   UNL     1       7.440   4.984  13.918  0.00  0.00    +0.000 C 
ATOM     30  C   UNL     1       6.716   4.031  12.969  0.00  0.00    +0.000 C 
ENDBRANCH  26  29
ENDBRANCH  25  26
ENDBRANCH  24  25
ENDBRANCH  22  24
ENDBRANCH   1  22
TORSDOF 9
ENDMDL
MODEL 7
REMARK VINA RESULT:      -6.7      4.178      8.596
REMARK  Name = 
REMARK  12 active torsions:
REMARK  status: ('A' for Active; 'I' for Inactive)
REMARK    1  A    between atoms: C_1  and  C_2
REMARK    2  A    between atoms: C_2  and  N_3
REMARK    3  A    between atoms: N_3  and  C_4
REMARK    4  A    between atoms: N_3  and  C_6
REMARK    5  A    between atoms: C_4  and  C_5
REMARK    6  A    between atoms: C_6  and  C_7
REMARK    7  A    between atoms: C_7  and  N_8
REMARK    8  A    between atoms: N_8  and  C_9
REMARK    9  A    between atoms: C_16  and  C_17
REMARK   10  A    between atoms: C_20  and  O_21
REMARK   11  A    between atoms: O_21  and  C_22
REMARK   12  A    between atoms: C_23  and  N_24
REMARK                            x       y       z     vdW  Elec       q    Type
REMARK                         _______ _______ _______ _____ _____    ______ ____
ROOT
ATOM      1  C   UNL     1      -0.326  11.665  19.882  0.00  0.00    +0.000 A 
ATOM      2  N   UNL     1      -0.873  12.712  20.526  0.00  0.00    +0.000 NA
ATOM      3  C   UNL     1      -0.871  12.670  21.861  0.00  0.00    +0.000 A 
ATOM      4  N   UNL     1      -0.388  11.684  22.619  0.00  0.00    +0.000 NA
ATOM      5  C   UNL     1       0.124  10.636  21.971  0.00  0.00    +0.000 A 
ATOM      6  C   UNL     1       0.635   9.588  22.717  0.00  0.00    +0.000 A 
ATOM      7  C   UNL     1       1.198   8.457  22.117  0.00  0.00    +0.000 A 
ATOM      8  C   UNL     1       1.262   8.335  20.724  0.00  0.00    +0.000 A 
ATOM      9  C   UNL     1       0.737   9.393  19.967  0.00  0.00    +0.000 A 
ATOM     10  C   UNL     1       0.177  10.550  20.574  0.00  0.00    +0.000 A 
ENDROOT
BRANCH   8  11
ATOM     11  C   UNL     1       1.837   7.142  20.082  0.00  0.00    +0.000 A 
ATOM     12  C   UNL     1       2.559   7.228  18.894  0.00  0.00    +0.000 A 
ATOM     13  N   UNL     1       3.110   6.176  18.249  0.00  0.00    +0.000 NA
ATOM     14  C   UNL     1       2.968   4.942  18.794  0.00  0.00    +0.000 A 
ATOM     15  C   UNL     1       2.281   4.743  19.985  0.00  0.00    +0.000 A 
ATOM     16  C   UNL     1       1.704   5.856  20.623  0.00  0.00    +0.000 A 
BRANCH  15  17
ATOM     17  N   UNL     1       2.143   3.428  20.607  0.00  0.00    +0.000 N 
ATOM     18  O   UNL     1       1.023   2.920  20.725  0.00  0.00    +0.000 OA
ATOM     19  O   UNL     1       3.187   2.875  20.993  0.00  0.00    +0.000 OA
ENDBRANCH  15  17
BRANCH  14  20
ATOM     20  O   UNL     1       3.534   3.895  18.111  0.00  0.00    +0.000 OA
ATOM     21  C   UNL     1       2.642   3.246  17.207  0.00  0.00    +0.000 C 
ENDBRANCH  14  20
ENDBRANCH   8  11
BRANCH   1  22
ATOM     22  N   UNL     1      -0.295  11.686  18.463  0.00  0.00    +0.000 N 
ATOM     23  H   UNL     1       0.165  12.549  18.171  0.00  0.00    +0.000 HD
BRANCH  22  24
ATOM     24  C   UNL     1      -1.636  11.712  17.860  0.00  0.00    +0.000 C 
BRANCH  24  25
ATOM     25  C   UNL     1      -1.976  10.329  17.240  0.00  0.00    +0.000 C 
BRANCH  25  26
ATOM     26  N   UNL     1      -3.200  10.324  16.389  0.00  0.00    +0.000 NA
BRANCH  26  28
ATOM     27  C   UNL     1      -5.298  11.065  17.595  0.00  0.00    +0.000 C 
ATOM     28  C   UNL     1      -4.092  11.443  16.741  0.00  0.00    +0.000 C 
ENDBRANCH  26  28
BRANCH  26  29
ATOM     29  C   UNL     1      -2.838  10.274  14.960  0.00  0.00    +0.000 C 
ATOM     30  C   UNL     1      -3.983  10.020  13.982  0.00  0.00    +0.000 C 
ENDBRANCH  26  29
ENDBRANCH  25  26
ENDBRANCH  24  25
ENDBRANCH  22  24
ENDBRANCH   1  22
TORSDOF 9
ENDMDL
MODEL 8
REMARK VINA RESULT:      -6.7      0.994      1.626
REMARK  Name = 
REMARK  12 active torsions:
REMARK  status: ('A' for Active; 'I' for Inactive)
REMARK    1  A    between atoms: C_1  and  C_2
REMARK    2  A    between atoms: C_2  and  N_3
REMARK    3  A    between atoms: N_3  and  C_4
REMARK    4  A    between atoms: N_3  and  C_6
REMARK    5  A    between atoms: C_4  and  C_5
REMARK    6  A    between atoms: C_6  and  C_7
REMARK    7  A    between atoms: C_7  and  N_8
REMARK    8  A    between atoms: N_8  and  C_9
REMARK    9  A    between atoms: C_16  and  C_17
REMARK   10  A    between atoms: C_20  and  O_21
REMARK   11  A    between atoms: O_21  and  C_22
REMARK   12  A    between atoms: C_23  and  N_24
REMARK                            x       y       z     vdW  Elec       q    Type
REMARK                         _______ _______ _______ _____ _____    ______ ____
ROOT
ATOM      1  C   UNL     1       3.955   3.886  17.985  0.00  0.00    +0.000 A 
ATOM      2  N   UNL     1       4.215   2.600  18.278  0.00  0.00    +0.000 NA
ATOM      3  C   UNL     1       3.690   2.118  19.407  0.00  0.00    +0.000 A 
ATOM      4  N   UNL     1       2.939   2.794  20.280  0.00  0.00    +0.000 NA
ATOM      5  C   UNL     1       2.714   4.078  19.996  0.00  0.00    +0.000 A 
ATOM      6  C   UNL     1       1.942   4.819  20.875  0.00  0.00    +0.000 A 
ATOM      7  C   UNL     1       1.649   6.167  20.647  0.00  0.00    +0.000 A 
ATOM      8  C   UNL     1       2.135   6.831  19.515  0.00  0.00    +0.000 A 
ATOM      9  C   UNL     1       2.925   6.083  18.628  0.00  0.00    +0.000 A 
ATOM     10  C   UNL     1       3.212   4.708  18.849  0.00  0.00    +0.000 A 
ENDROOT
BRANCH   8  11
ATOM     11  C   UNL     1       1.848   8.254  19.273  0.00  0.00    +0.000 A 
ATOM     12  C   UNL     1       2.181   8.873  18.072  0.00  0.00    +0.000 A 
ATOM     13  N   UNL     1       1.951  10.174  17.785  0.00  0.00    +0.000 NA
ATOM     14  C   UNL     1       1.339  10.940  18.722  0.00  0.00    +0.000 A 
ATOM     15  C   UNL     1       0.948  10.421  19.950  0.00  0.00    +0.000 A 
ATOM     16  C   UNL     1       1.218   9.068  20.225  0.00  0.00    +0.000 A 
BRANCH  15  17
ATOM     17  N   UNL     1       0.260  11.219  20.962  0.00  0.00    +0.000 N 
ATOM     18  O   UNL     1       0.894  12.048  21.624  0.00  0.00    +0.000 OA
ATOM     19  O   UNL     1      -0.957  11.017  21.107  0.00  0.00    +0.000 OA
ENDBRANCH  15  17
BRANCH  14  20
ATOM     20  O   UNL     1       1.125  12.257  18.402  0.00  0.00    +0.000 OA
ATOM     21  C   UNL     1       2.317  13.037  18.339  0.00  0.00    +0.000 C 
ENDBRANCH  14  20
ENDBRANCH   8  11
BRANCH   1  22
ATOM     22  N   UNL     1       4.483   4.425  16.782  0.00  0.00    +0.000 N 
ATOM     23  H   UNL     1       3.747   4.398  16.075  0.00  0.00    +0.000 HD
BRANCH  22  24
ATOM     24  C   UNL     1       5.600   3.635  16.241  0.00  0.00    +0.000 C 
BRANCH  24  25
ATOM     25  C   UNL     1       6.956   4.293  16.613  0.00  0.00    +0.000 C 
BRANCH  25  26
ATOM     26  N   UNL     1       7.415   5.337  15.653  0.00  0.00    +0.000 NA
BRANCH  26  28
ATOM     27  C   UNL     1       7.954   5.318  13.180  0.00  0.00    +0.000 C 
ATOM     28  C   UNL     1       6.943   5.042  14.288  0.00  0.00    +0.000 C 
ENDBRANCH  26  28
BRANCH  26  29
ATOM     29  C   UNL     1       7.047   6.683  16.134  0.00  0.00    +0.000 C 
ATOM     30  C   UNL     1       7.399   7.000  17.586  0.00  0.00    +0.000 C 
ENDBRANCH  26  29
ENDBRANCH  25  26
ENDBRANCH  24  25
ENDBRANCH  22  24
ENDBRANCH   1  22
TORSDOF 9
ENDMDL
MODEL 9
REMARK VINA RESULT:      -6.6      1.912      4.437
REMARK  Name = 
REMARK  12 active torsions:
REMARK  status: ('A' for Active; 'I' for Inactive)
REMARK    1  A    between atoms: C_1  and  C_2
REMARK    2  A    between atoms: C_2  and  N_3
REMARK    3  A    between atoms: N_3  and  C_4
REMARK    4  A    between atoms: N_3  and  C_6
REMARK    5  A    between atoms: C_4  and  C_5
REMARK    6  A    between atoms: C_6  and  C_7
REMARK    7  A    between atoms: C_7  and  N_8
REMARK    8  A    between atoms: N_8  and  C_9
REMARK    9  A    between atoms: C_16  and  C_17
REMARK   10  A    between atoms: C_20  and  O_21
REMARK   11  A    between atoms: O_21  and  C_22
REMARK   12  A    between atoms: C_23  and  N_24
REMARK                            x       y       z     vdW  Elec       q    Type
REMARK                         _______ _______ _______ _____ _____    ______ ____
ROOT
ATOM      1  C   UNL     1       5.618   4.396  17.985  0.00  0.00    +0.000 A 
ATOM      2  N   UNL     1       6.491   3.868  17.108  0.00  0.00    +0.000 NA
ATOM      3  C   UNL     1       6.668   4.524  15.959  0.00  0.00    +0.000 A 
ATOM      4  N   UNL     1       6.053   5.650  15.591  0.00  0.00    +0.000 NA
ATOM      5  C   UNL     1       5.166   6.149  16.453  0.00  0.00    +0.000 A 
ATOM      6  C   UNL     1       4.502   7.315  16.111  0.00  0.00    +0.000 A 
ATOM      7  C   UNL     1       3.565   7.910  16.961  0.00  0.00    +0.000 A 
ATOM      8  C   UNL     1       3.251   7.341  18.201  0.00  0.00    +0.000 A 
ATOM      9  C   UNL     1       3.917   6.155  18.545  0.00  0.00    +0.000 A 
ATOM     10  C   UNL     1       4.881   5.556  17.688  0.00  0.00    +0.000 A 
ENDROOT
BRANCH   8  11
ATOM     11  C   UNL     1       2.254   7.949  19.097  0.00  0.00    +0.000 A 
ATOM     12  C   UNL     1       1.993   7.427  20.361  0.00  0.00    +0.000 A 
ATOM     13  N   UNL     1       1.090   7.931  21.232  0.00  0.00    +0.000 NA
ATOM     14  C   UNL     1       0.390   9.033  20.865  0.00  0.00    +0.000 A 
ATOM     15  C   UNL     1       0.581   9.646  19.633  0.00  0.00    +0.000 A 
ATOM     16  C   UNL     1       1.515   9.086  18.742  0.00  0.00    +0.000 A 
BRANCH  15  17
ATOM     17  N   UNL     1      -0.139  10.851  19.230  0.00  0.00    +0.000 N 
ATOM     18  O   UNL     1       0.443  11.941  19.229  0.00  0.00    +0.000 OA
ATOM     19  O   UNL     1      -1.330  10.712  18.902  0.00  0.00    +0.000 OA
ENDBRANCH  15  17
BRANCH  14  20
ATOM     20  O   UNL     1      -0.523   9.516  21.769  0.00  0.00    +0.000 OA
ATOM     21  C   UNL     1      -0.046   9.545  23.112  0.00  0.00    +0.000 C 
ENDBRANCH  14  20
ENDBRANCH   8  11
BRANCH   1  22
ATOM     22  N   UNL     1       5.420   3.734  19.224  0.00  0.00    +0.000 N 
ATOM     23  H   UNL     1       6.325   3.386  19.543  0.00  0.00    +0.000 HD
BRANCH  22  24
ATOM     24  C   UNL     1       4.546   2.556  19.113  0.00  0.00    +0.000 C 
BRANCH  24  25
ATOM     25  C   UNL     1       3.429   2.609  20.190  0.00  0.00    +0.000 C 
BRANCH  25  26
ATOM     26  N   UNL     1       2.296   3.516  19.854  0.00  0.00    +0.000 NA
BRANCH  26  28
ATOM     27  C   UNL     1       1.429   4.121  17.555  0.00  0.00    +0.000 C 
ATOM     28  C   UNL     1       1.599   3.061  18.638  0.00  0.00    +0.000 C 
ENDBRANCH  26  28
BRANCH  26  29
ATOM     29  C   UNL     1       1.409   3.693  21.021  0.00  0.00    +0.000 C 
ATOM     30  C   UNL     1       1.331   2.518  21.993  0.00  0.00    +0.000 C 
ENDBRANCH  26  29
ENDBRANCH  25  26
ENDBRANCH  24  25
ENDBRANCH  22  24
ENDBRANCH   1  22
TORSDOF 9
ENDMDL
