MODEL 1
REMARK VINA RESULT:      -7.1      0.000      0.000
REMARK  Name = 
REMARK  18 active torsions:
REMARK  status: ('A' for Active; 'I' for Inactive)
REMARK    1  A    between atoms: C_1  and  C_2
REMARK    2  A    between atoms: C_2  and  C_3
REMARK    3  A    between atoms: C_3  and  C_4
REMARK    4  A    between atoms: C_4  and  C_5
REMARK    5  A    between atoms: C_5  and  C_6
REMARK    6  A    between atoms: C_6  and  C_7
REMARK    7  A    between atoms: C_7  and  C_8
REMARK    8  A    between atoms: C_8  and  C_9
REMARK    9  A    between atoms: C_9  and  C_10
REMARK   10  A    between atoms: C_10  and  C_11
REMARK   11  A    between atoms: C_11  and  C_12
REMARK   12  A    between atoms: C_12  and  O_13
REMARK   13  A    between atoms: O_13  and  C_14
REMARK   14  A    between atoms: C_16  and  O_17
REMARK   15  A    between atoms: C_22  and  C_23
REMARK   16  A    between atoms: C_26  and  O_27
REMARK   17  A    between atoms: O_27  and  C_28
REMARK   18  A    between atoms: C_29  and  O_30
REMARK                            x       y       z     vdW  Elec       q    Type
REMARK                         _______ _______ _______ _____ _____    ______ ____
ROOT
ATOM      1  C   UNL     1       5.425   4.334  19.176  0.00  0.00    +0.000 A 
ATOM      2  C   UNL     1       4.681   3.160  19.253  0.00  0.00    +0.000 A 
ATOM      3  C   UNL     1       3.323   3.203  19.578  0.00  0.00    +0.000 A 
ATOM      4  C   UNL     1       2.693   4.424  19.816  0.00  0.00    +0.000 A 
ATOM      5  C   UNL     1       3.439   5.602  19.728  0.00  0.00    +0.000 A 
ATOM      6  C   UNL     1       4.803   5.555  19.415  0.00  0.00    +0.000 A 
ATOM      7  O   UNL     1       2.943   6.848  19.976  0.00  0.00    +0.000 OA
ATOM      8  C   UNL     1       1.522   6.959  19.897  0.00  0.00    +0.000 C 
ATOM      9  C   UNL     1       0.788   5.871  20.656  0.00  0.00    +0.000 C 
ATOM     10  C   UNL     1       1.268   4.528  20.211  0.00  0.00    +0.000 C 
ATOM     11  O   UNL     1       0.511   3.563  20.237  0.00  0.00    +0.000 OA
ENDROOT
BRANCH   8  12
ATOM     12  C   UNL     1       1.118   8.311  20.452  0.00  0.00    +0.000 A 
ATOM     13  C   UNL     1       1.026   9.404  19.582  0.00  0.00    +0.000 A 
ATOM     14  C   UNL     1       0.700  10.670  20.062  0.00  0.00    +0.000 A 
ATOM     15  C   UNL     1       0.444  10.871  21.427  0.00  0.00    +0.000 A 
ATOM     16  C   UNL     1       0.480   9.766  22.283  0.00  0.00    +0.000 A 
ATOM     17  C   UNL     1       0.801   8.497  21.809  0.00  0.00    +0.000 A 
BRANCH  16  18
ATOM     18  O   UNL     1       0.211   9.886  23.618  0.00  0.00    +0.000 OA
ATOM     19  H   UNL     1      -0.752  10.018  23.691  0.00  0.00    +0.000 HD
ENDBRANCH  16  18
BRANCH  15  20
ATOM     20  O   UNL     1       0.159  12.085  21.996  0.00  0.00    +0.000 OA
ATOM     21  C   UNL     1       0.560  13.222  21.228  0.00  0.00    +0.000 C 
ENDBRANCH  15  20
ENDBRANCH   8  12
BRANCH   3  22
ATOM     22  O   UNL     1       2.648   2.021  19.677  0.00  0.00    +0.000 OA
ATOM     23  H   UNL     1       1.820   2.124  20.170  0.00  0.00    +0.000 HD
ENDBRANCH   3  22
BRANCH   1  24
ATOM     24  O   UNL     1       6.760   4.386  18.885  0.00  0.00    +0.000 OA
BRANCH  24  25
ATOM     25  C   UNL     1       7.389   5.638  19.143  0.00  0.00    +0.000 C 
BRANCH  25  26
ATOM     26  C   UNL     1       7.833   6.252  17.824  0.00  0.00    +0.000 C 
BRANCH  26  27
ATOM     27  C   UNL     1       6.874   7.360  17.408  0.00  0.00    +0.000 C 
BRANCH  27  28
ATOM     28  C   UNL     1       5.820   6.830  16.449  0.00  0.00    +0.000 C 
BRANCH  28  29
ATOM     29  C   UNL     1       6.375   5.670  15.636  0.00  0.00    +0.000 C 
BRANCH  29  30
ATOM     30  C   UNL     1       5.353   4.546  15.552  0.00  0.00    +0.000 C 
BRANCH  30  31
ATOM     31  C   UNL     1       5.797   3.502  14.539  0.00  0.00    +0.000 C 
BRANCH  31  32
ATOM     32  C   UNL     1       5.445   3.953  13.129  0.00  0.00    +0.000 C 
BRANCH  32  33
ATOM     33  C   UNL     1       6.332   3.250  12.112  0.00  0.00    +0.000 C 
BRANCH  33  34
ATOM     34  C   UNL     1       5.596   2.067  11.496  0.00  0.00    +0.000 C 
BRANCH  34  36
ATOM     35  C   UNL     1       6.139  -0.369  11.345  0.00  0.00    +0.000 C 
ATOM     36  C   UNL     1       6.583   1.033  10.971  0.00  0.00    +0.000 C 
ENDBRANCH  34  36
ENDBRANCH  33  34
ENDBRANCH  32  33
ENDBRANCH  31  32
ENDBRANCH  30  31
ENDBRANCH  29  30
ENDBRANCH  28  29
ENDBRANCH  27  28
ENDBRANCH  26  27
ENDBRANCH  25  26
ENDBRANCH  24  25
ENDBRANCH   1  24
TORSDOF 16
ENDMDL
MODEL 2
REMARK VINA RESULT:      -7.0      2.335      4.861
REMARK  Name = 
REMARK  18 active torsions:
REMARK  status: ('A' for Active; 'I' for Inactive)
REMARK    1  A    between atoms: C_1  and  C_2
REMARK    2  A    between atoms: C_2  and  C_3
REMARK    3  A    between atoms: C_3  and  C_4
REMARK    4  A    between atoms: C_4  and  C_5
REMARK    5  A    between atoms: C_5  and  C_6
REMARK    6  A    between atoms: C_6  and  C_7
REMARK    7  A    between atoms: C_7  and  C_8
REMARK    8  A    between atoms: C_8  and  C_9
REMARK    9  A    between atoms: C_9  and  C_10
REMARK   10  A    between atoms: C_10  and  C_11
REMARK   11  A    between atoms: C_11  and  C_12
REMARK   12  A    between atoms: C_12  and  O_13
REMARK   13  A    between atoms: O_13  and  C_14
REMARK   14  A    between atoms: C_16  and  O_17
REMARK   15  A    between atoms: C_22  and  C_23
REMARK   16  A    between atoms: C_26  and  O_27
REMARK   17  A    between atoms: O_27  and  C_28
REMARK   18  A    between atoms: C_29  and  O_30
REMARK                            x       y       z     vdW  Elec       q    Type
REMARK                         _______ _______ _______ _____ _____    ______ ____
ROOT
ATOM      1  C   UNL     1       2.018   6.129  20.613  0.00  0.00    +0.000 A 
ATOM      2  C   UNL     1       2.668   6.316  19.396  0.00  0.00    +0.000 A 
ATOM      3  C   UNL     1       2.545   7.525  18.707  0.00  0.00    +0.000 A 
ATOM      4  C   UNL     1       1.779   8.563  19.234  0.00  0.00    +0.000 A 
ATOM      5  C   UNL     1       1.135   8.377  20.460  0.00  0.00    +0.000 A 
ATOM      6  C   UNL     1       1.250   7.161  21.144  0.00  0.00    +0.000 A 
ATOM      7  O   UNL     1       0.330   9.304  21.056  0.00  0.00    +0.000 OA
ATOM      8  C   UNL     1       0.518  10.645  20.605  0.00  0.00    +0.000 C 
ATOM      9  C   UNL     1       0.549  10.776  19.094  0.00  0.00    +0.000 C 
ATOM     10  C   UNL     1       1.573   9.848  18.525  0.00  0.00    +0.000 C 
ATOM     11  O   UNL     1       2.157  10.138  17.486  0.00  0.00    +0.000 OA
ENDROOT
BRANCH   8  12
ATOM     12  C   UNL     1      -0.613  11.494  21.153  0.00  0.00    +0.000 A 
ATOM     13  C   UNL     1      -1.079  11.248  22.451  0.00  0.00    +0.000 A 
ATOM     14  C   UNL     1      -2.145  11.978  22.973  0.00  0.00    +0.000 A 
ATOM     15  C   UNL     1      -2.761  12.985  22.214  0.00  0.00    +0.000 A 
ATOM     16  C   UNL     1      -2.253  13.266  20.941  0.00  0.00    +0.000 A 
ATOM     17  C   UNL     1      -1.187  12.543  20.415  0.00  0.00    +0.000 A 
BRANCH  16  18
ATOM     18  O   UNL     1      -2.786  14.253  20.161  0.00  0.00    +0.000 OA
ATOM     19  H   UNL     1      -2.334  14.194  19.300  0.00  0.00    +0.000 HD
ENDBRANCH  16  18
BRANCH  15  20
ATOM     20  O   UNL     1      -3.839  13.723  22.627  0.00  0.00    +0.000 OA
ATOM     21  C   UNL     1      -4.933  12.961  23.142  0.00  0.00    +0.000 C 
ENDBRANCH  15  20
ENDBRANCH   8  12
BRANCH   3  22
ATOM     22  O   UNL     1       3.172   7.643  17.500  0.00  0.00    +0.000 OA
ATOM     23  H   UNL     1       3.839   6.951  17.377  0.00  0.00    +0.000 HD
ENDBRANCH   3  22
BRANCH   1  24
ATOM     24  O   UNL     1       2.065   4.976  21.346  0.00  0.00    +0.000 OA
BRANCH  24  25
ATOM     25  C   UNL     1       2.190   3.778  20.586  0.00  0.00    +0.000 C 
BRANCH  25  26
ATOM     26  C   UNL     1       0.895   3.534  19.826  0.00  0.00    +0.000 C 
BRANCH  26  27
ATOM     27  C   UNL     1       1.133   2.568  18.673  0.00  0.00    +0.000 C 
BRANCH  27  28
ATOM     28  C   UNL     1       2.471   1.862  18.828  0.00  0.00    +0.000 C 
BRANCH  28  29
ATOM     29  C   UNL     1       3.318   2.046  17.577  0.00  0.00    +0.000 C 
BRANCH  29  30
ATOM     30  C   UNL     1       4.212   3.268  17.719  0.00  0.00    +0.000 C 
BRANCH  30  31
ATOM     31  C   UNL     1       3.869   4.300  16.656  0.00  0.00    +0.000 C 
BRANCH  31  32
ATOM     32  C   UNL     1       5.140   4.854  16.030  0.00  0.00    +0.000 C 
BRANCH  32  33
ATOM     33  C   UNL     1       5.788   3.808  15.135  0.00  0.00    +0.000 C 
BRANCH  33  34
ATOM     34  C   UNL     1       6.816   4.458  14.218  0.00  0.00    +0.000 C 
BRANCH  34  36
ATOM     35  C   UNL     1       5.217   3.444  12.586  0.00  0.00    +0.000 C 
ATOM     36  C   UNL     1       6.609   4.018  12.776  0.00  0.00    +0.000 C 
ENDBRANCH  34  36
ENDBRANCH  33  34
ENDBRANCH  32  33
ENDBRANCH  31  32
ENDBRANCH  30  31
ENDBRANCH  29  30
ENDBRANCH  28  29
ENDBRANCH  27  28
ENDBRANCH  26  27
ENDBRANCH  25  26
ENDBRANCH  24  25
ENDBRANCH   1  24
TORSDOF 16
ENDMDL
MODEL 3
REMARK VINA RESULT:      -6.9      2.777      5.388
REMARK  Name = 
REMARK  18 active torsions:
REMARK  status: ('A' for Active; 'I' for Inactive)
REMARK    1  A    between atoms: C_1  and  C_2
REMARK    2  A    between atoms: C_2  and  C_3
REMARK    3  A    between atoms: C_3  and  C_4
REMARK    4  A    between atoms: C_4  and  C_5
REMARK    5  A    between atoms: C_5  and  C_6
REMARK    6  A    between atoms: C_6  and  C_7
REMARK    7  A    between atoms: C_7  and  C_8
REMARK    8  A    between atoms: C_8  and  C_9
REMARK    9  A    between atoms: C_9  and  C_10
REMARK   10  A    between atoms: C_10  and  C_11
REMARK   11  A    between atoms: C_11  and  C_12
REMARK   12  A    between atoms: C_12  and  O_13
REMARK   13  A    between atoms: O_13  and  C_14
REMARK   14  A    between atoms: C_16  and  O_17
REMARK   15  A    between atoms: C_22  and  C_23
REMARK   16  A    between atoms: C_26  and  O_27
REMARK   17  A    between atoms: O_27  and  C_28
REMARK   18  A    between atoms: C_29  and  O_30
REMARK                            x       y       z     vdW  Elec       q    Type
REMARK                         _______ _______ _______ _____ _____    ______ ____
ROOT
ATOM      1  C   UNL     1       2.212   6.131  20.689  0.00  0.00    +0.000 A 
ATOM      2  C   UNL     1       2.822   6.304  19.450  0.00  0.00    +0.000 A 
ATOM      3  C   UNL     1       2.601   7.468  18.710  0.00  0.00    +0.000 A 
ATOM      4  C   UNL     1       1.777   8.476  19.209  0.00  0.00    +0.000 A 
ATOM      5  C   UNL     1       1.174   8.304  20.457  0.00  0.00    +0.000 A 
ATOM      6  C   UNL     1       1.386   7.131  21.192  0.00  0.00    +0.000 A 
ATOM      7  O   UNL     1       0.320   9.201  21.030  0.00  0.00    +0.000 OA
ATOM      8  C   UNL     1       0.406  10.529  20.515  0.00  0.00    +0.000 C 
ATOM      9  C   UNL     1       0.396  10.592  19.000  0.00  0.00    +0.000 C 
ATOM     10  C   UNL     1       1.468   9.710  18.448  0.00  0.00    +0.000 C 
ATOM     11  O   UNL     1       2.009   9.990  17.384  0.00  0.00    +0.000 OA
ENDROOT
BRANCH   8  12
ATOM     12  C   UNL     1      -0.769  11.324  21.052  0.00  0.00    +0.000 A 
ATOM     13  C   UNL     1      -0.951  11.415  22.438  0.00  0.00    +0.000 A 
ATOM     14  C   UNL     1      -2.043  12.100  22.967  0.00  0.00    +0.000 A 
ATOM     15  C   UNL     1      -2.972  12.726  22.122  0.00  0.00    +0.000 A 
ATOM     16  C   UNL     1      -2.752  12.682  20.741  0.00  0.00    +0.000 A 
ATOM     17  C   UNL     1      -1.662  12.003  20.206  0.00  0.00    +0.000 A 
BRANCH  16  18
ATOM     18  O   UNL     1      -3.601  13.296  19.864  0.00  0.00    +0.000 OA
ATOM     19  H   UNL     1      -3.052  13.900  19.331  0.00  0.00    +0.000 HD
ENDBRANCH  16  18
BRANCH  15  20
ATOM     20  O   UNL     1      -4.095  13.383  22.550  0.00  0.00    +0.000 OA
ATOM     21  C   UNL     1      -4.645  12.906  23.780  0.00  0.00    +0.000 C 
ENDBRANCH  15  20
ENDBRANCH   8  12
BRANCH   3  22
ATOM     22  O   UNL     1       3.193   7.572  17.485  0.00  0.00    +0.000 OA
ATOM     23  H   UNL     1       3.668   6.762  17.249  0.00  0.00    +0.000 HD
ENDBRANCH   3  22
BRANCH   1  24
ATOM     24  O   UNL     1       2.354   5.019  21.473  0.00  0.00    +0.000 OA
BRANCH  24  25
ATOM     25  C   UNL     1       2.470   3.788  20.764  0.00  0.00    +0.000 C 
BRANCH  25  26
ATOM     26  C   UNL     1       1.156   3.029  20.866  0.00  0.00    +0.000 C 
BRANCH  26  27
ATOM     27  C   UNL     1       0.570   2.799  19.479  0.00  0.00    +0.000 C 
BRANCH  27  28
ATOM     28  C   UNL     1       1.668   2.481  18.475  0.00  0.00    +0.000 C 
BRANCH  28  29
ATOM     29  C   UNL     1       1.770   3.583  17.431  0.00  0.00    +0.000 C 
BRANCH  29  30
ATOM     30  C   UNL     1       3.029   3.405  16.596  0.00  0.00    +0.000 C 
BRANCH  30  31
ATOM     31  C   UNL     1       4.265   3.487  17.478  0.00  0.00    +0.000 C 
BRANCH  31  32
ATOM     32  C   UNL     1       5.069   4.735  17.143  0.00  0.00    +0.000 C 
BRANCH  32  33
ATOM     33  C   UNL     1       6.304   4.367  16.335  0.00  0.00    +0.000 C 
BRANCH  33  34
ATOM     34  C   UNL     1       7.266   5.546  16.269  0.00  0.00    +0.000 C 
BRANCH  34  36
ATOM     35  C   UNL     1       7.846   6.645  18.439  0.00  0.00    +0.000 C 
ATOM     36  C   UNL     1       6.872   6.619  17.276  0.00  0.00    +0.000 C 
ENDBRANCH  34  36
ENDBRANCH  33  34
ENDBRANCH  32  33
ENDBRANCH  31  32
ENDBRANCH  30  31
ENDBRANCH  29  30
ENDBRANCH  28  29
ENDBRANCH  27  28
ENDBRANCH  26  27
ENDBRANCH  25  26
ENDBRANCH  24  25
ENDBRANCH   1  24
TORSDOF 16
ENDMDL
MODEL 4
REMARK VINA RESULT:      -6.9      3.424      6.649
REMARK  Name = 
REMARK  18 active torsions:
REMARK  status: ('A' for Active; 'I' for Inactive)
REMARK    1  A    between atoms: C_1  and  C_2
REMARK    2  A    between atoms: C_2  and  C_3
REMARK    3  A    between atoms: C_3  and  C_4
REMARK    4  A    between atoms: C_4  and  C_5
REMARK    5  A    between atoms: C_5  and  C_6
REMARK    6  A    between atoms: C_6  and  C_7
REMARK    7  A    between atoms: C_7  and  C_8
REMARK    8  A    between atoms: C_8  and  C_9
REMARK    9  A    between atoms: C_9  and  C_10
REMARK   10  A    between atoms: C_10  and  C_11
REMARK   11  A    between atoms: C_11  and  C_12
REMARK   12  A    between atoms: C_12  and  O_13
REMARK   13  A    between atoms: O_13  and  C_14
REMARK   14  A    between atoms: C_16  and  O_17
REMARK   15  A    between atoms: C_22  and  C_23
REMARK   16  A    between atoms: C_26  and  O_27
REMARK   17  A    between atoms: O_27  and  C_28
REMARK   18  A    between atoms: C_29  and  O_30
REMARK                            x       y       z     vdW  Elec       q    Type
REMARK                         _______ _______ _______ _____ _____    ______ ____
ROOT
ATOM      1  C   UNL     1       1.140   8.383  20.610  0.00  0.00    +0.000 A 
ATOM      2  C   UNL     1       1.602   8.956  19.428  0.00  0.00    +0.000 A 
ATOM      3  C   UNL     1       1.059  10.157  18.966  0.00  0.00    +0.000 A 
ATOM      4  C   UNL     1       0.057  10.803  19.689  0.00  0.00    +0.000 A 
ATOM      5  C   UNL     1      -0.398  10.231  20.880  0.00  0.00    +0.000 A 
ATOM      6  C   UNL     1       0.139   9.020  21.335  0.00  0.00    +0.000 A 
ATOM      7  O   UNL     1      -1.397  10.749  21.651  0.00  0.00    +0.000 OA
ATOM      8  C   UNL     1      -1.666  12.135  21.438  0.00  0.00    +0.000 C 
ATOM      9  C   UNL     1      -1.799  12.507  19.974  0.00  0.00    +0.000 C 
ATOM     10  C   UNL     1      -0.590  12.053  19.223  0.00  0.00    +0.000 C 
ATOM     11  O   UNL     1      -0.208  12.673  18.236  0.00  0.00    +0.000 OA
ENDROOT
BRANCH   8  12
ATOM     12  C   UNL     1      -2.954  12.485  22.158  0.00  0.00    +0.000 A 
ATOM     13  C   UNL     1      -4.042  12.958  21.413  0.00  0.00    +0.000 A 
ATOM     14  C   UNL     1      -5.227  13.330  22.044  0.00  0.00    +0.000 A 
ATOM     15  C   UNL     1      -5.359  13.223  23.437  0.00  0.00    +0.000 A 
ATOM     16  C   UNL     1      -4.290  12.695  24.169  0.00  0.00    +0.000 A 
ATOM     17  C   UNL     1      -3.105  12.318  23.545  0.00  0.00    +0.000 A 
BRANCH  16  18
ATOM     18  O   UNL     1      -4.363  12.535  25.525  0.00  0.00    +0.000 OA
ATOM     19  H   UNL     1      -5.068  11.881  25.685  0.00  0.00    +0.000 HD
ENDBRANCH  16  18
BRANCH  15  20
ATOM     20  O   UNL     1      -6.467  13.604  24.147  0.00  0.00    +0.000 OA
ATOM     21  C   UNL     1      -7.675  12.927  23.793  0.00  0.00    +0.000 C 
ENDBRANCH  15  20
ENDBRANCH   8  12
BRANCH   3  22
ATOM     22  O   UNL     1       1.521  10.657  17.783  0.00  0.00    +0.000 OA
ATOM     23  H   UNL     1       1.204  11.560  17.630  0.00  0.00    +0.000 HD
ENDBRANCH   3  22
BRANCH   1  24
ATOM     24  O   UNL     1       1.598   7.202  21.128  0.00  0.00    +0.000 OA
BRANCH  24  25
ATOM     25  C   UNL     1       1.931   6.206  20.165  0.00  0.00    +0.000 C 
BRANCH  25  26
ATOM     26  C   UNL     1       1.490   4.846  20.683  0.00  0.00    +0.000 C 
BRANCH  26  27
ATOM     27  C   UNL     1       1.214   3.902  19.520  0.00  0.00    +0.000 C 
BRANCH  27  28
ATOM     28  C   UNL     1       2.102   2.670  19.602  0.00  0.00    +0.000 C 
BRANCH  28  29
ATOM     29  C   UNL     1       3.516   3.001  19.149  0.00  0.00    +0.000 C 
BRANCH  29  30
ATOM     30  C   UNL     1       3.516   3.438  17.692  0.00  0.00    +0.000 C 
BRANCH  30  31
ATOM     31  C   UNL     1       4.902   3.907  17.280  0.00  0.00    +0.000 C 
BRANCH  31  32
ATOM     32  C   UNL     1       4.888   4.390  15.838  0.00  0.00    +0.000 C 
BRANCH  32  33
ATOM     33  C   UNL     1       5.944   5.466  15.630  0.00  0.00    +0.000 C 
BRANCH  33  34
ATOM     34  C   UNL     1       7.038   5.345  16.683  0.00  0.00    +0.000 C 
BRANCH  34  36
ATOM     35  C   UNL     1       7.918   6.505  18.715  0.00  0.00    +0.000 C 
ATOM     36  C   UNL     1       7.306   6.692  17.340  0.00  0.00    +0.000 C 
ENDBRANCH  34  36
ENDBRANCH  33  34
ENDBRANCH  32  33
ENDBRANCH  31  32
ENDBRANCH  30  31
ENDBRANCH  29  30
ENDBRANCH  28  29
ENDBRANCH  27  28
ENDBRANCH  26  27
ENDBRANCH  25  26
ENDBRANCH  24  25
ENDBRANCH   1  24
TORSDOF 16
ENDMDL
MODEL 5
REMARK VINA RESULT:      -6.9      2.954      6.462
REMARK  Name = 
REMARK  18 active torsions:
REMARK  status: ('A' for Active; 'I' for Inactive)
REMARK    1  A    between atoms: C_1  and  C_2
REMARK    2  A    between atoms: C_2  and  C_3
REMARK    3  A    between atoms: C_3  and  C_4
REMARK    4  A    between atoms: C_4  and  C_5
REMARK    5  A    between atoms: C_5  and  C_6
REMARK    6  A    between atoms: C_6  and  C_7
REMARK    7  A    between atoms: C_7  and  C_8
REMARK    8  A    between atoms: C_8  and  C_9
REMARK    9  A    between atoms: C_9  and  C_10
REMARK   10  A    between atoms: C_10  and  C_11
REMARK   11  A    between atoms: C_11  and  C_12
REMARK   12  A    between atoms: C_12  and  O_13
REMARK   13  A    between atoms: O_13  and  C_14
REMARK   14  A    between atoms: C_16  and  O_17
REMARK   15  A    between atoms: C_22  and  C_23
REMARK   16  A    between atoms: C_26  and  O_27
REMARK   17  A    between atoms: O_27  and  C_28
REMARK   18  A    between atoms: C_29  and  O_30
REMARK                            x       y       z     vdW  Elec       q    Type
REMARK                         _______ _______ _______ _____ _____    ______ ____
ROOT
ATOM      1  C   UNL     1       1.442   8.065  20.364  0.00  0.00    +0.000 A 
ATOM      2  C   UNL     1       1.809   8.500  19.093  0.00  0.00    +0.000 A 
ATOM      3  C   UNL     1       1.475   9.787  18.663  0.00  0.00    +0.000 A 
ATOM      4  C   UNL     1       0.781  10.655  19.505  0.00  0.00    +0.000 A 
ATOM      5  C   UNL     1       0.423  10.219  20.783  0.00  0.00    +0.000 A 
ATOM      6  C   UNL     1       0.748   8.925  21.208  0.00  0.00    +0.000 A 
ATOM      7  O   UNL     1      -0.287  10.963  21.680  0.00  0.00    +0.000 OA
ATOM      8  C   UNL     1      -0.274  12.370  21.440  0.00  0.00    +0.000 C 
ATOM      9  C   UNL     1      -0.572  12.741  20.000  0.00  0.00    +0.000 C 
ATOM     10  C   UNL     1       0.358  12.012  19.086  0.00  0.00    +0.000 C 
ATOM     11  O   UNL     1       0.691  12.515  18.018  0.00  0.00    +0.000 OA
ENDROOT
BRANCH   8  12
ATOM     12  C   UNL     1      -1.309  13.015  22.343  0.00  0.00    +0.000 A 
ATOM     13  C   UNL     1      -2.663  12.711  22.151  0.00  0.00    +0.000 A 
ATOM     14  C   UNL     1      -3.645  13.316  22.932  0.00  0.00    +0.000 A 
ATOM     15  C   UNL     1      -3.295  14.232  23.936  0.00  0.00    +0.000 A 
ATOM     16  C   UNL     1      -1.938  14.488  24.162  0.00  0.00    +0.000 A 
ATOM     17  C   UNL     1      -0.952  13.883  23.388  0.00  0.00    +0.000 A 
BRANCH  16  18
ATOM     18  O   UNL     1      -1.527  15.345  25.144  0.00  0.00    +0.000 OA
ATOM     19  H   UNL     1      -0.826  14.880  25.636  0.00  0.00    +0.000 HD
ENDBRANCH  16  18
BRANCH  15  20
ATOM     20  O   UNL     1      -4.191  14.907  24.722  0.00  0.00    +0.000 OA
ATOM     21  C   UNL     1      -4.859  15.996  24.080  0.00  0.00    +0.000 C 
ENDBRANCH  15  20
ENDBRANCH   8  12
BRANCH   3  22
ATOM     22  O   UNL     1       1.824  10.151  17.395  0.00  0.00    +0.000 OA
ATOM     23  H   UNL     1       1.175  10.755  17.006  0.00  0.00    +0.000 HD
ENDBRANCH   3  22
BRANCH   1  24
ATOM     24  O   UNL     1       1.709   6.819  20.861  0.00  0.00    +0.000 OA
BRANCH  24  25
ATOM     25  C   UNL     1       2.173   5.870  19.905  0.00  0.00    +0.000 C 
BRANCH  25  26
ATOM     26  C   UNL     1       1.858   4.468  20.403  0.00  0.00    +0.000 C 
BRANCH  26  27
ATOM     27  C   UNL     1       1.508   3.558  19.232  0.00  0.00    +0.000 C 
BRANCH  27  28
ATOM     28  C   UNL     1       1.810   4.242  17.907  0.00  0.00    +0.000 C 
BRANCH  28  29
ATOM     29  C   UNL     1       2.732   3.378  17.060  0.00  0.00    +0.000 C 
BRANCH  29  30
ATOM     30  C   UNL     1       4.176   3.553  17.504  0.00  0.00    +0.000 C 
BRANCH  30  31
ATOM     31  C   UNL     1       4.874   4.592  16.640  0.00  0.00    +0.000 C 
BRANCH  31  32
ATOM     32  C   UNL     1       5.298   5.782  17.486  0.00  0.00    +0.000 C 
BRANCH  32  33
ATOM     33  C   UNL     1       6.229   5.333  18.603  0.00  0.00    +0.000 C 
BRANCH  33  34
ATOM     34  C   UNL     1       7.501   6.170  18.602  0.00  0.00    +0.000 C 
BRANCH  34  36
ATOM     35  C   UNL     1       8.121   8.494  17.918  0.00  0.00    +0.000 C 
ATOM     36  C   UNL     1       7.469   7.197  17.478  0.00  0.00    +0.000 C 
ENDBRANCH  34  36
ENDBRANCH  33  34
ENDBRANCH  32  33
ENDBRANCH  31  32
ENDBRANCH  30  31
ENDBRANCH  29  30
ENDBRANCH  28  29
ENDBRANCH  27  28
ENDBRANCH  26  27
ENDBRANCH  25  26
ENDBRANCH  24  25
ENDBRANCH   1  24
TORSDOF 16
ENDMDL
MODEL 6
REMARK VINA RESULT:      -6.8      2.640      5.658
REMARK  Name = 
REMARK  18 active torsions:
REMARK  status: ('A' for Active; 'I' for Inactive)
REMARK    1  A    between atoms: C_1  and  C_2
REMARK    2  A    between atoms: C_2  and  C_3
REMARK    3  A    between atoms: C_3  and  C_4
REMARK    4  A    between atoms: C_4  and  C_5
REMARK    5  A    between atoms: C_5  and  C_6
REMARK    6  A    between atoms: C_6  and  C_7
REMARK    7  A    between atoms: C_7  and  C_8
REMARK    8  A    between atoms: C_8  and  C_9
REMARK    9  A    between atoms: C_9  and  C_10
REMARK   10  A    between atoms: C_10  and  C_11
REMARK   11  A    between atoms: C_11  and  C_12
REMARK   12  A    between atoms: C_12  and  O_13
REMARK   13  A    between atoms: O_13  and  C_14
REMARK   14  A    between atoms: C_16  and  O_17
REMARK   15  A    between atoms: C_22  and  C_23
REMARK   16  A    between atoms: C_26  and  O_27
REMARK   17  A    between atoms: O_27  and  C_28
REMARK   18  A    between atoms: C_29  and  O_30
REMARK                            x       y       z     vdW  Elec       q    Type
REMARK                         _______ _______ _______ _____ _____    ______ ____
ROOT
ATOM      1  C   UNL     1       1.690   6.851  20.492  0.00  0.00    +0.000 A 
ATOM      2  C   UNL     1       2.206   7.151  19.235  0.00  0.00    +0.000 A 
ATOM      3  C   UNL     1       2.099   8.444  18.717  0.00  0.00    +0.000 A 
ATOM      4  C   UNL     1       1.485   9.453  19.458  0.00  0.00    +0.000 A 
ATOM      5  C   UNL     1       0.976   9.151  20.724  0.00  0.00    +0.000 A 
ATOM      6  C   UNL     1       1.074   7.852  21.236  0.00  0.00    +0.000 A 
ATOM      7  O   UNL     1       0.323  10.043  21.524  0.00  0.00    +0.000 OA
ATOM      8  C   UNL     1       0.563  11.417  21.217  0.00  0.00    +0.000 C 
ATOM      9  C   UNL     1       0.427  11.739  19.742  0.00  0.00    +0.000 C 
ATOM     10  C   UNL     1       1.300  10.829  18.940  0.00  0.00    +0.000 C 
ATOM     11  O   UNL     1       1.780  11.213  17.879  0.00  0.00    +0.000 OA
ENDROOT
BRANCH   8  12
ATOM     12  C   UNL     1      -0.425  12.258  22.002  0.00  0.00    +0.000 A 
ATOM     13  C   UNL     1      -0.185  13.631  22.146  0.00  0.00    +0.000 A 
ATOM     14  C   UNL     1      -1.047  14.428  22.896  0.00  0.00    +0.000 A 
ATOM     15  C   UNL     1      -2.181  13.873  23.509  0.00  0.00    +0.000 A 
ATOM     16  C   UNL     1      -2.447  12.514  23.313  0.00  0.00    +0.000 A 
ATOM     17  C   UNL     1      -1.592  11.713  22.562  0.00  0.00    +0.000 A 
BRANCH  16  18
ATOM     18  O   UNL     1      -3.550  11.917  23.857  0.00  0.00    +0.000 OA
ATOM     19  H   UNL     1      -4.279  12.068  23.228  0.00  0.00    +0.000 HD
ENDBRANCH  16  18
BRANCH  15  20
ATOM     20  O   UNL     1      -3.058  14.568  24.299  0.00  0.00    +0.000 OA
ATOM     21  C   UNL     1      -2.531  15.001  25.555  0.00  0.00    +0.000 C 
ENDBRANCH  15  20
ENDBRANCH   8  12
BRANCH   3  22
ATOM     22  O   UNL     1       2.588   8.677  17.464  0.00  0.00    +0.000 OA
ATOM     23  H   UNL     1       1.912   8.532  16.785  0.00  0.00    +0.000 HD
ENDBRANCH   3  22
BRANCH   1  24
ATOM     24  O   UNL     1       1.731   5.612  21.070  0.00  0.00    +0.000 OA
BRANCH  24  25
ATOM     25  C   UNL     1       2.532   4.651  20.388  0.00  0.00    +0.000 C 
BRANCH  25  26
ATOM     26  C   UNL     1       1.749   3.353  20.258  0.00  0.00    +0.000 C 
BRANCH  26  27
ATOM     27  C   UNL     1       1.358   3.116  18.805  0.00  0.00    +0.000 C 
BRANCH  27  28
ATOM     28  C   UNL     1       2.473   2.402  18.055  0.00  0.00    +0.000 C 
BRANCH  28  29
ATOM     29  C   UNL     1       2.858   3.181  16.806  0.00  0.00    +0.000 C 
BRANCH  29  30
ATOM     30  C   UNL     1       4.024   4.112  17.102  0.00  0.00    +0.000 C 
BRANCH  30  31
ATOM     31  C   UNL     1       4.953   4.194  15.901  0.00  0.00    +0.000 C 
BRANCH  31  32
ATOM     32  C   UNL     1       5.753   5.487  15.940  0.00  0.00    +0.000 C 
BRANCH  32  33
ATOM     33  C   UNL     1       5.458   6.253  17.222  0.00  0.00    +0.000 C 
BRANCH  33  34
ATOM     34  C   UNL     1       6.510   7.330  17.450  0.00  0.00    +0.000 C 
BRANCH  34  36
ATOM     35  C   UNL     1       7.581   5.865  19.170  0.00  0.00    +0.000 C 
ATOM     36  C   UNL     1       7.816   6.715  17.935  0.00  0.00    +0.000 C 
ENDBRANCH  34  36
ENDBRANCH  33  34
ENDBRANCH  32  33
ENDBRANCH  31  32
ENDBRANCH  30  31
ENDBRANCH  29  30
ENDBRANCH  28  29
ENDBRANCH  27  28
ENDBRANCH  26  27
ENDBRANCH  25  26
ENDBRANCH  24  25
ENDBRANCH   1  24
TORSDOF 16
ENDMDL
MODEL 7
REMARK VINA RESULT:      -6.7      3.568      7.277
REMARK  Name = 
REMARK  18 active torsions:
REMARK  status: ('A' for Active; 'I' for Inactive)
REMARK    1  A    between atoms: C_1  and  C_2
REMARK    2  A    between atoms: C_2  and  C_3
REMARK    3  A    between atoms: C_3  and  C_4
REMARK    4  A    between atoms: C_4  and  C_5
REMARK    5  A    between atoms: C_5  and  C_6
REMARK    6  A    between atoms: C_6  and  C_7
REMARK    7  A    between atoms: C_7  and  C_8
REMARK    8  A    between atoms: C_8  and  C_9
REMARK    9  A    between atoms: C_9  and  C_10
REMARK   10  A    between atoms: C_10  and  C_11
REMARK   11  A    between atoms: C_11  and  C_12
REMARK   12  A    between atoms: C_12  and  O_13
REMARK   13  A    between atoms: O_13  and  C_14
REMARK   14  A    between atoms: C_16  and  O_17
REMARK   15  A    between atoms: C_22  and  C_23
REMARK   16  A    between atoms: C_26  and  O_27
REMARK   17  A    between atoms: O_27  and  C_28
REMARK   18  A    between atoms: C_29  and  O_30
REMARK                            x       y       z     vdW  Elec       q    Type
REMARK                         _______ _______ _______ _____ _____    ______ ____
ROOT
ATOM      1  C   UNL     1       1.287   9.571  19.032  0.00  0.00    +0.000 A 
ATOM      2  C   UNL     1       1.890  10.625  18.351  0.00  0.00    +0.000 A 
ATOM      3  C   UNL     1       1.410  11.929  18.499  0.00  0.00    +0.000 A 
ATOM      4  C   UNL     1       0.330  12.192  19.340  0.00  0.00    +0.000 A 
ATOM      5  C   UNL     1      -0.267  11.134  20.030  0.00  0.00    +0.000 A 
ATOM      6  C   UNL     1       0.207   9.826  19.871  0.00  0.00    +0.000 A 
ATOM      7  O   UNL     1      -1.350  11.263  20.850  0.00  0.00    +0.000 OA
ATOM      8  C   UNL     1      -1.588  12.585  21.332  0.00  0.00    +0.000 C 
ATOM      9  C   UNL     1      -1.541  13.643  20.247  0.00  0.00    +0.000 C 
ATOM     10  C   UNL     1      -0.252  13.546  19.498  0.00  0.00    +0.000 C 
ATOM     11  O   UNL     1       0.248  14.549  19.000  0.00  0.00    +0.000 OA
ENDROOT
BRANCH   8  12
ATOM     12  C   UNL     1      -2.952  12.612  21.993  0.00  0.00    +0.000 A 
ATOM     13  C   UNL     1      -4.093  12.761  21.193  0.00  0.00    +0.000 A 
ATOM     14  C   UNL     1      -5.360  12.833  21.768  0.00  0.00    +0.000 A 
ATOM     15  C   UNL     1      -5.519  12.743  23.159  0.00  0.00    +0.000 A 
ATOM     16  C   UNL     1      -4.383  12.535  23.948  0.00  0.00    +0.000 A 
ATOM     17  C   UNL     1      -3.115  12.459  23.381  0.00  0.00    +0.000 A 
BRANCH  16  18
ATOM     18  O   UNL     1      -4.470  12.408  25.307  0.00  0.00    +0.000 OA
ATOM     19  H   UNL     1      -5.282  12.878  25.572  0.00  0.00    +0.000 HD
ENDBRANCH  16  18
BRANCH  15  20
ATOM     20  O   UNL     1      -6.718  12.846  23.814  0.00  0.00    +0.000 OA
ATOM     21  C   UNL     1      -7.788  12.093  23.241  0.00  0.00    +0.000 C 
ENDBRANCH  15  20
ENDBRANCH   8  12
BRANCH   3  22
ATOM     22  O   UNL     1       2.013  12.920  17.780  0.00  0.00    +0.000 OA
ATOM     23  H   UNL     1       1.835  13.793  18.159  0.00  0.00    +0.000 HD
ENDBRANCH   3  22
BRANCH   1  24
ATOM     24  O   UNL     1       1.675   8.263  18.934  0.00  0.00    +0.000 OA
BRANCH  24  25
ATOM     25  C   UNL     1       2.380   7.928  17.742  0.00  0.00    +0.000 C 
BRANCH  25  26
ATOM     26  C   UNL     1       3.675   7.220  18.112  0.00  0.00    +0.000 C 
BRANCH  26  27
ATOM     27  C   UNL     1       4.464   6.872  16.857  0.00  0.00    +0.000 C 
BRANCH  27  28
ATOM     28  C   UNL     1       4.492   5.368  16.636  0.00  0.00    +0.000 C 
BRANCH  28  29
ATOM     29  C   UNL     1       5.179   4.670  17.801  0.00  0.00    +0.000 C 
BRANCH  29  30
ATOM     30  C   UNL     1       4.424   3.405  18.179  0.00  0.00    +0.000 C 
BRANCH  30  31
ATOM     31  C   UNL     1       3.010   3.446  17.621  0.00  0.00    +0.000 C 
BRANCH  31  32
ATOM     32  C   UNL     1       2.258   2.178  17.997  0.00  0.00    +0.000 C 
BRANCH  32  33
ATOM     33  C   UNL     1       0.987   2.524  18.758  0.00  0.00    +0.000 C 
BRANCH  33  34
ATOM     34  C   UNL     1       1.051   3.955  19.275  0.00  0.00    +0.000 C 
BRANCH  34  36
ATOM     35  C   UNL     1       1.370   2.564  21.328  0.00  0.00    +0.000 C 
ATOM     36  C   UNL     1       1.278   3.975  20.780  0.00  0.00    +0.000 C 
ENDBRANCH  34  36
ENDBRANCH  33  34
ENDBRANCH  32  33
ENDBRANCH  31  32
ENDBRANCH  30  31
ENDBRANCH  29  30
ENDBRANCH  28  29
ENDBRANCH  27  28
ENDBRANCH  26  27
ENDBRANCH  25  26
ENDBRANCH  24  25
ENDBRANCH   1  24
TORSDOF 16
ENDMDL
MODEL 8
REMARK VINA RESULT:      -6.7      3.079      6.094
REMARK  Name = 
REMARK  18 active torsions:
REMARK  status: ('A' for Active; 'I' for Inactive)
REMARK    1  A    between atoms: C_1  and  C_2
REMARK    2  A    between atoms: C_2  and  C_3
REMARK    3  A    between atoms: C_3  and  C_4
REMARK    4  A    between atoms: C_4  and  C_5
REMARK    5  A    between atoms: C_5  and  C_6
REMARK    6  A    between atoms: C_6  and  C_7
REMARK    7  A    between atoms: C_7  and  C_8
REMARK    8  A    between atoms: C_8  and  C_9
REMARK    9  A    between atoms: C_9  and  C_10
REMARK   10  A    between atoms: C_10  and  C_11
REMARK   11  A    between atoms: C_11  and  C_12
REMARK   12  A    between atoms: C_12  and  O_13
REMARK   13  A    between atoms: O_13  and  C_14
REMARK   14  A    between atoms: C_16  and  O_17
REMARK   15  A    between atoms: C_22  and  C_23
REMARK   16  A    between atoms: C_26  and  O_27
REMARK   17  A    between atoms: O_27  and  C_28
REMARK   18  A    between atoms: C_29  and  O_30
REMARK                            x       y       z     vdW  Elec       q    Type
REMARK                         _______ _______ _______ _____ _____    ______ ____
ROOT
ATOM      1  C   UNL     1       2.653   7.504  18.216  0.00  0.00    +0.000 A 
ATOM      2  C   UNL     1       2.051   7.037  19.381  0.00  0.00    +0.000 A 
ATOM      3  C   UNL     1       1.426   7.927  20.259  0.00  0.00    +0.000 A 
ATOM      4  C   UNL     1       1.387   9.291  19.973  0.00  0.00    +0.000 A 
ATOM      5  C   UNL     1       1.983   9.755  18.798  0.00  0.00    +0.000 A 
ATOM      6  C   UNL     1       2.619   8.864  17.925  0.00  0.00    +0.000 A 
ATOM      7  O   UNL     1       2.042  11.068  18.431  0.00  0.00    +0.000 OA
ATOM      8  C   UNL     1       1.084  11.915  19.067  0.00  0.00    +0.000 C 
ATOM      9  C   UNL     1       1.014  11.726  20.570  0.00  0.00    +0.000 C 
ATOM     10  C   UNL     1       0.782  10.286  20.890  0.00  0.00    +0.000 C 
ATOM     11  O   UNL     1       0.166   9.971  21.903  0.00  0.00    +0.000 OA
ENDROOT
BRANCH   8  12
ATOM     12  C   UNL     1       1.450  13.356  18.765  0.00  0.00    +0.000 A 
ATOM     13  C   UNL     1       0.598  14.379  19.200  0.00  0.00    +0.000 A 
ATOM     14  C   UNL     1       0.877  15.711  18.903  0.00  0.00    +0.000 A 
ATOM     15  C   UNL     1       2.028  16.054  18.176  0.00  0.00    +0.000 A 
ATOM     16  C   UNL     1       2.905  15.034  17.795  0.00  0.00    +0.000 A 
ATOM     17  C   UNL     1       2.633  13.702  18.091  0.00  0.00    +0.000 A 
BRANCH  16  18
ATOM     18  O   UNL     1       4.058  15.302  17.111  0.00  0.00    +0.000 OA
ATOM     19  H   UNL     1       4.187  14.559  16.494  0.00  0.00    +0.000 HD
ENDBRANCH  16  18
BRANCH  15  20
ATOM     20  O   UNL     1       2.361  17.329  17.802  0.00  0.00    +0.000 OA
ATOM     21  C   UNL     1       1.335  18.046  17.111  0.00  0.00    +0.000 C 
ENDBRANCH  15  20
ENDBRANCH   8  12
BRANCH   3  22
ATOM     22  O   UNL     1       0.885   7.423  21.406  0.00  0.00    +0.000 OA
ATOM     23  H   UNL     1       1.353   7.742  22.192  0.00  0.00    +0.000 HD
ENDBRANCH   3  22
BRANCH   1  24
ATOM     24  O   UNL     1       3.302   6.712  17.310  0.00  0.00    +0.000 OA
BRANCH  24  25
ATOM     25  C   UNL     1       4.519   7.248  16.798  0.00  0.00    +0.000 C 
BRANCH  25  26
ATOM     26  C   UNL     1       5.273   6.152  16.060  0.00  0.00    +0.000 C 
BRANCH  26  27
ATOM     27  C   UNL     1       6.545   5.786  16.814  0.00  0.00    +0.000 C 
BRANCH  27  28
ATOM     28  C   UNL     1       6.235   4.853  17.974  0.00  0.00    +0.000 C 
BRANCH  28  29
ATOM     29  C   UNL     1       5.192   3.823  17.566  0.00  0.00    +0.000 C 
BRANCH  29  30
ATOM     30  C   UNL     1       4.380   3.384  18.775  0.00  0.00    +0.000 C 
BRANCH  30  31
ATOM     31  C   UNL     1       3.629   2.098  18.470  0.00  0.00    +0.000 C 
BRANCH  31  32
ATOM     32  C   UNL     1       2.412   2.391  17.606  0.00  0.00    +0.000 C 
BRANCH  32  33
ATOM     33  C   UNL     1       1.589   3.516  18.217  0.00  0.00    +0.000 C 
BRANCH  33  34
ATOM     34  C   UNL     1       0.738   2.988  19.364  0.00  0.00    +0.000 C 
BRANCH  34  36
ATOM     35  C   UNL     1       1.742   2.731  21.640  0.00  0.00    +0.000 C 
ATOM     36  C   UNL     1       1.090   3.694  20.666  0.00  0.00    +0.000 C 
ENDBRANCH  34  36
ENDBRANCH  33  34
ENDBRANCH  32  33
ENDBRANCH  31  32
ENDBRANCH  30  31
ENDBRANCH  29  30
ENDBRANCH  28  29
ENDBRANCH  27  28
ENDBRANCH  26  27
ENDBRANCH  25  26
ENDBRANCH  24  25
ENDBRANCH   1  24
TORSDOF 16
ENDMDL
MODEL 9
REMARK VINA RESULT:      -6.7      3.352      6.602
REMARK  Name = 
REMARK  18 active torsions:
REMARK  status: ('A' for Active; 'I' for Inactive)
REMARK    1  A    between atoms: C_1  and  C_2
REMARK    2  A    between atoms: C_2  and  C_3
REMARK    3  A    between atoms: C_3  and  C_4
REMARK    4  A    between atoms: C_4  and  C_5
REMARK    5  A    between atoms: C_5  and  C_6
REMARK    6  A    between atoms: C_6  and  C_7
REMARK    7  A    between atoms: C_7  and  C_8
REMARK    8  A    between atoms: C_8  and  C_9
REMARK    9  A    between atoms: C_9  and  C_10
REMARK   10  A    between atoms: C_10  and  C_11
REMARK   11  A    between atoms: C_11  and  C_12
REMARK   12  A    between atoms: C_12  and  O_13
REMARK   13  A    between atoms: O_13  and  C_14
REMARK   14  A    between atoms: C_16  and  O_17
REMARK   15  A    between atoms: C_22  and  C_23
REMARK   16  A    between atoms: C_26  and  O_27
REMARK   17  A    between atoms: O_27  and  C_28
REMARK   18  A    between atoms: C_29  and  O_30
REMARK                            x       y       z     vdW  Elec       q    Type
REMARK                         _______ _______ _______ _____ _____    ______ ____
ROOT
ATOM      1  C   UNL     1       1.256   8.252  20.531  0.00  0.00    +0.000 A 
ATOM      2  C   UNL     1       1.700   8.752  19.311  0.00  0.00    +0.000 A 
ATOM      3  C   UNL     1       1.173   9.942  18.801  0.00  0.00    +0.000 A 
ATOM      4  C   UNL     1       0.206  10.648  19.514  0.00  0.00    +0.000 A 
ATOM      5  C   UNL     1      -0.230  10.149  20.743  0.00  0.00    +0.000 A 
ATOM      6  C   UNL     1       0.289   8.951  21.247  0.00  0.00    +0.000 A 
ATOM      7  O   UNL     1      -1.196  10.731  21.512  0.00  0.00    +0.000 OA
ATOM      8  C   UNL     1      -1.438  12.111  21.234  0.00  0.00    +0.000 C 
ATOM      9  C   UNL     1      -1.600  12.411  19.757  0.00  0.00    +0.000 C 
ATOM     10  C   UNL     1      -0.422  11.889  19.000  0.00  0.00    +0.000 C 
ATOM     11  O   UNL     1      -0.053  12.448  17.974  0.00  0.00    +0.000 OA
ENDROOT
BRANCH   8  12
ATOM     12  C   UNL     1      -2.698  12.529  21.967  0.00  0.00    +0.000 A 
ATOM     13  C   UNL     1      -2.785  12.313  23.348  0.00  0.00    +0.000 A 
ATOM     14  C   UNL     1      -3.943  12.644  24.048  0.00  0.00    +0.000 A 
ATOM     15  C   UNL     1      -5.040  13.215  23.384  0.00  0.00    +0.000 A 
ATOM     16  C   UNL     1      -4.926  13.483  22.016  0.00  0.00    +0.000 A 
ATOM     17  C   UNL     1      -3.770  13.158  21.312  0.00  0.00    +0.000 A 
BRANCH  16  18
ATOM     18  O   UNL     1      -5.944  14.066  21.315  0.00  0.00    +0.000 OA
ATOM     19  H   UNL     1      -5.898  15.020  21.509  0.00  0.00    +0.000 HD
ENDBRANCH  16  18
BRANCH  15  20
ATOM     20  O   UNL     1      -6.232  13.533  23.980  0.00  0.00    +0.000 OA
ATOM     21  C   UNL     1      -7.223  12.505  23.938  0.00  0.00    +0.000 C 
ENDBRANCH  15  20
ENDBRANCH   8  12
BRANCH   3  22
ATOM     22  O   UNL     1       1.615  10.369  17.582  0.00  0.00    +0.000 OA
ATOM     23  H   UNL     1       1.924   9.631  17.036  0.00  0.00    +0.000 HD
ENDBRANCH   3  22
BRANCH   1  24
ATOM     24  O   UNL     1       1.699   7.088  21.098  0.00  0.00    +0.000 OA
BRANCH  24  25
ATOM     25  C   UNL     1       2.072   6.069  20.176  0.00  0.00    +0.000 C 
BRANCH  25  26
ATOM     26  C   UNL     1       1.276   4.809  20.478  0.00  0.00    +0.000 C 
BRANCH  26  27
ATOM     27  C   UNL     1       1.431   3.801  19.346  0.00  0.00    +0.000 C 
BRANCH  27  28
ATOM     28  C   UNL     1       2.804   3.920  18.702  0.00  0.00    +0.000 C 
BRANCH  28  29
ATOM     29  C   UNL     1       2.810   3.255  17.333  0.00  0.00    +0.000 C 
BRANCH  29  30
ATOM     30  C   UNL     1       4.220   3.230  16.763  0.00  0.00    +0.000 C 
BRANCH  30  31
ATOM     31  C   UNL     1       4.714   4.647  16.516  0.00  0.00    +0.000 C 
BRANCH  31  32
ATOM     32  C   UNL     1       5.928   4.629  15.599  0.00  0.00    +0.000 C 
BRANCH  32  33
ATOM     33  C   UNL     1       7.063   5.439  16.207  0.00  0.00    +0.000 C 
BRANCH  33  34
ATOM     34  C   UNL     1       7.330   4.988  17.637  0.00  0.00    +0.000 C 
BRANCH  34  36
ATOM     35  C   UNL     1       7.707   7.458  17.721  0.00  0.00    +0.000 C 
ATOM     36  C   UNL     1       7.602   6.184  18.538  0.00  0.00    +0.000 C 
ENDBRANCH  34  36
ENDBRANCH  33  34
ENDBRANCH  32  33
ENDBRANCH  31  32
ENDBRANCH  30  31
ENDBRANCH  29  30
ENDBRANCH  28  29
ENDBRANCH  27  28
ENDBRANCH  26  27
ENDBRANCH  25  26
ENDBRANCH  24  25
ENDBRANCH   1  24
TORSDOF 16
ENDMDL
