MODEL 1
REMARK VINA RESULT:      -7.6      0.000      0.000
REMARK  Name = 
REMARK  5 active torsions:
REMARK  status: ('A' for Active; 'I' for Inactive)
REMARK    1  A    between atoms: C_1  and  O_2
REMARK    2  A    between atoms: O_2  and  C_3
REMARK    3  A    between atoms: C_5  and  N_6
REMARK    4  A    between atoms: C_7  and  C_8
REMARK    5  A    between atoms: C_12  and  C_13
REMARK                            x       y       z     vdW  Elec       q    Type
REMARK                         _______ _______ _______ _____ _____    ______ ____
ROOT
ATOM      1  C   UNL     1       2.307   7.016  19.685  0.00  0.00    +0.000 A 
ATOM      2  C   UNL     1       1.553   8.063  20.244  0.00  0.00    +0.000 A 
ATOM      3  C   UNL     1       1.270   9.221  19.525  0.00  0.00    +0.000 A 
ATOM      4  C   UNL     1       1.705   9.310  18.206  0.00  0.00    +0.000 A 
ATOM      5  C   UNL     1       2.424   8.257  17.617  0.00  0.00    +0.000 A 
ATOM      6  C   UNL     1       2.724   7.097  18.352  0.00  0.00    +0.000 A 
ENDROOT
BRANCH   6   7
ATOM      7  C   UNL     1       3.629   6.088  17.790  0.00  0.00    +0.000 C 
ATOM      8  C   UNL     1       3.126   4.861  17.599  0.00  0.00    +0.000 C 
ATOM      9  C   UNL     1       4.005   3.759  17.189  0.00  0.00    +0.000 C 
ATOM     10  O   UNL     1       3.786   2.607  17.530  0.00  0.00    +0.000 OA
ATOM     11  C   UNL     1       5.087   4.137  16.279  0.00  0.00    +0.000 A 
ATOM     12  C   UNL     1       5.490   3.231  15.298  0.00  0.00    +0.000 A 
ATOM     13  C   UNL     1       6.278   3.690  14.248  0.00  0.00    +0.000 A 
ATOM     14  C   UNL     1       6.698   5.025  14.222  0.00  0.00    +0.000 A 
ATOM     15  C   UNL     1       6.372   5.900  15.267  0.00  0.00    +0.000 A 
ATOM     16  C   UNL     1       5.545   5.453  16.298  0.00  0.00    +0.000 A 
ATOM     17  C   UNL     1       5.029   6.369  17.355  0.00  0.00    +0.000 C 
ATOM     18  O   UNL     1       5.712   7.291  17.786  0.00  0.00    +0.000 OA
ENDBRANCH   6   7
BRANCH   3  19
ATOM     19  N   UNL     1       0.527  10.289  20.074  0.00  0.00    +0.000 N 
ATOM     20  C   UNL     1      -0.721  10.725  19.669  0.00  0.00    +0.000 C 
ATOM     21  C   UNL     1      -1.148  12.025  20.301  0.00  0.00    +0.000 C 
ATOM     22  O   UNL     1      -1.478  10.146  18.885  0.00  0.00    +0.000 OA
ATOM     23  H   UNL     1       0.938  10.760  20.879  0.00  0.00    +0.000 HD
ENDBRANCH   3  19
BRANCH   1  25
ATOM     24  C   UNL     1       1.566   5.070  20.762  0.00  0.00    +0.000 C 
ATOM     25  O   UNL     1       2.667   5.898  20.397  0.00  0.00    +0.000 OA
ENDBRANCH   1  25
TORSDOF 3
ENDMDL
MODEL 2
REMARK VINA RESULT:      -7.5      1.153      1.153
REMARK  Name = 
REMARK  5 active torsions:
REMARK  status: ('A' for Active; 'I' for Inactive)
REMARK    1  A    between atoms: C_1  and  O_2
REMARK    2  A    between atoms: O_2  and  C_3
REMARK    3  A    between atoms: C_5  and  N_6
REMARK    4  A    between atoms: C_7  and  C_8
REMARK    5  A    between atoms: C_12  and  C_13
REMARK                            x       y       z     vdW  Elec       q    Type
REMARK                         _______ _______ _______ _____ _____    ______ ____
ROOT
ATOM      1  C   UNL     1       2.327   6.758  19.812  0.00  0.00    +0.000 A 
ATOM      2  C   UNL     1       1.561   7.767  20.423  0.00  0.00    +0.000 A 
ATOM      3  C   UNL     1       1.245   8.948  19.754  0.00  0.00    +0.000 A 
ATOM      4  C   UNL     1       1.660   9.098  18.435  0.00  0.00    +0.000 A 
ATOM      5  C   UNL     1       2.390   8.083  17.794  0.00  0.00    +0.000 A 
ATOM      6  C   UNL     1       2.723   6.900  18.477  0.00  0.00    +0.000 A 
ENDROOT
BRANCH   6   7
ATOM      7  C   UNL     1       3.639   5.933  17.863  0.00  0.00    +0.000 C 
ATOM      8  C   UNL     1       3.155   4.706  17.627  0.00  0.00    +0.000 C 
ATOM      9  C   UNL     1       4.049   3.638  17.161  0.00  0.00    +0.000 C 
ATOM     10  O   UNL     1       3.855   2.469  17.457  0.00  0.00    +0.000 OA
ATOM     11  C   UNL     1       5.112   4.073  16.255  0.00  0.00    +0.000 A 
ATOM     12  C   UNL     1       5.519   3.217  15.232  0.00  0.00    +0.000 A 
ATOM     13  C   UNL     1       6.285   3.733  14.192  0.00  0.00    +0.000 A 
ATOM     14  C   UNL     1       6.680   5.076  14.216  0.00  0.00    +0.000 A 
ATOM     15  C   UNL     1       6.351   5.901  15.300  0.00  0.00    +0.000 A 
ATOM     16  C   UNL     1       5.546   5.396  16.322  0.00  0.00    +0.000 A 
ATOM     17  C   UNL     1       5.027   6.258  17.422  0.00  0.00    +0.000 C 
ATOM     18  O   UNL     1       5.699   7.174  17.883  0.00  0.00    +0.000 OA
ENDBRANCH   6   7
BRANCH   3  19
ATOM     19  N   UNL     1       0.490   9.978  20.357  0.00  0.00    +0.000 N 
ATOM     20  C   UNL     1       0.500  10.342  21.690  0.00  0.00    +0.000 C 
ATOM     21  C   UNL     1      -0.581  11.324  22.063  0.00  0.00    +0.000 C 
ATOM     22  O   UNL     1       1.300   9.954  22.546  0.00  0.00    +0.000 OA
ATOM     23  H   UNL     1      -0.092  10.536  19.734  0.00  0.00    +0.000 HD
ENDBRANCH   3  19
BRANCH   1  25
ATOM     24  C   UNL     1       1.636   4.773  20.849  0.00  0.00    +0.000 C 
ATOM     25  O   UNL     1       2.719   5.621  20.473  0.00  0.00    +0.000 OA
ENDBRANCH   1  25
TORSDOF 3
ENDMDL
MODEL 3
REMARK VINA RESULT:      -7.4      2.575      8.590
REMARK  Name = 
REMARK  5 active torsions:
REMARK  status: ('A' for Active; 'I' for Inactive)
REMARK    1  A    between atoms: C_1  and  O_2
REMARK    2  A    between atoms: O_2  and  C_3
REMARK    3  A    between atoms: C_5  and  N_6
REMARK    4  A    between atoms: C_7  and  C_8
REMARK    5  A    between atoms: C_12  and  C_13
REMARK                            x       y       z     vdW  Elec       q    Type
REMARK                         _______ _______ _______ _____ _____    ______ ____
ROOT
ATOM      1  C   UNL     1       1.221   8.544  20.131  0.00  0.00    +0.000 A 
ATOM      2  C   UNL     1       2.071   7.465  19.830  0.00  0.00    +0.000 A 
ATOM      3  C   UNL     1       2.669   7.336  18.579  0.00  0.00    +0.000 A 
ATOM      4  C   UNL     1       2.454   8.331  17.631  0.00  0.00    +0.000 A 
ATOM      5  C   UNL     1       1.641   9.438  17.927  0.00  0.00    +0.000 A 
ATOM      6  C   UNL     1       1.024   9.557  19.185  0.00  0.00    +0.000 A 
ENDROOT
BRANCH   6   7
ATOM      7  C   UNL     1       0.036  10.615  19.419  0.00  0.00    +0.000 C 
ATOM      8  C   UNL     1      -1.163  10.463  18.840  0.00  0.00    +0.000 C 
ATOM      9  C   UNL     1      -2.151  11.547  18.896  0.00  0.00    +0.000 C 
ATOM     10  O   UNL     1      -2.955  11.727  17.994  0.00  0.00    +0.000 OA
ATOM     11  C   UNL     1      -2.154  12.318  20.140  0.00  0.00    +0.000 A 
ATOM     12  C   UNL     1      -3.365  12.807  20.628  0.00  0.00    +0.000 A 
ATOM     13  C   UNL     1      -3.425  13.255  21.944  0.00  0.00    +0.000 A 
ATOM     14  C   UNL     1      -2.268  13.262  22.731  0.00  0.00    +0.000 A 
ATOM     15  C   UNL     1      -1.034  12.865  22.198  0.00  0.00    +0.000 A 
ATOM     16  C   UNL     1      -0.982  12.374  20.893  0.00  0.00    +0.000 A 
ATOM     17  C   UNL     1       0.261  11.787  20.315  0.00  0.00    +0.000 C 
ATOM     18  O   UNL     1       1.367  12.234  20.599  0.00  0.00    +0.000 OA
ENDBRANCH   6   7
BRANCH   3  19
ATOM     19  N   UNL     1       3.514   6.252  18.253  0.00  0.00    +0.000 N 
ATOM     20  C   UNL     1       3.122   4.973  17.900  0.00  0.00    +0.000 C 
ATOM     21  C   UNL     1       4.257   3.984  17.834  0.00  0.00    +0.000 C 
ATOM     22  O   UNL     1       1.974   4.610  17.631  0.00  0.00    +0.000 OA
ATOM     23  H   UNL     1       4.514   6.445  18.239  0.00  0.00    +0.000 HD
ENDBRANCH   3  19
BRANCH   1  25
ATOM     24  C   UNL     1       1.386   9.079  22.408  0.00  0.00    +0.000 C 
ATOM     25  O   UNL     1       0.557   8.655  21.328  0.00  0.00    +0.000 OA
ENDBRANCH   1  25
TORSDOF 3
ENDMDL
MODEL 4
REMARK VINA RESULT:      -7.4      1.783      1.902
REMARK  Name = 
REMARK  5 active torsions:
REMARK  status: ('A' for Active; 'I' for Inactive)
REMARK    1  A    between atoms: C_1  and  O_2
REMARK    2  A    between atoms: O_2  and  C_3
REMARK    3  A    between atoms: C_5  and  N_6
REMARK    4  A    between atoms: C_7  and  C_8
REMARK    5  A    between atoms: C_12  and  C_13
REMARK                            x       y       z     vdW  Elec       q    Type
REMARK                         _______ _______ _______ _____ _____    ______ ____
ROOT
ATOM      1  C   UNL     1       1.881   6.078  20.430  0.00  0.00    +0.000 A 
ATOM      2  C   UNL     1       1.105   7.014  21.138  0.00  0.00    +0.000 A 
ATOM      3  C   UNL     1       0.920   8.312  20.668  0.00  0.00    +0.000 A 
ATOM      4  C   UNL     1       1.479   8.663  19.443  0.00  0.00    +0.000 A 
ATOM      5  C   UNL     1       2.223   7.730  18.702  0.00  0.00    +0.000 A 
ATOM      6  C   UNL     1       2.423   6.426  19.188  0.00  0.00    +0.000 A 
ENDROOT
BRANCH   6   7
ATOM      7  C   UNL     1       3.350   5.522  18.499  0.00  0.00    +0.000 C 
ATOM      8  C   UNL     1       2.817   4.655  17.627  0.00  0.00    +0.000 C 
ATOM      9  C   UNL     1       3.654   3.616  17.016  0.00  0.00    +0.000 C 
ATOM     10  O   UNL     1       3.196   2.527  16.705  0.00  0.00    +0.000 OA
ATOM     11  C   UNL     1       5.030   4.020  16.728  0.00  0.00    +0.000 A 
ATOM     12  C   UNL     1       5.662   3.507  15.595  0.00  0.00    +0.000 A 
ATOM     13  C   UNL     1       6.829   4.117  15.146  0.00  0.00    +0.000 A 
ATOM     14  C   UNL     1       7.377   5.187  15.862  0.00  0.00    +0.000 A 
ATOM     15  C   UNL     1       6.790   5.627  17.056  0.00  0.00    +0.000 A 
ATOM     16  C   UNL     1       5.596   5.046  17.484  0.00  0.00    +0.000 A 
ATOM     17  C   UNL     1       4.834   5.568  18.654  0.00  0.00    +0.000 C 
ATOM     18  O   UNL     1       5.410   6.024  19.636  0.00  0.00    +0.000 OA
ENDBRANCH   6   7
BRANCH   3  19
ATOM     19  N   UNL     1       0.156   9.269  21.372  0.00  0.00    +0.000 N 
ATOM     20  C   UNL     1       0.385   9.730  22.655  0.00  0.00    +0.000 C 
ATOM     21  C   UNL     1      -0.733  10.577  23.206  0.00  0.00    +0.000 C 
ATOM     22  O   UNL     1       1.393   9.524  23.336  0.00  0.00    +0.000 OA
ATOM     23  H   UNL     1      -0.620   9.692  20.864  0.00  0.00    +0.000 HD
ENDBRANCH   3  19
BRANCH   1  25
ATOM     24  C   UNL     1       1.074   3.896  20.716  0.00  0.00    +0.000 C 
ATOM     25  O   UNL     1       2.144   4.819  20.909  0.00  0.00    +0.000 OA
ENDBRANCH   1  25
TORSDOF 3
ENDMDL
MODEL 5
REMARK VINA RESULT:      -7.3      1.241      1.347
REMARK  Name = 
REMARK  5 active torsions:
REMARK  status: ('A' for Active; 'I' for Inactive)
REMARK    1  A    between atoms: C_1  and  O_2
REMARK    2  A    between atoms: O_2  and  C_3
REMARK    3  A    between atoms: C_5  and  N_6
REMARK    4  A    between atoms: C_7  and  C_8
REMARK    5  A    between atoms: C_12  and  C_13
REMARK                            x       y       z     vdW  Elec       q    Type
REMARK                         _______ _______ _______ _____ _____    ______ ____
ROOT
ATOM      1  C   UNL     1       1.929   6.283  20.525  0.00  0.00    +0.000 A 
ATOM      2  C   UNL     1       1.279   7.286  21.266  0.00  0.00    +0.000 A 
ATOM      3  C   UNL     1       1.163   8.588  20.785  0.00  0.00    +0.000 A 
ATOM      4  C   UNL     1       1.662   8.878  19.520  0.00  0.00    +0.000 A 
ATOM      5  C   UNL     1       2.278   7.880  18.747  0.00  0.00    +0.000 A 
ATOM      6  C   UNL     1       2.410   6.570  19.242  0.00  0.00    +0.000 A 
ENDROOT
BRANCH   6   7
ATOM      7  C   UNL     1       3.215   5.588  18.509  0.00  0.00    +0.000 C 
ATOM      8  C   UNL     1       2.575   4.833  17.606  0.00  0.00    +0.000 C 
ATOM      9  C   UNL     1       3.273   3.724  16.944  0.00  0.00    +0.000 C 
ATOM     10  O   UNL     1       2.681   2.716  16.591  0.00  0.00    +0.000 OA
ATOM     11  C   UNL     1       4.689   3.964  16.664  0.00  0.00    +0.000 A 
ATOM     12  C   UNL     1       5.248   3.425  15.505  0.00  0.00    +0.000 A 
ATOM     13  C   UNL     1       6.481   3.902  15.073  0.00  0.00    +0.000 A 
ATOM     14  C   UNL     1       7.162   4.864  15.829  0.00  0.00    +0.000 A 
ATOM     15  C   UNL     1       6.637   5.323  17.045  0.00  0.00    +0.000 A 
ATOM     16  C   UNL     1       5.381   4.878  17.457  0.00  0.00    +0.000 A 
ATOM     17  C   UNL     1       4.693   5.441  18.654  0.00  0.00    +0.000 C 
ATOM     18  O   UNL     1       5.324   5.778  19.650  0.00  0.00    +0.000 OA
ENDBRANCH   6   7
BRANCH   3  19
ATOM     19  N   UNL     1       0.526   9.611  21.522  0.00  0.00    +0.000 N 
ATOM     20  C   UNL     1      -0.388  10.530  21.043  0.00  0.00    +0.000 C 
ATOM     21  C   UNL     1      -0.713  11.633  22.018  0.00  0.00    +0.000 C 
ATOM     22  O   UNL     1      -0.942  10.502  19.941  0.00  0.00    +0.000 OA
ATOM     23  H   UNL     1       0.734   9.648  22.519  0.00  0.00    +0.000 HD
ENDBRANCH   3  19
BRANCH   1  25
ATOM     24  C   UNL     1       1.057   4.116  20.718  0.00  0.00    +0.000 C 
ATOM     25  O   UNL     1       2.127   5.013  21.007  0.00  0.00    +0.000 OA
ENDBRANCH   1  25
TORSDOF 3
ENDMDL
MODEL 6
REMARK VINA RESULT:      -7.2      1.746      2.414
REMARK  Name = 
REMARK  5 active torsions:
REMARK  status: ('A' for Active; 'I' for Inactive)
REMARK    1  A    between atoms: C_1  and  O_2
REMARK    2  A    between atoms: O_2  and  C_3
REMARK    3  A    between atoms: C_5  and  N_6
REMARK    4  A    between atoms: C_7  and  C_8
REMARK    5  A    between atoms: C_12  and  C_13
REMARK                            x       y       z     vdW  Elec       q    Type
REMARK                         _______ _______ _______ _____ _____    ______ ____
ROOT
ATOM      1  C   UNL     1       2.223   7.824  19.108  0.00  0.00    +0.000 A 
ATOM      2  C   UNL     1       1.369   8.653  19.857  0.00  0.00    +0.000 A 
ATOM      3  C   UNL     1       0.701   8.182  20.985  0.00  0.00    +0.000 A 
ATOM      4  C   UNL     1       0.931   6.873  21.398  0.00  0.00    +0.000 A 
ATOM      5  C   UNL     1       1.812   6.043  20.686  0.00  0.00    +0.000 A 
ATOM      6  C   UNL     1       2.472   6.515  19.538  0.00  0.00    +0.000 A 
ENDROOT
BRANCH   6   7
ATOM      7  C   UNL     1       3.241   5.589  18.701  0.00  0.00    +0.000 C 
ATOM      8  C   UNL     1       2.555   4.877  17.797  0.00  0.00    +0.000 C 
ATOM      9  C   UNL     1       3.224   3.818  17.031  0.00  0.00    +0.000 C 
ATOM     10  O   UNL     1       2.624   2.822  16.658  0.00  0.00    +0.000 OA
ATOM     11  C   UNL     1       4.617   4.096  16.678  0.00  0.00    +0.000 A 
ATOM     12  C   UNL     1       5.110   3.632  15.458  0.00  0.00    +0.000 A 
ATOM     13  C   UNL     1       6.308   4.153  14.979  0.00  0.00    +0.000 A 
ATOM     14  C   UNL     1       7.022   5.080  15.746  0.00  0.00    +0.000 A 
ATOM     15  C   UNL     1       6.569   5.461  17.017  0.00  0.00    +0.000 A 
ATOM     16  C   UNL     1       5.346   4.974  17.479  0.00  0.00    +0.000 A 
ATOM     17  C   UNL     1       4.727   5.457  18.746  0.00  0.00    +0.000 C 
ATOM     18  O   UNL     1       5.415   5.747  19.719  0.00  0.00    +0.000 OA
ENDBRANCH   6   7
BRANCH   3  19
ATOM     19  N   UNL     1      -0.171   8.995  21.741  0.00  0.00    +0.000 N 
ATOM     20  C   UNL     1       0.056  10.295  22.153  0.00  0.00    +0.000 C 
ATOM     21  C   UNL     1      -0.964  10.812  23.134  0.00  0.00    +0.000 C 
ATOM     22  O   UNL     1       0.975  11.029  21.778  0.00  0.00    +0.000 OA
ATOM     23  H   UNL     1      -1.079   8.594  21.973  0.00  0.00    +0.000 HD
ENDBRANCH   3  19
BRANCH   1  25
ATOM     24  C   UNL     1       2.431   9.539  17.524  0.00  0.00    +0.000 C 
ATOM     25  O   UNL     1       2.832   8.239  17.950  0.00  0.00    +0.000 OA
ENDBRANCH   1  25
TORSDOF 3
ENDMDL
MODEL 7
REMARK VINA RESULT:      -7.0      2.280      8.567
REMARK  Name = 
REMARK  5 active torsions:
REMARK  status: ('A' for Active; 'I' for Inactive)
REMARK    1  A    between atoms: C_1  and  O_2
REMARK    2  A    between atoms: O_2  and  C_3
REMARK    3  A    between atoms: C_5  and  N_6
REMARK    4  A    between atoms: C_7  and  C_8
REMARK    5  A    between atoms: C_12  and  C_13
REMARK                            x       y       z     vdW  Elec       q    Type
REMARK                         _______ _______ _______ _____ _____    ______ ____
ROOT
ATOM      1  C   UNL     1       1.308   8.474  20.085  0.00  0.00    +0.000 A 
ATOM      2  C   UNL     1       2.137   7.378  19.787  0.00  0.00    +0.000 A 
ATOM      3  C   UNL     1       2.721   7.227  18.531  0.00  0.00    +0.000 A 
ATOM      4  C   UNL     1       2.511   8.216  17.575  0.00  0.00    +0.000 A 
ATOM      5  C   UNL     1       1.719   9.338  17.868  0.00  0.00    +0.000 A 
ATOM      6  C   UNL     1       1.117   9.480  19.130  0.00  0.00    +0.000 A 
ENDROOT
BRANCH   6   7
ATOM      7  C   UNL     1       0.148  10.555  19.363  0.00  0.00    +0.000 C 
ATOM      8  C   UNL     1      -1.052  10.427  18.782  0.00  0.00    +0.000 C 
ATOM      9  C   UNL     1      -2.021  11.529  18.836  0.00  0.00    +0.000 C 
ATOM     10  O   UNL     1      -2.819  11.724  17.933  0.00  0.00    +0.000 OA
ATOM     11  C   UNL     1      -2.012  12.299  20.081  0.00  0.00    +0.000 A 
ATOM     12  C   UNL     1      -3.215  12.810  20.567  0.00  0.00    +0.000 A 
ATOM     13  C   UNL     1      -3.269  13.257  21.883  0.00  0.00    +0.000 A 
ATOM     14  C   UNL     1      -2.113  13.243  22.673  0.00  0.00    +0.000 A 
ATOM     15  C   UNL     1      -0.886  12.823  22.141  0.00  0.00    +0.000 A 
ATOM     16  C   UNL     1      -0.840  12.333  20.836  0.00  0.00    +0.000 A 
ATOM     17  C   UNL     1       0.392  11.723  20.260  0.00  0.00    +0.000 C 
ATOM     18  O   UNL     1       1.506  12.150  20.547  0.00  0.00    +0.000 OA
ENDBRANCH   6   7
BRANCH   3  19
ATOM     19  N   UNL     1       3.545   6.126  18.209  0.00  0.00    +0.000 N 
ATOM     20  C   UNL     1       4.773   6.168  17.575  0.00  0.00    +0.000 C 
ATOM     21  C   UNL     1       5.296   4.814  17.171  0.00  0.00    +0.000 C 
ATOM     22  O   UNL     1       5.443   7.179  17.348  0.00  0.00    +0.000 OA
ATOM     23  H   UNL     1       3.216   5.210  18.511  0.00  0.00    +0.000 HD
ENDBRANCH   3  19
BRANCH   1  25
ATOM     24  C   UNL     1       1.504   9.031  22.354  0.00  0.00    +0.000 C 
ATOM     25  O   UNL     1       0.658   8.608  21.287  0.00  0.00    +0.000 OA
ENDBRANCH   1  25
TORSDOF 3
ENDMDL
MODEL 8
REMARK VINA RESULT:      -7.0      2.400      3.398
REMARK  Name = 
REMARK  5 active torsions:
REMARK  status: ('A' for Active; 'I' for Inactive)
REMARK    1  A    between atoms: C_1  and  O_2
REMARK    2  A    between atoms: O_2  and  C_3
REMARK    3  A    between atoms: C_5  and  N_6
REMARK    4  A    between atoms: C_7  and  C_8
REMARK    5  A    between atoms: C_12  and  C_13
REMARK                            x       y       z     vdW  Elec       q    Type
REMARK                         _______ _______ _______ _____ _____    ______ ____
ROOT
ATOM      1  C   UNL     1       1.431   8.715  20.275  0.00  0.00    +0.000 A 
ATOM      2  C   UNL     1       1.030  10.045  20.057  0.00  0.00    +0.000 A 
ATOM      3  C   UNL     1       1.104  10.631  18.796  0.00  0.00    +0.000 A 
ATOM      4  C   UNL     1       1.538   9.856  17.725  0.00  0.00    +0.000 A 
ATOM      5  C   UNL     1       1.904   8.513  17.916  0.00  0.00    +0.000 A 
ATOM      6  C   UNL     1       1.845   7.929  19.193  0.00  0.00    +0.000 A 
ENDROOT
BRANCH   6   7
ATOM      7  C   UNL     1       2.401   6.590  19.413  0.00  0.00    +0.000 C 
ATOM      8  C   UNL     1       1.786   5.820  20.321  0.00  0.00    +0.000 C 
ATOM      9  C   UNL     1       2.371   4.531  20.711  0.00  0.00    +0.000 C 
ATOM     10  O   UNL     1       2.226   4.079  21.836  0.00  0.00    +0.000 OA
ATOM     11  C   UNL     1       3.045   3.806  19.634  0.00  0.00    +0.000 A 
ATOM     12  C   UNL     1       2.986   2.413  19.618  0.00  0.00    +0.000 A 
ATOM     13  C   UNL     1       3.341   1.741  18.452  0.00  0.00    +0.000 A 
ATOM     14  C   UNL     1       3.803   2.462  17.345  0.00  0.00    +0.000 A 
ATOM     15  C   UNL     1       3.956   3.854  17.408  0.00  0.00    +0.000 A 
ATOM     16  C   UNL     1       3.559   4.532  18.560  0.00  0.00    +0.000 A 
ATOM     17  C   UNL     1       3.544   6.021  18.640  0.00  0.00    +0.000 C 
ATOM     18  O   UNL     1       4.397   6.696  18.074  0.00  0.00    +0.000 OA
ENDBRANCH   6   7
BRANCH   3  19
ATOM     19  N   UNL     1       0.720  11.970  18.561  0.00  0.00    +0.000 N 
ATOM     20  C   UNL     1       1.538  13.084  18.589  0.00  0.00    +0.000 C 
ATOM     21  C   UNL     1       0.791  14.391  18.522  0.00  0.00    +0.000 C 
ATOM     22  O   UNL     1       2.771  13.083  18.642  0.00  0.00    +0.000 OA
ATOM     23  H   UNL     1      -0.254  12.123  18.305  0.00  0.00    +0.000 HD
ENDBRANCH   3  19
BRANCH   1  25
ATOM     24  C   UNL     1       1.051   9.023  22.568  0.00  0.00    +0.000 C 
ATOM     25  O   UNL     1       1.442   8.138  21.521  0.00  0.00    +0.000 OA
ENDBRANCH   1  25
TORSDOF 3
ENDMDL
MODEL 9
REMARK VINA RESULT:      -6.8      2.228      3.192
REMARK  Name = 
REMARK  5 active torsions:
REMARK  status: ('A' for Active; 'I' for Inactive)
REMARK    1  A    between atoms: C_1  and  O_2
REMARK    2  A    between atoms: O_2  and  C_3
REMARK    3  A    between atoms: C_5  and  N_6
REMARK    4  A    between atoms: C_7  and  C_8
REMARK    5  A    between atoms: C_12  and  C_13
REMARK                            x       y       z     vdW  Elec       q    Type
REMARK                         _______ _______ _______ _____ _____    ______ ____
ROOT
ATOM      1  C   UNL     1       1.496   8.645  20.283  0.00  0.00    +0.000 A 
ATOM      2  C   UNL     1       1.135   9.987  20.066  0.00  0.00    +0.000 A 
ATOM      3  C   UNL     1       1.265  10.584  18.814  0.00  0.00    +0.000 A 
ATOM      4  C   UNL     1       1.717   9.809  17.751  0.00  0.00    +0.000 A 
ATOM      5  C   UNL     1       2.043   8.455  17.939  0.00  0.00    +0.000 A 
ATOM      6  C   UNL     1       1.927   7.861  19.207  0.00  0.00    +0.000 A 
ENDROOT
BRANCH   6   7
ATOM      7  C   UNL     1       2.443   6.506  19.431  0.00  0.00    +0.000 C 
ATOM      8  C   UNL     1       1.796   5.752  20.330  0.00  0.00    +0.000 C 
ATOM      9  C   UNL     1       2.340   4.446  20.725  0.00  0.00    +0.000 C 
ATOM     10  O   UNL     1       2.169   3.997  21.847  0.00  0.00    +0.000 OA
ATOM     11  C   UNL     1       3.006   3.705  19.654  0.00  0.00    +0.000 A 
ATOM     12  C   UNL     1       2.908   2.314  19.635  0.00  0.00    +0.000 A 
ATOM     13  C   UNL     1       3.257   1.634  18.472  0.00  0.00    +0.000 A 
ATOM     14  C   UNL     1       3.752   2.343  17.372  0.00  0.00    +0.000 A 
ATOM     15  C   UNL     1       3.943   3.730  17.439  0.00  0.00    +0.000 A 
ATOM     16  C   UNL     1       3.552   4.418  18.588  0.00  0.00    +0.000 A 
ATOM     17  C   UNL     1       3.578   5.906  18.670  0.00  0.00    +0.000 C 
ATOM     18  O   UNL     1       4.456   6.558  18.115  0.00  0.00    +0.000 OA
ENDBRANCH   6   7
BRANCH   3  19
ATOM     19  N   UNL     1       0.922  11.933  18.581  0.00  0.00    +0.000 N 
ATOM     20  C   UNL     1      -0.336  12.498  18.682  0.00  0.00    +0.000 C 
ATOM     21  C   UNL     1      -0.418  13.905  18.151  0.00  0.00    +0.000 C 
ATOM     22  O   UNL     1      -1.338  11.966  19.168  0.00  0.00    +0.000 OA
ATOM     23  H   UNL     1       1.689  12.564  18.354  0.00  0.00    +0.000 HD
ENDBRANCH   3  19
BRANCH   1  25
ATOM     24  C   UNL     1       1.195   8.971  22.585  0.00  0.00    +0.000 C 
ATOM     25  O   UNL     1       1.451   8.056  21.522  0.00  0.00    +0.000 OA
ENDBRANCH   1  25
TORSDOF 3
ENDMDL
