MODEL 1
REMARK VINA RESULT:      -7.2      0.000      0.000
REMARK  Name = 
REMARK  4 active torsions:
REMARK  status: ('A' for Active; 'I' for Inactive)
REMARK    1  A    between atoms: N_6  and  C_7
REMARK    2  A    between atoms: C_10  and  C_11
REMARK    3  A    between atoms: C_11  and  O_12
REMARK    4  A    between atoms: C_15  and  C_16
REMARK                            x       y       z     vdW  Elec       q    Type
REMARK                         _______ _______ _______ _____ _____    ______ ____
ROOT
ATOM      1  O   UNL     1       7.839   5.288  14.391  0.00  0.00    +0.000 OA
ATOM      2  C   UNL     1       7.145   5.059  15.373  0.00  0.00    +0.000 A 
ATOM      3  N   UNL     1       7.631   5.286  16.626  0.00  0.00    +0.000 N 
ATOM      4  C   UNL     1       7.055   4.887  17.796  0.00  0.00    +0.000 A 
ATOM      5  O   UNL     1       7.708   4.919  18.836  0.00  0.00    +0.000 OA
ATOM      6  N   UNL     1       5.739   4.456  17.702  0.00  0.00    +0.000 N 
ATOM      7  C   UNL     1       5.151   4.249  16.463  0.00  0.00    +0.000 A 
ATOM      8  C   UNL     1       5.758   4.501  15.290  0.00  0.00    +0.000 A 
ATOM      9  H   UNL     1       8.589   5.598  16.681  0.00  0.00    +0.000 HD
ENDROOT
BRANCH   6  10
ATOM     10  C   UNL     1       5.089   4.022  18.947  0.00  0.00    +0.000 C 
ATOM     11  C   UNL     1       4.356   5.133  19.701  0.00  0.00    +0.000 C 
ATOM     12  C   UNL     1       2.954   5.039  19.160  0.00  0.00    +0.000 C 
ATOM     13  C   UNL     1       2.788   3.543  18.998  0.00  0.00    +0.000 C 
ATOM     14  O   UNL     1       4.091   3.015  18.665  0.00  0.00    +0.000 OA
BRANCH  13  15
ATOM     15  C   UNL     1       1.791   3.178  17.900  0.00  0.00    +0.000 C 
BRANCH  15  16
ATOM     16  O   UNL     1       1.379   1.822  18.039  0.00  0.00    +0.000 OA
ATOM     17  H   UNL     1       1.178   1.696  18.985  0.00  0.00    +0.000 HD
ENDBRANCH  15  16
ENDBRANCH  13  15
ENDBRANCH   6  10
BRANCH   8  18
ATOM     18  C   UNL     1       5.084   4.191  14.034  0.00  0.00    +0.000 C 
ATOM     19  C   UNL     1       5.577   3.502  12.994  0.00  0.00    +0.000 C 
ATOM     20 BR   UNL     1       4.608   3.142  11.450  0.00  0.00    +0.000 Br
ENDBRANCH   8  18
TORSDOF 4
ENDMDL
MODEL 2
REMARK VINA RESULT:      -7.2      1.053      1.056
REMARK  Name = 
REMARK  4 active torsions:
REMARK  status: ('A' for Active; 'I' for Inactive)
REMARK    1  A    between atoms: N_6  and  C_7
REMARK    2  A    between atoms: C_10  and  C_11
REMARK    3  A    between atoms: C_11  and  O_12
REMARK    4  A    between atoms: C_15  and  C_16
REMARK                            x       y       z     vdW  Elec       q    Type
REMARK                         _______ _______ _______ _____ _____    ______ ____
ROOT
ATOM      1  O   UNL     1       7.819   5.960  15.477  0.00  0.00    +0.000 OA
ATOM      2  C   UNL     1       7.033   5.593  16.341  0.00  0.00    +0.000 A 
ATOM      3  N   UNL     1       7.260   5.897  17.651  0.00  0.00    +0.000 N 
ATOM      4  C   UNL     1       6.591   5.384  18.722  0.00  0.00    +0.000 A 
ATOM      5  O   UNL     1       7.050   5.531  19.852  0.00  0.00    +0.000 OA
ATOM      6  N   UNL     1       5.414   4.709  18.429  0.00  0.00    +0.000 N 
ATOM      7  C   UNL     1       5.082   4.404  17.117  0.00  0.00    +0.000 A 
ATOM      8  C   UNL     1       5.810   4.779  16.051  0.00  0.00    +0.000 A 
ATOM      9  H   UNL     1       8.119   6.387  17.850  0.00  0.00    +0.000 HD
ENDROOT
BRANCH   6  10
ATOM     10  C   UNL     1       4.668   4.147  19.564  0.00  0.00    +0.000 C 
ATOM     11  C   UNL     1       3.456   4.973  19.998  0.00  0.00    +0.000 C 
ATOM     12  C   UNL     1       2.331   4.364  19.203  0.00  0.00    +0.000 C 
ATOM     13  C   UNL     1       2.706   2.898  19.213  0.00  0.00    +0.000 C 
ATOM     14  O   UNL     1       4.150   2.841  19.224  0.00  0.00    +0.000 OA
BRANCH  13  15
ATOM     15  C   UNL     1       2.173   2.147  17.995  0.00  0.00    +0.000 C 
BRANCH  15  16
ATOM     16  O   UNL     1       2.060   3.029  16.882  0.00  0.00    +0.000 OA
ATOM     17  H   UNL     1       2.525   3.847  17.138  0.00  0.00    +0.000 HD
ENDBRANCH  15  16
ENDBRANCH  13  15
ENDBRANCH   6  10
BRANCH   8  18
ATOM     18  C   UNL     1       5.419   4.357  14.710  0.00  0.00    +0.000 C 
ATOM     19  C   UNL     1       6.191   3.776  13.781  0.00  0.00    +0.000 C 
ATOM     20 BR   UNL     1       5.570   3.252  12.110  0.00  0.00    +0.000 Br
ENDBRANCH   8  18
TORSDOF 4
ENDMDL
MODEL 3
REMARK VINA RESULT:      -6.8      1.639      2.332
REMARK  Name = 
REMARK  4 active torsions:
REMARK  status: ('A' for Active; 'I' for Inactive)
REMARK    1  A    between atoms: N_6  and  C_7
REMARK    2  A    between atoms: C_10  and  C_11
REMARK    3  A    between atoms: C_11  and  O_12
REMARK    4  A    between atoms: C_15  and  C_16
REMARK                            x       y       z     vdW  Elec       q    Type
REMARK                         _______ _______ _______ _____ _____    ______ ____
ROOT
ATOM      1  O   UNL     1       8.062   4.353  17.118  0.00  0.00    +0.000 OA
ATOM      2  C   UNL     1       6.864   4.564  17.260  0.00  0.00    +0.000 A 
ATOM      3  N   UNL     1       6.389   5.065  18.435  0.00  0.00    +0.000 N 
ATOM      4  C   UNL     1       5.078   5.152  18.798  0.00  0.00    +0.000 A 
ATOM      5  O   UNL     1       4.787   5.376  19.971  0.00  0.00    +0.000 OA
ATOM      6  N   UNL     1       4.156   4.965  17.778  0.00  0.00    +0.000 N 
ATOM      7  C   UNL     1       4.564   4.504  16.534  0.00  0.00    +0.000 A 
ATOM      8  C   UNL     1       5.846   4.273  16.201  0.00  0.00    +0.000 A 
ATOM      9  H   UNL     1       7.069   5.197  19.169  0.00  0.00    +0.000 HD
ENDROOT
BRANCH   6  10
ATOM     10  C   UNL     1       2.734   5.055  18.139  0.00  0.00    +0.000 C 
ATOM     11  C   UNL     1       1.834   4.043  17.429  0.00  0.00    +0.000 C 
ATOM     12  C   UNL     1       1.808   2.884  18.389  0.00  0.00    +0.000 C 
ATOM     13  C   UNL     1       1.802   3.593  19.726  0.00  0.00    +0.000 C 
ATOM     14  O   UNL     1       2.561   4.810  19.553  0.00  0.00    +0.000 OA
BRANCH  13  15
ATOM     15  C   UNL     1       2.425   2.753  20.839  0.00  0.00    +0.000 C 
BRANCH  15  16
ATOM     16  O   UNL     1       3.787   2.467  20.536  0.00  0.00    +0.000 OA
ATOM     17  H   UNL     1       3.811   2.241  19.588  0.00  0.00    +0.000 HD
ENDBRANCH  15  16
ENDBRANCH  13  15
ENDBRANCH   6  10
BRANCH   8  18
ATOM     18  C   UNL     1       6.176   3.727  14.889  0.00  0.00    +0.000 C 
ATOM     19  C   UNL     1       5.578   3.999  13.720  0.00  0.00    +0.000 C 
ATOM     20 BR   UNL     1       6.109   3.262  12.099  0.00  0.00    +0.000 Br
ENDBRANCH   8  18
TORSDOF 4
ENDMDL
MODEL 4
REMARK VINA RESULT:      -6.7      3.172      5.818
REMARK  Name = 
REMARK  4 active torsions:
REMARK  status: ('A' for Active; 'I' for Inactive)
REMARK    1  A    between atoms: N_6  and  C_7
REMARK    2  A    between atoms: C_10  and  C_11
REMARK    3  A    between atoms: C_11  and  O_12
REMARK    4  A    between atoms: C_15  and  C_16
REMARK                            x       y       z     vdW  Elec       q    Type
REMARK                         _______ _______ _______ _____ _____    ______ ____
ROOT
ATOM      1  O   UNL     1       1.042   5.009  20.251  0.00  0.00    +0.000 OA
ATOM      2  C   UNL     1       2.032   4.827  19.553  0.00  0.00    +0.000 A 
ATOM      3  N   UNL     1       2.534   3.570  19.388  0.00  0.00    +0.000 N 
ATOM      4  C   UNL     1       3.731   3.253  18.817  0.00  0.00    +0.000 A 
ATOM      5  O   UNL     1       4.189   2.121  18.958  0.00  0.00    +0.000 OA
ATOM      6  N   UNL     1       4.351   4.274  18.112  0.00  0.00    +0.000 N 
ATOM      7  C   UNL     1       3.873   5.574  18.185  0.00  0.00    +0.000 A 
ATOM      8  C   UNL     1       2.771   5.933  18.865  0.00  0.00    +0.000 A 
ATOM      9  H   UNL     1       2.074   2.837  19.906  0.00  0.00    +0.000 HD
ENDROOT
BRANCH   6  10
ATOM     10  C   UNL     1       5.642   3.961  17.483  0.00  0.00    +0.000 C 
ATOM     11  C   UNL     1       5.969   4.806  16.250  0.00  0.00    +0.000 C 
ATOM     12  C   UNL     1       6.746   5.959  16.828  0.00  0.00    +0.000 C 
ATOM     13  C   UNL     1       7.542   5.276  17.920  0.00  0.00    +0.000 C 
ATOM     14  O   UNL     1       6.722   4.194  18.415  0.00  0.00    +0.000 OA
BRANCH  13  15
ATOM     15  C   UNL     1       7.895   6.219  19.067  0.00  0.00    +0.000 C 
BRANCH  15  16
ATOM     16  O   UNL     1       7.894   5.513  20.304  0.00  0.00    +0.000 OA
ATOM     17  H   UNL     1       7.000   5.625  20.677  0.00  0.00    +0.000 HD
ENDBRANCH  15  16
ENDBRANCH  13  15
ENDBRANCH   6  10
BRANCH   8  18
ATOM     18  C   UNL     1       2.379   7.337  18.940  0.00  0.00    +0.000 C 
ATOM     19  C   UNL     1       2.119   8.165  17.919  0.00  0.00    +0.000 C 
ATOM     20 BR   UNL     1       1.595   9.934  18.139  0.00  0.00    +0.000 Br
ENDBRANCH   8  18
TORSDOF 4
ENDMDL
MODEL 5
REMARK VINA RESULT:      -6.5      3.174      5.854
REMARK  Name = 
REMARK  4 active torsions:
REMARK  status: ('A' for Active; 'I' for Inactive)
REMARK    1  A    between atoms: N_6  and  C_7
REMARK    2  A    between atoms: C_10  and  C_11
REMARK    3  A    between atoms: C_11  and  O_12
REMARK    4  A    between atoms: C_15  and  C_16
REMARK                            x       y       z     vdW  Elec       q    Type
REMARK                         _______ _______ _______ _____ _____    ______ ____
ROOT
ATOM      1  O   UNL     1       1.307   5.087  20.537  0.00  0.00    +0.000 OA
ATOM      2  C   UNL     1       2.256   4.813  19.813  0.00  0.00    +0.000 A 
ATOM      3  N   UNL     1       3.006   3.701  20.054  0.00  0.00    +0.000 N 
ATOM      4  C   UNL     1       4.196   3.391  19.466  0.00  0.00    +0.000 A 
ATOM      5  O   UNL     1       4.898   2.505  19.946  0.00  0.00    +0.000 OA
ATOM      6  N   UNL     1       4.524   4.138  18.343  0.00  0.00    +0.000 N 
ATOM      7  C   UNL     1       3.782   5.258  17.998  0.00  0.00    +0.000 A 
ATOM      8  C   UNL     1       2.682   5.663  18.656  0.00  0.00    +0.000 A 
ATOM      9  H   UNL     1       2.757   3.166  20.873  0.00  0.00    +0.000 HD
ENDROOT
BRANCH   6  10
ATOM     10  C   UNL     1       5.801   3.826  17.684  0.00  0.00    +0.000 C 
ATOM     11  C   UNL     1       5.863   4.211  16.205  0.00  0.00    +0.000 C 
ATOM     12  C   UNL     1       6.440   5.601  16.243  0.00  0.00    +0.000 C 
ATOM     13  C   UNL     1       7.434   5.490  17.380  0.00  0.00    +0.000 C 
ATOM     14  O   UNL     1       6.880   4.544  18.322  0.00  0.00    +0.000 OA
BRANCH  13  15
ATOM     15  C   UNL     1       7.681   6.825  18.078  0.00  0.00    +0.000 C 
BRANCH  15  16
ATOM     16  O   UNL     1       7.737   7.878  17.121  0.00  0.00    +0.000 OA
ATOM     17  H   UNL     1       8.507   8.425  17.366  0.00  0.00    +0.000 HD
ENDBRANCH  15  16
ENDBRANCH  13  15
ENDBRANCH   6  10
BRANCH   8  18
ATOM     18  C   UNL     1       2.001   6.892  18.261  0.00  0.00    +0.000 C 
ATOM     19  C   UNL     1       2.245   8.135  18.699  0.00  0.00    +0.000 C 
ATOM     20 BR   UNL     1       1.327   9.634  18.096  0.00  0.00    +0.000 Br
ENDBRANCH   8  18
TORSDOF 4
ENDMDL
MODEL 6
REMARK VINA RESULT:      -6.4      3.747      6.346
REMARK  Name = 
REMARK  4 active torsions:
REMARK  status: ('A' for Active; 'I' for Inactive)
REMARK    1  A    between atoms: N_6  and  C_7
REMARK    2  A    between atoms: C_10  and  C_11
REMARK    3  A    between atoms: C_11  and  O_12
REMARK    4  A    between atoms: C_15  and  C_16
REMARK                            x       y       z     vdW  Elec       q    Type
REMARK                         _______ _______ _______ _____ _____    ______ ____
ROOT
ATOM      1  O   UNL     1       1.800   3.341  22.160  0.00  0.00    +0.000 OA
ATOM      2  C   UNL     1       2.478   3.516  21.155  0.00  0.00    +0.000 A 
ATOM      3  N   UNL     1       3.250   2.507  20.662  0.00  0.00    +0.000 N 
ATOM      4  C   UNL     1       4.198   2.622  19.689  0.00  0.00    +0.000 A 
ATOM      5  O   UNL     1       5.002   1.710  19.514  0.00  0.00    +0.000 OA
ATOM      6  N   UNL     1       4.175   3.805  18.964  0.00  0.00    +0.000 N 
ATOM      7  C   UNL     1       3.377   4.866  19.369  0.00  0.00    +0.000 A 
ATOM      8  C   UNL     1       2.539   4.819  20.418  0.00  0.00    +0.000 A 
ATOM      9  H   UNL     1       3.258   1.652  21.199  0.00  0.00    +0.000 HD
ENDROOT
BRANCH   6  10
ATOM     10  C   UNL     1       5.184   3.958  17.906  0.00  0.00    +0.000 C 
ATOM     11  C   UNL     1       4.969   5.169  16.996  0.00  0.00    +0.000 C 
ATOM     12  C   UNL     1       5.785   6.243  17.666  0.00  0.00    +0.000 C 
ATOM     13  C   UNL     1       6.979   5.456  18.164  0.00  0.00    +0.000 C 
ATOM     14  O   UNL     1       6.496   4.133  18.488  0.00  0.00    +0.000 OA
BRANCH  13  15
ATOM     15  C   UNL     1       7.622   6.083  19.398  0.00  0.00    +0.000 C 
BRANCH  15  16
ATOM     16  O   UNL     1       8.501   5.153  20.023  0.00  0.00    +0.000 OA
ATOM     17  H   UNL     1       8.909   4.641  19.301  0.00  0.00    +0.000 HD
ENDBRANCH  15  16
ENDBRANCH  13  15
ENDBRANCH   6  10
BRANCH   8  18
ATOM     18  C   UNL     1       1.786   6.006  20.810  0.00  0.00    +0.000 C 
ATOM     19  C   UNL     1       1.939   7.256  20.351  0.00  0.00    +0.000 C 
ATOM     20 BR   UNL     1       0.894   8.689  20.906  0.00  0.00    +0.000 Br
ENDBRANCH   8  18
TORSDOF 4
ENDMDL
MODEL 7
REMARK VINA RESULT:      -6.4      3.319      4.541
REMARK  Name = 
REMARK  4 active torsions:
REMARK  status: ('A' for Active; 'I' for Inactive)
REMARK    1  A    between atoms: N_6  and  C_7
REMARK    2  A    between atoms: C_10  and  C_11
REMARK    3  A    between atoms: C_11  and  O_12
REMARK    4  A    between atoms: C_15  and  C_16
REMARK                            x       y       z     vdW  Elec       q    Type
REMARK                         _______ _______ _______ _____ _____    ______ ____
ROOT
ATOM      1  O   UNL     1       3.126   8.982  17.318  0.00  0.00    +0.000 OA
ATOM      2  C   UNL     1       2.895   7.994  18.004  0.00  0.00    +0.000 A 
ATOM      3  N   UNL     1       2.047   8.080  19.068  0.00  0.00    +0.000 N 
ATOM      4  C   UNL     1       1.863   7.128  20.027  0.00  0.00    +0.000 A 
ATOM      5  O   UNL     1       1.277   7.419  21.066  0.00  0.00    +0.000 OA
ATOM      6  N   UNL     1       2.381   5.873  19.736  0.00  0.00    +0.000 N 
ATOM      7  C   UNL     1       3.213   5.689  18.641  0.00  0.00    +0.000 A 
ATOM      8  C   UNL     1       3.523   6.656  17.762  0.00  0.00    +0.000 A 
ATOM      9  H   UNL     1       1.678   8.997  19.269  0.00  0.00    +0.000 HD
ENDROOT
BRANCH   6  10
ATOM     10  C   UNL     1       2.196   4.825  20.749  0.00  0.00    +0.000 C 
ATOM     11  C   UNL     1       0.949   3.961  20.548  0.00  0.00    +0.000 C 
ATOM     12  C   UNL     1       1.466   2.810  19.727  0.00  0.00    +0.000 C 
ATOM     13  C   UNL     1       2.845   2.606  20.316  0.00  0.00    +0.000 C 
ATOM     14  O   UNL     1       3.314   3.909  20.731  0.00  0.00    +0.000 OA
BRANCH  13  15
ATOM     15  C   UNL     1       3.827   2.002  19.316  0.00  0.00    +0.000 C 
BRANCH  15  16
ATOM     16  O   UNL     1       5.098   2.635  19.429  0.00  0.00    +0.000 OA
ATOM     17  H   UNL     1       5.040   3.453  18.902  0.00  0.00    +0.000 HD
ENDBRANCH  15  16
ENDBRANCH  13  15
ENDBRANCH   6  10
BRANCH   8  18
ATOM     18  C   UNL     1       4.459   6.387  16.675  0.00  0.00    +0.000 C 
ATOM     19  C   UNL     1       5.318   5.363  16.574  0.00  0.00    +0.000 C 
ATOM     20 BR   UNL     1       6.445   5.107  15.120  0.00  0.00    +0.000 Br
ENDBRANCH   8  18
TORSDOF 4
ENDMDL
MODEL 8
REMARK VINA RESULT:      -6.4      1.659      2.375
REMARK  Name = 
REMARK  4 active torsions:
REMARK  status: ('A' for Active; 'I' for Inactive)
REMARK    1  A    between atoms: N_6  and  C_7
REMARK    2  A    between atoms: C_10  and  C_11
REMARK    3  A    between atoms: C_11  and  O_12
REMARK    4  A    between atoms: C_15  and  C_16
REMARK                            x       y       z     vdW  Elec       q    Type
REMARK                         _______ _______ _______ _____ _____    ______ ____
ROOT
ATOM      1  O   UNL     1       7.759   6.354  16.425  0.00  0.00    +0.000 OA
ATOM      2  C   UNL     1       6.642   5.955  16.729  0.00  0.00    +0.000 A 
ATOM      3  N   UNL     1       6.119   6.243  17.955  0.00  0.00    +0.000 N 
ATOM      4  C   UNL     1       4.993   5.698  18.496  0.00  0.00    +0.000 A 
ATOM      5  O   UNL     1       4.768   5.838  19.696  0.00  0.00    +0.000 OA
ATOM      6  N   UNL     1       4.179   5.000  17.615  0.00  0.00    +0.000 N 
ATOM      7  C   UNL     1       4.615   4.708  16.331  0.00  0.00    +0.000 A 
ATOM      8  C   UNL     1       5.791   5.117  15.825  0.00  0.00    +0.000 A 
ATOM      9  H   UNL     1       6.721   6.751  18.586  0.00  0.00    +0.000 HD
ENDROOT
BRANCH   6  10
ATOM     10  C   UNL     1       2.956   4.403  18.169  0.00  0.00    +0.000 C 
ATOM     11  C   UNL     1       2.229   3.450  17.219  0.00  0.00    +0.000 C 
ATOM     12  C   UNL     1       2.816   2.109  17.572  0.00  0.00    +0.000 C 
ATOM     13  C   UNL     1       2.981   2.231  19.071  0.00  0.00    +0.000 C 
ATOM     14  O   UNL     1       3.269   3.621  19.344  0.00  0.00    +0.000 OA
BRANCH  13  15
ATOM     15  C   UNL     1       4.111   1.358  19.611  0.00  0.00    +0.000 C 
BRANCH  15  16
ATOM     16  O   UNL     1       5.235   2.162  19.956  0.00  0.00    +0.000 OA
ATOM     17  H   UNL     1       4.915   3.084  19.964  0.00  0.00    +0.000 HD
ENDBRANCH  15  16
ENDBRANCH  13  15
ENDBRANCH   6  10
BRANCH   8  18
ATOM     18  C   UNL     1       6.196   4.707  14.484  0.00  0.00    +0.000 C 
ATOM     19  C   UNL     1       5.670   3.725  13.740  0.00  0.00    +0.000 C 
ATOM     20 BR   UNL     1       6.251   3.312  12.024  0.00  0.00    +0.000 Br
ENDBRANCH   8  18
TORSDOF 4
ENDMDL
MODEL 9
REMARK VINA RESULT:      -6.4      3.645      6.214
REMARK  Name = 
REMARK  4 active torsions:
REMARK  status: ('A' for Active; 'I' for Inactive)
REMARK    1  A    between atoms: N_6  and  C_7
REMARK    2  A    between atoms: C_10  and  C_11
REMARK    3  A    between atoms: C_11  and  O_12
REMARK    4  A    between atoms: C_15  and  C_16
REMARK                            x       y       z     vdW  Elec       q    Type
REMARK                         _______ _______ _______ _____ _____    ______ ____
ROOT
ATOM      1  O   UNL     1       1.106   3.277  20.863  0.00  0.00    +0.000 OA
ATOM      2  C   UNL     1       1.852   3.633  19.959  0.00  0.00    +0.000 A 
ATOM      3  N   UNL     1       2.363   2.716  19.089  0.00  0.00    +0.000 N 
ATOM      4  C   UNL     1       3.353   2.938  18.179  0.00  0.00    +0.000 A 
ATOM      5  O   UNL     1       3.904   1.983  17.637  0.00  0.00    +0.000 OA
ATOM      6  N   UNL     1       3.667   4.269  17.944  0.00  0.00    +0.000 N 
ATOM      7  C   UNL     1       3.149   5.270  18.753  0.00  0.00    +0.000 A 
ATOM      8  C   UNL     1       2.279   5.053  19.753  0.00  0.00    +0.000 A 
ATOM      9  H   UNL     1       2.127   1.752  19.271  0.00  0.00    +0.000 HD
ENDROOT
BRANCH   6  10
ATOM     10  C   UNL     1       4.730   4.540  16.965  0.00  0.00    +0.000 C 
ATOM     11  C   UNL     1       4.730   5.965  16.408  0.00  0.00    +0.000 C 
ATOM     12  C   UNL     1       5.665   6.690  17.338  0.00  0.00    +0.000 C 
ATOM     13  C   UNL     1       6.710   5.630  17.611  0.00  0.00    +0.000 C 
ATOM     14  O   UNL     1       6.028   4.357  17.573  0.00  0.00    +0.000 OA
BRANCH  13  15
ATOM     15  C   UNL     1       7.387   5.808  18.968  0.00  0.00    +0.000 C 
BRANCH  15  16
ATOM     16  O   UNL     1       6.684   5.079  19.970  0.00  0.00    +0.000 OA
ATOM     17  H   UNL     1       5.768   4.991  19.646  0.00  0.00    +0.000 HD
ENDBRANCH  15  16
ENDBRANCH  13  15
ENDBRANCH   6  10
BRANCH   8  18
ATOM     18  C   UNL     1       1.837   6.161  20.594  0.00  0.00    +0.000 C 
ATOM     19  C   UNL     1       1.816   7.464  20.280  0.00  0.00    +0.000 C 
ATOM     20 BR   UNL     1       1.199   8.787  21.429  0.00  0.00    +0.000 Br
ENDBRANCH   8  18
TORSDOF 4
ENDMDL
