MODEL 1
REMARK VINA RESULT:      -8.3      0.000      0.000
REMARK  Name = 
REMARK  8 active torsions:
REMARK  status: ('A' for Active; 'I' for Inactive)
REMARK    1  A    between atoms: C_1  and  C_2
REMARK    2  A    between atoms: C_2  and  C_3
REMARK    3  A    between atoms: C_3  and  S_4
REMARK    4  A    between atoms: S_4  and  N_7
REMARK    5  A    between atoms: N_7  and  C_8
REMARK    6  A    between atoms: C_13  and  C_14
REMARK    7  A    between atoms: N_16  and  C_17
REMARK    8  A    between atoms: C_22  and  C_23
REMARK                            x       y       z     vdW  Elec       q    Type
REMARK                         _______ _______ _______ _____ _____    ______ ____
ROOT
ATOM      1  C   UNL     1       4.870   4.035  18.373  0.00  0.00    +0.000 A 
ATOM      2  C   UNL     1       4.247   3.285  17.379  0.00  0.00    +0.000 A 
ATOM      3  C   UNL     1       2.872   3.418  17.183  0.00  0.00    +0.000 A 
ATOM      4  C   UNL     1       2.130   4.312  17.963  0.00  0.00    +0.000 A 
ATOM      5  F   UNL     1       0.808   4.383  17.746  0.00  0.00    +0.000 F 
ATOM      6  C   UNL     1       2.735   5.098  18.944  0.00  0.00    +0.000 A 
ATOM      7  C   UNL     1       4.121   4.949  19.131  0.00  0.00    +0.000 A 
ATOM      8  F   UNL     1       4.781   5.648  20.068  0.00  0.00    +0.000 F 
ENDROOT
BRANCH   6   9
ATOM      9  C   UNL     1       1.974   6.055  19.800  0.00  0.00    +0.000 C 
ATOM     10  O   UNL     1       1.255   5.590  20.676  0.00  0.00    +0.000 OA
ATOM     11  N   UNL     1       2.102   7.419  19.559  0.00  0.00    +0.000 N 
ATOM     12  H   UNL     1       2.701   7.704  18.789  0.00  0.00    +0.000 HD
BRANCH  11  13
ATOM     13  C   UNL     1       1.470   8.445  20.249  0.00  0.00    +0.000 A 
ATOM     14  C   UNL     1       1.493   8.588  21.753  0.00  0.00    +0.000 A 
ATOM     15  N   UNL     1       0.925   9.526  22.459  0.00  0.00    +0.000 NA
ATOM     16  C   UNL     1       0.231  10.460  21.753  0.00  0.00    +0.000 A 
ATOM     17  C   UNL     1      -0.486  11.554  22.165  0.00  0.00    +0.000 A 
ATOM     18  C   UNL     1      -1.019  12.098  20.989  0.00  0.00    +0.000 A 
ATOM     19  N   UNL     1      -0.642  11.436  19.890  0.00  0.00    +0.000 NA
ATOM     20  N   UNL     1       0.134  10.421  20.361  0.00  0.00    +0.000 N 
ATOM     21  C   UNL     1       0.774   9.415  19.628  0.00  0.00    +0.000 A 
BRANCH  18  22
ATOM     22  C   UNL     1      -1.949  13.304  21.008  0.00  0.00    +0.000 C 
ATOM     23  C   UNL     1      -1.907  14.258  22.181  0.00  0.00    +0.000 C 
ATOM     24  C   UNL     1      -1.339  14.685  20.871  0.00  0.00    +0.000 C 
ENDBRANCH  18  22
ENDBRANCH  11  13
ENDBRANCH   6   9
BRANCH   1  25
ATOM     25  N   UNL     1       6.287   3.898  18.585  0.00  0.00    +0.000 N 
ATOM     26  H   UNL     1       6.532   4.015  19.578  0.00  0.00    +0.000 HD
BRANCH  25  27
ATOM     27  S   UNL     1       7.275   5.008  17.748  0.00  0.00    +0.000 S 
ATOM     28  O   UNL     1       8.303   4.206  17.124  0.00  0.00    +0.000 OA
ATOM     29  O   UNL     1       7.585   6.124  18.615  0.00  0.00    +0.000 OA
BRANCH  27  30
ATOM     30  C   UNL     1       6.150   5.572  16.466  0.00  0.00    +0.000 C 
BRANCH  30  32
ATOM     31  C   UNL     1       6.080   3.916  14.550  0.00  0.00    +0.000 C 
ATOM     32  C   UNL     1       6.681   5.210  15.080  0.00  0.00    +0.000 C 
ENDBRANCH  30  32
ENDBRANCH  27  30
ENDBRANCH  25  27
ENDBRANCH   1  25
TORSDOF 7
ENDMDL
MODEL 2
REMARK VINA RESULT:      -8.2      0.934      1.519
REMARK  Name = 
REMARK  8 active torsions:
REMARK  status: ('A' for Active; 'I' for Inactive)
REMARK    1  A    between atoms: C_1  and  C_2
REMARK    2  A    between atoms: C_2  and  C_3
REMARK    3  A    between atoms: C_3  and  S_4
REMARK    4  A    between atoms: S_4  and  N_7
REMARK    5  A    between atoms: N_7  and  C_8
REMARK    6  A    between atoms: C_13  and  C_14
REMARK    7  A    between atoms: N_16  and  C_17
REMARK    8  A    between atoms: C_22  and  C_23
REMARK                            x       y       z     vdW  Elec       q    Type
REMARK                         _______ _______ _______ _____ _____    ______ ____
ROOT
ATOM      1  C   UNL     1       4.952   4.179  18.431  0.00  0.00    +0.000 A 
ATOM      2  C   UNL     1       4.317   3.269  17.590  0.00  0.00    +0.000 A 
ATOM      3  C   UNL     1       2.946   3.394  17.359  0.00  0.00    +0.000 A 
ATOM      4  C   UNL     1       2.222   4.436  17.949  0.00  0.00    +0.000 A 
ATOM      5  F   UNL     1       0.903   4.496  17.709  0.00  0.00    +0.000 F 
ATOM      6  C   UNL     1       2.841   5.379  18.770  0.00  0.00    +0.000 A 
ATOM      7  C   UNL     1       4.222   5.237  18.995  0.00  0.00    +0.000 A 
ATOM      8  F   UNL     1       4.894   6.086  19.790  0.00  0.00    +0.000 F 
ENDROOT
BRANCH   6   9
ATOM      9  C   UNL     1       2.099   6.498  19.422  0.00  0.00    +0.000 C 
ATOM     10  O   UNL     1       1.494   6.254  20.460  0.00  0.00    +0.000 OA
ATOM     11  N   UNL     1       2.114   7.754  18.823  0.00  0.00    +0.000 N 
ATOM     12  H   UNL     1       2.621   7.848  17.947  0.00  0.00    +0.000 HD
BRANCH  11  13
ATOM     13  C   UNL     1       1.481   8.900  19.284  0.00  0.00    +0.000 A 
ATOM     14  C   UNL     1       1.385  10.186  18.497  0.00  0.00    +0.000 A 
ATOM     15  N   UNL     1       0.805  11.291  18.871  0.00  0.00    +0.000 NA
ATOM     16  C   UNL     1       0.242  11.274  20.110  0.00  0.00    +0.000 A 
ATOM     17  C   UNL     1      -0.424  12.247  20.812  0.00  0.00    +0.000 A 
ATOM     18  C   UNL     1      -0.717  11.658  22.049  0.00  0.00    +0.000 A 
ATOM     19  N   UNL     1      -0.315  10.386  22.131  0.00  0.00    +0.000 NA
ATOM     20  N   UNL     1       0.279  10.145  20.929  0.00  0.00    +0.000 N 
ATOM     21  C   UNL     1       0.889   8.965  20.492  0.00  0.00    +0.000 A 
BRANCH  18  22
ATOM     22  C   UNL     1      -1.404  12.432  23.167  0.00  0.00    +0.000 C 
ATOM     23  C   UNL     1      -2.380  13.534  22.820  0.00  0.00    +0.000 C 
ATOM     24  C   UNL     1      -2.895  12.245  23.363  0.00  0.00    +0.000 C 
ENDBRANCH  18  22
ENDBRANCH  11  13
ENDBRANCH   6   9
BRANCH   1  25
ATOM     25  N   UNL     1       6.365   4.053  18.679  0.00  0.00    +0.000 N 
ATOM     26  H   UNL     1       6.608   4.353  19.633  0.00  0.00    +0.000 HD
BRANCH  25  27
ATOM     27  S   UNL     1       7.384   4.956  17.654  0.00  0.00    +0.000 S 
ATOM     28  O   UNL     1       8.328   4.002  17.118  0.00  0.00    +0.000 OA
ATOM     29  O   UNL     1       7.806   6.161  18.335  0.00  0.00    +0.000 OA
BRANCH  27  30
ATOM     30  C   UNL     1       6.242   5.409  16.344  0.00  0.00    +0.000 C 
BRANCH  30  32
ATOM     31  C   UNL     1       5.945   4.045  14.230  0.00  0.00    +0.000 C 
ATOM     32  C   UNL     1       6.815   5.047  14.974  0.00  0.00    +0.000 C 
ENDBRANCH  30  32
ENDBRANCH  27  30
ENDBRANCH  25  27
ENDBRANCH   1  25
TORSDOF 7
ENDMDL
MODEL 3
REMARK VINA RESULT:      -8.2      1.273      1.703
REMARK  Name = 
REMARK  8 active torsions:
REMARK  status: ('A' for Active; 'I' for Inactive)
REMARK    1  A    between atoms: C_1  and  C_2
REMARK    2  A    between atoms: C_2  and  C_3
REMARK    3  A    between atoms: C_3  and  S_4
REMARK    4  A    between atoms: S_4  and  N_7
REMARK    5  A    between atoms: N_7  and  C_8
REMARK    6  A    between atoms: C_13  and  C_14
REMARK    7  A    between atoms: N_16  and  C_17
REMARK    8  A    between atoms: C_22  and  C_23
REMARK                            x       y       z     vdW  Elec       q    Type
REMARK                         _______ _______ _______ _____ _____    ______ ____
ROOT
ATOM      1  C   UNL     1       4.746   3.979  18.328  0.00  0.00    +0.000 A 
ATOM      2  C   UNL     1       4.123   3.288  17.292  0.00  0.00    +0.000 A 
ATOM      3  C   UNL     1       2.754   3.463  17.081  0.00  0.00    +0.000 A 
ATOM      4  C   UNL     1       2.020   4.339  17.889  0.00  0.00    +0.000 A 
ATOM      5  F   UNL     1       0.704   4.452  17.655  0.00  0.00    +0.000 F 
ATOM      6  C   UNL     1       2.628   5.066  18.913  0.00  0.00    +0.000 A 
ATOM      7  C   UNL     1       4.007   4.876  19.114  0.00  0.00    +0.000 A 
ATOM      8  F   UNL     1       4.668   5.518  20.092  0.00  0.00    +0.000 F 
ENDROOT
BRANCH   6   9
ATOM      9  C   UNL     1       1.875   6.003  19.799  0.00  0.00    +0.000 C 
ATOM     10  O   UNL     1       1.141   5.517  20.651  0.00  0.00    +0.000 OA
ATOM     11  N   UNL     1       2.028   7.373  19.613  0.00  0.00    +0.000 N 
ATOM     12  H   UNL     1       2.639   7.677  18.859  0.00  0.00    +0.000 HD
BRANCH  11  13
ATOM     13  C   UNL     1       1.408   8.382  20.337  0.00  0.00    +0.000 A 
ATOM     14  C   UNL     1       1.615   8.608  21.816  0.00  0.00    +0.000 A 
ATOM     15  N   UNL     1       1.067   9.535  22.551  0.00  0.00    +0.000 NA
ATOM     16  C   UNL     1       0.210  10.372  21.905  0.00  0.00    +0.000 A 
ATOM     17  C   UNL     1      -0.537  11.428  22.363  0.00  0.00    +0.000 A 
ATOM     18  C   UNL     1      -1.263  11.864  21.247  0.00  0.00    +0.000 A 
ATOM     19  N   UNL     1      -0.979  11.175  20.137  0.00  0.00    +0.000 NA
ATOM     20  N   UNL     1      -0.064  10.250  20.542  0.00  0.00    +0.000 N 
ATOM     21  C   UNL     1       0.556   9.260  19.774  0.00  0.00    +0.000 A 
BRANCH  18  22
ATOM     22  C   UNL     1      -2.281  12.993  21.339  0.00  0.00    +0.000 C 
ATOM     23  C   UNL     1      -3.537  12.935  20.499  0.00  0.00    +0.000 C 
ATOM     24  C   UNL     1      -3.628  12.699  21.967  0.00  0.00    +0.000 C 
ENDBRANCH  18  22
ENDBRANCH  11  13
ENDBRANCH   6   9
BRANCH   1  25
ATOM     25  N   UNL     1       6.156   3.799  18.555  0.00  0.00    +0.000 N 
ATOM     26  H   UNL     1       6.398   3.936  19.546  0.00  0.00    +0.000 HD
BRANCH  25  27
ATOM     27  S   UNL     1       7.189   4.848  17.695  0.00  0.00    +0.000 S 
ATOM     28  O   UNL     1       6.379   5.385  16.624  0.00  0.00    +0.000 OA
ATOM     29  O   UNL     1       8.452   4.187  17.451  0.00  0.00    +0.000 OA
BRANCH  27  30
ATOM     30  C   UNL     1       7.447   6.149  18.907  0.00  0.00    +0.000 C 
BRANCH  30  32
ATOM     31  C   UNL     1       7.519   8.351  17.657  0.00  0.00    +0.000 C 
ATOM     32  C   UNL     1       8.330   7.257  18.334  0.00  0.00    +0.000 C 
ENDBRANCH  30  32
ENDBRANCH  27  30
ENDBRANCH  25  27
ENDBRANCH   1  25
TORSDOF 7
ENDMDL
MODEL 4
REMARK VINA RESULT:      -8.2      2.374      3.039
REMARK  Name = 
REMARK  8 active torsions:
REMARK  status: ('A' for Active; 'I' for Inactive)
REMARK    1  A    between atoms: C_1  and  C_2
REMARK    2  A    between atoms: C_2  and  C_3
REMARK    3  A    between atoms: C_3  and  S_4
REMARK    4  A    between atoms: S_4  and  N_7
REMARK    5  A    between atoms: N_7  and  C_8
REMARK    6  A    between atoms: C_13  and  C_14
REMARK    7  A    between atoms: N_16  and  C_17
REMARK    8  A    between atoms: C_22  and  C_23
REMARK                            x       y       z     vdW  Elec       q    Type
REMARK                         _______ _______ _______ _____ _____    ______ ____
ROOT
ATOM      1  C   UNL     1       4.400   5.027  17.806  0.00  0.00    +0.000 A 
ATOM      2  C   UNL     1       3.856   3.846  18.304  0.00  0.00    +0.000 A 
ATOM      3  C   UNL     1       2.743   3.908  19.144  0.00  0.00    +0.000 A 
ATOM      4  C   UNL     1       2.168   5.142  19.466  0.00  0.00    +0.000 A 
ATOM      5  F   UNL     1       1.113   5.143  20.295  0.00  0.00    +0.000 F 
ATOM      6  C   UNL     1       2.675   6.337  18.954  0.00  0.00    +0.000 A 
ATOM      7  C   UNL     1       3.798   6.258  18.112  0.00  0.00    +0.000 A 
ATOM      8  F   UNL     1       4.365   7.359  17.594  0.00  0.00    +0.000 F 
ENDROOT
BRANCH   6   9
ATOM      9  C   UNL     1       2.091   7.671  19.283  0.00  0.00    +0.000 C 
ATOM     10  O   UNL     1       1.930   7.948  20.465  0.00  0.00    +0.000 OA
ATOM     11  N   UNL     1       1.747   8.528  18.242  0.00  0.00    +0.000 N 
ATOM     12  H   UNL     1       1.893   8.194  17.293  0.00  0.00    +0.000 HD
BRANCH  11  13
ATOM     13  C   UNL     1       1.194   9.796  18.362  0.00  0.00    +0.000 A 
ATOM     14  C   UNL     1      -0.292  10.072  18.354  0.00  0.00    +0.000 A 
ATOM     15  N   UNL     1      -0.872  11.234  18.465  0.00  0.00    +0.000 NA
ATOM     16  C   UNL     1      -0.039  12.303  18.585  0.00  0.00    +0.000 A 
ATOM     17  C   UNL     1      -0.303  13.644  18.704  0.00  0.00    +0.000 A 
ATOM     18  C   UNL     1       0.958  14.256  18.734  0.00  0.00    +0.000 A 
ATOM     19  N   UNL     1       1.966  13.379  18.684  0.00  0.00    +0.000 NA
ATOM     20  N   UNL     1       1.351  12.167  18.593  0.00  0.00    +0.000 N 
ATOM     21  C   UNL     1       1.945  10.905  18.496  0.00  0.00    +0.000 A 
BRANCH  18  22
ATOM     22  C   UNL     1       1.117  15.770  18.792  0.00  0.00    +0.000 C 
ATOM     23  C   UNL     1       0.110  16.596  19.561  0.00  0.00    +0.000 C 
ATOM     24  C   UNL     1       1.479  16.405  20.120  0.00  0.00    +0.000 C 
ENDBRANCH  18  22
ENDBRANCH  11  13
ENDBRANCH   6   9
BRANCH   1  25
ATOM     25  N   UNL     1       5.552   4.972  16.943  0.00  0.00    +0.000 N 
ATOM     26  H   UNL     1       5.624   4.062  16.469  0.00  0.00    +0.000 HD
BRANCH  25  27
ATOM     27  S   UNL     1       7.061   5.201  17.702  0.00  0.00    +0.000 S 
ATOM     28  O   UNL     1       7.976   4.330  17.000  0.00  0.00    +0.000 OA
ATOM     29  O   UNL     1       6.890   5.146  19.138  0.00  0.00    +0.000 OA
BRANCH  27  30
ATOM     30  C   UNL     1       7.430   6.895  17.233  0.00  0.00    +0.000 C 
BRANCH  30  32
ATOM     31  C   UNL     1       8.300   9.116  18.086  0.00  0.00    +0.000 C 
ATOM     32  C   UNL     1       8.143   7.630  18.368  0.00  0.00    +0.000 C 
ENDBRANCH  30  32
ENDBRANCH  27  30
ENDBRANCH  25  27
ENDBRANCH   1  25
TORSDOF 7
ENDMDL
MODEL 5
REMARK VINA RESULT:      -8.1      2.579      3.068
REMARK  Name = 
REMARK  8 active torsions:
REMARK  status: ('A' for Active; 'I' for Inactive)
REMARK    1  A    between atoms: C_1  and  C_2
REMARK    2  A    between atoms: C_2  and  C_3
REMARK    3  A    between atoms: C_3  and  S_4
REMARK    4  A    between atoms: S_4  and  N_7
REMARK    5  A    between atoms: N_7  and  C_8
REMARK    6  A    between atoms: C_13  and  C_14
REMARK    7  A    between atoms: N_16  and  C_17
REMARK    8  A    between atoms: C_22  and  C_23
REMARK                            x       y       z     vdW  Elec       q    Type
REMARK                         _______ _______ _______ _____ _____    ______ ____
ROOT
ATOM      1  C   UNL     1       4.838   4.839  17.184  0.00  0.00    +0.000 A 
ATOM      2  C   UNL     1       4.076   3.675  17.152  0.00  0.00    +0.000 A 
ATOM      3  C   UNL     1       2.767   3.702  17.638  0.00  0.00    +0.000 A 
ATOM      4  C   UNL     1       2.221   4.892  18.134  0.00  0.00    +0.000 A 
ATOM      5  F   UNL     1       0.967   4.854  18.607  0.00  0.00    +0.000 F 
ATOM      6  C   UNL     1       2.955   6.078  18.148  0.00  0.00    +0.000 A 
ATOM      7  C   UNL     1       4.272   6.034  17.658  0.00  0.00    +0.000 A 
ATOM      8  F   UNL     1       5.056   7.123  17.656  0.00  0.00    +0.000 F 
ENDROOT
BRANCH   6   9
ATOM      9  C   UNL     1       2.407   7.363  18.676  0.00  0.00    +0.000 C 
ATOM     10  O   UNL     1       2.269   7.468  19.889  0.00  0.00    +0.000 OA
ATOM     11  N   UNL     1       2.068   8.369  17.777  0.00  0.00    +0.000 N 
ATOM     12  H   UNL     1       2.193   8.173  16.787  0.00  0.00    +0.000 HD
BRANCH  11  13
ATOM     13  C   UNL     1       1.547   9.617  18.089  0.00  0.00    +0.000 A 
ATOM     14  C   UNL     1       0.078   9.883  18.322  0.00  0.00    +0.000 A 
ATOM     15  N   UNL     1      -0.473  11.026  18.620  0.00  0.00    +0.000 NA
ATOM     16  C   UNL     1       0.376  12.086  18.713  0.00  0.00    +0.000 A 
ATOM     17  C   UNL     1       0.142  13.410  18.989  0.00  0.00    +0.000 A 
ATOM     18  C   UNL     1       1.397  14.024  18.889  0.00  0.00    +0.000 A 
ATOM     19  N   UNL     1       2.381  13.162  18.615  0.00  0.00    +0.000 NA
ATOM     20  N   UNL     1       1.751  11.959  18.506  0.00  0.00    +0.000 N 
ATOM     21  C   UNL     1       2.317  10.715  18.212  0.00  0.00    +0.000 A 
BRANCH  18  22
ATOM     22  C   UNL     1       1.573  15.528  19.059  0.00  0.00    +0.000 C 
ATOM     23  C   UNL     1       2.936  16.084  19.406  0.00  0.00    +0.000 C 
ATOM     24  C   UNL     1       2.396  16.277  18.031  0.00  0.00    +0.000 C 
ENDBRANCH  18  22
ENDBRANCH  11  13
ENDBRANCH   6   9
BRANCH   1  25
ATOM     25  N   UNL     1       6.191   4.818  16.690  0.00  0.00    +0.000 N 
ATOM     26  H   UNL     1       6.789   5.480  17.203  0.00  0.00    +0.000 HD
BRANCH  25  27
ATOM     27  S   UNL     1       6.388   5.220  15.045  0.00  0.00    +0.000 S 
ATOM     28  O   UNL     1       7.811   5.400  14.865  0.00  0.00    +0.000 OA
ATOM     29  O   UNL     1       5.428   6.240  14.681  0.00  0.00    +0.000 OA
BRANCH  27  30
ATOM     30  C   UNL     1       5.914   3.678  14.254  0.00  0.00    +0.000 C 
BRANCH  30  32
ATOM     31  C   UNL     1       5.211   3.137  11.882  0.00  0.00    +0.000 C 
ATOM     32  C   UNL     1       6.312   3.680  12.779  0.00  0.00    +0.000 C 
ENDBRANCH  30  32
ENDBRANCH  27  30
ENDBRANCH  25  27
ENDBRANCH   1  25
TORSDOF 7
ENDMDL
MODEL 6
REMARK VINA RESULT:      -8.0      1.750      2.234
REMARK  Name = 
REMARK  8 active torsions:
REMARK  status: ('A' for Active; 'I' for Inactive)
REMARK    1  A    between atoms: C_1  and  C_2
REMARK    2  A    between atoms: C_2  and  C_3
REMARK    3  A    between atoms: C_3  and  S_4
REMARK    4  A    between atoms: S_4  and  N_7
REMARK    5  A    between atoms: N_7  and  C_8
REMARK    6  A    between atoms: C_13  and  C_14
REMARK    7  A    between atoms: N_16  and  C_17
REMARK    8  A    between atoms: C_22  and  C_23
REMARK                            x       y       z     vdW  Elec       q    Type
REMARK                         _______ _______ _______ _____ _____    ______ ____
ROOT
ATOM      1  C   UNL     1       4.846   4.333  17.130  0.00  0.00    +0.000 A 
ATOM      2  C   UNL     1       4.034   3.227  16.895  0.00  0.00    +0.000 A 
ATOM      3  C   UNL     1       2.726   3.225  17.384  0.00  0.00    +0.000 A 
ATOM      4  C   UNL     1       2.231   4.330  18.085  0.00  0.00    +0.000 A 
ATOM      5  F   UNL     1       0.974   4.264  18.550  0.00  0.00    +0.000 F 
ATOM      6  C   UNL     1       3.015   5.462  18.306  0.00  0.00    +0.000 A 
ATOM      7  C   UNL     1       4.331   5.448  17.809  0.00  0.00    +0.000 A 
ATOM      8  F   UNL     1       5.162   6.485  17.997  0.00  0.00    +0.000 F 
ENDROOT
BRANCH   6   9
ATOM      9  C   UNL     1       2.523   6.656  19.055  0.00  0.00    +0.000 C 
ATOM     10  O   UNL     1       2.484   6.586  20.278  0.00  0.00    +0.000 OA
ATOM     11  N   UNL     1       2.120   7.779  18.341  0.00  0.00    +0.000 N 
ATOM     12  H   UNL     1       2.162   7.728  17.326  0.00  0.00    +0.000 HD
BRANCH  11  13
ATOM     13  C   UNL     1       1.636   8.968  18.869  0.00  0.00    +0.000 A 
ATOM     14  C   UNL     1       1.855  10.323  18.238  0.00  0.00    +0.000 A 
ATOM     15  N   UNL     1       1.425  11.471  18.680  0.00  0.00    +0.000 NA
ATOM     16  C   UNL     1       0.718  11.431  19.842  0.00  0.00    +0.000 A 
ATOM     17  C   UNL     1       0.143  12.431  20.584  0.00  0.00    +0.000 A 
ATOM     18  C   UNL     1      -0.396  11.783  21.703  0.00  0.00    +0.000 A 
ATOM     19  N   UNL     1      -0.225  10.457  21.672  0.00  0.00    +0.000 NA
ATOM     20  N   UNL     1       0.464  10.236  20.518  0.00  0.00    +0.000 N 
ATOM     21  C   UNL     1       0.918   9.016  20.007  0.00  0.00    +0.000 A 
BRANCH  18  22
ATOM     22  C   UNL     1      -1.077  12.551  22.829  0.00  0.00    +0.000 C 
ATOM     23  C   UNL     1      -2.219  13.488  22.507  0.00  0.00    +0.000 C 
ATOM     24  C   UNL     1      -2.505  12.192  23.185  0.00  0.00    +0.000 C 
ENDBRANCH  18  22
ENDBRANCH  11  13
ENDBRANCH   6   9
BRANCH   1  25
ATOM     25  N   UNL     1       6.198   4.340  16.634  0.00  0.00    +0.000 N 
ATOM     26  H   UNL     1       6.818   4.897  17.239  0.00  0.00    +0.000 HD
BRANCH  25  27
ATOM     27  S   UNL     1       6.413   4.979  15.068  0.00  0.00    +0.000 S 
ATOM     28  O   UNL     1       7.818   5.304  14.979  0.00  0.00    +0.000 OA
ATOM     29  O   UNL     1       5.376   5.952  14.800  0.00  0.00    +0.000 OA
BRANCH  27  30
ATOM     30  C   UNL     1       6.109   3.525  14.058  0.00  0.00    +0.000 C 
BRANCH  30  32
ATOM     31  C   UNL     1       4.966   3.242  11.815  0.00  0.00    +0.000 C 
ATOM     32  C   UNL     1       6.119   3.883  12.572  0.00  0.00    +0.000 C 
ENDBRANCH  30  32
ENDBRANCH  27  30
ENDBRANCH  25  27
ENDBRANCH   1  25
TORSDOF 7
ENDMDL
MODEL 7
REMARK VINA RESULT:      -8.0      1.764      2.119
REMARK  Name = 
REMARK  8 active torsions:
REMARK  status: ('A' for Active; 'I' for Inactive)
REMARK    1  A    between atoms: C_1  and  C_2
REMARK    2  A    between atoms: C_2  and  C_3
REMARK    3  A    between atoms: C_3  and  S_4
REMARK    4  A    between atoms: S_4  and  N_7
REMARK    5  A    between atoms: N_7  and  C_8
REMARK    6  A    between atoms: C_13  and  C_14
REMARK    7  A    between atoms: N_16  and  C_17
REMARK    8  A    between atoms: C_22  and  C_23
REMARK                            x       y       z     vdW  Elec       q    Type
REMARK                         _______ _______ _______ _____ _____    ______ ____
ROOT
ATOM      1  C   UNL     1       4.548   4.741  18.024  0.00  0.00    +0.000 A 
ATOM      2  C   UNL     1       4.316   3.599  18.786  0.00  0.00    +0.000 A 
ATOM      3  C   UNL     1       3.409   3.658  19.845  0.00  0.00    +0.000 A 
ATOM      4  C   UNL     1       2.724   4.846  20.125  0.00  0.00    +0.000 A 
ATOM      5  F   UNL     1       1.880   4.850  21.168  0.00  0.00    +0.000 F 
ATOM      6  C   UNL     1       2.916   5.994  19.357  0.00  0.00    +0.000 A 
ATOM      7  C   UNL     1       3.835   5.920  18.296  0.00  0.00    +0.000 A 
ATOM      8  F   UNL     1       4.098   6.984  17.520  0.00  0.00    +0.000 F 
ENDROOT
BRANCH   6   9
ATOM      9  C   UNL     1       2.210   7.280  19.632  0.00  0.00    +0.000 C 
ATOM     10  O   UNL     1       2.183   8.119  18.739  0.00  0.00    +0.000 OA
ATOM     11  N   UNL     1       1.629   7.475  20.882  0.00  0.00    +0.000 N 
ATOM     12  H   UNL     1       1.731   6.729  21.566  0.00  0.00    +0.000 HD
BRANCH  11  13
ATOM     13  C   UNL     1       0.941   8.601  21.309  0.00  0.00    +0.000 A 
ATOM     14  C   UNL     1       0.922   9.086  22.741  0.00  0.00    +0.000 A 
ATOM     15  N   UNL     1       0.301  10.133  23.204  0.00  0.00    +0.000 NA
ATOM     16  C   UNL     1      -0.415  10.848  22.294  0.00  0.00    +0.000 A 
ATOM     17  C   UNL     1      -1.185  11.975  22.434  0.00  0.00    +0.000 A 
ATOM     18  C   UNL     1      -1.713  12.209  21.158  0.00  0.00    +0.000 A 
ATOM     19  N   UNL     1      -1.284  11.331  20.245  0.00  0.00    +0.000 NA
ATOM     20  N   UNL     1      -0.478  10.487  20.947  0.00  0.00    +0.000 N 
ATOM     21  C   UNL     1       0.219   9.371  20.473  0.00  0.00    +0.000 A 
BRANCH  18  22
ATOM     22  C   UNL     1      -2.692  13.345  20.887  0.00  0.00    +0.000 C 
ATOM     23  C   UNL     1      -2.931  14.392  21.952  0.00  0.00    +0.000 C 
ATOM     24  C   UNL     1      -2.142  14.749  20.740  0.00  0.00    +0.000 C 
ENDBRANCH  18  22
ENDBRANCH  11  13
ENDBRANCH   6   9
BRANCH   1  25
ATOM     25  N   UNL     1       5.487   4.690  16.933  0.00  0.00    +0.000 N 
ATOM     26  H   UNL     1       5.488   3.766  16.480  0.00  0.00    +0.000 HD
BRANCH  25  27
ATOM     27  S   UNL     1       7.115   4.990  17.339  0.00  0.00    +0.000 S 
ATOM     28  O   UNL     1       7.889   4.394  16.274  0.00  0.00    +0.000 OA
ATOM     29  O   UNL     1       7.333   4.659  18.731  0.00  0.00    +0.000 OA
BRANCH  27  30
ATOM     30  C   UNL     1       7.193   6.776  17.156  0.00  0.00    +0.000 C 
BRANCH  30  32
ATOM     31  C   UNL     1       8.287   8.879  18.047  0.00  0.00    +0.000 C 
ATOM     32  C   UNL     1       8.011   7.402  18.284  0.00  0.00    +0.000 C 
ENDBRANCH  30  32
ENDBRANCH  27  30
ENDBRANCH  25  27
ENDBRANCH   1  25
TORSDOF 7
ENDMDL
MODEL 8
REMARK VINA RESULT:      -8.0      1.564      1.892
REMARK  Name = 
REMARK  8 active torsions:
REMARK  status: ('A' for Active; 'I' for Inactive)
REMARK    1  A    between atoms: C_1  and  C_2
REMARK    2  A    between atoms: C_2  and  C_3
REMARK    3  A    between atoms: C_3  and  S_4
REMARK    4  A    between atoms: S_4  and  N_7
REMARK    5  A    between atoms: N_7  and  C_8
REMARK    6  A    between atoms: C_13  and  C_14
REMARK    7  A    between atoms: N_16  and  C_17
REMARK    8  A    between atoms: C_22  and  C_23
REMARK                            x       y       z     vdW  Elec       q    Type
REMARK                         _______ _______ _______ _____ _____    ______ ____
ROOT
ATOM      1  C   UNL     1       4.900   4.296  18.478  0.00  0.00    +0.000 A 
ATOM      2  C   UNL     1       4.252   3.283  17.776  0.00  0.00    +0.000 A 
ATOM      3  C   UNL     1       2.908   3.441  17.433  0.00  0.00    +0.000 A 
ATOM      4  C   UNL     1       2.225   4.614  17.773  0.00  0.00    +0.000 A 
ATOM      5  F   UNL     1       0.929   4.703  17.437  0.00  0.00    +0.000 F 
ATOM      6  C   UNL     1       2.861   5.657  18.448  0.00  0.00    +0.000 A 
ATOM      7  C   UNL     1       4.213   5.481  18.789  0.00  0.00    +0.000 A 
ATOM      8  F   UNL     1       4.896   6.423  19.460  0.00  0.00    +0.000 F 
ENDROOT
BRANCH   6   9
ATOM      9  C   UNL     1       2.161   6.918  18.834  0.00  0.00    +0.000 C 
ATOM     10  O   UNL     1       1.883   7.712  17.942  0.00  0.00    +0.000 OA
ATOM     11  N   UNL     1       1.869   7.142  20.175  0.00  0.00    +0.000 N 
ATOM     12  H   UNL     1       2.167   6.435  20.843  0.00  0.00    +0.000 HD
BRANCH  11  13
ATOM     13  C   UNL     1       1.231   8.252  20.711  0.00  0.00    +0.000 A 
ATOM     14  C   UNL     1       0.197   8.182  21.810  0.00  0.00    +0.000 A 
ATOM     15  N   UNL     1      -0.434   9.183  22.356  0.00  0.00    +0.000 NA
ATOM     16  C   UNL     1      -0.129  10.415  21.863  0.00  0.00    +0.000 A 
ATOM     17  C   UNL     1      -0.604  11.660  22.188  0.00  0.00    +0.000 A 
ATOM     18  C   UNL     1       0.042  12.533  21.302  0.00  0.00    +0.000 A 
ATOM     19  N   UNL     1       0.906  11.910  20.493  0.00  0.00    +0.000 NA
ATOM     20  N   UNL     1       0.803  10.597  20.840  0.00  0.00    +0.000 N 
ATOM     21  C   UNL     1       1.482   9.506  20.290  0.00  0.00    +0.000 A 
BRANCH  18  22
ATOM     22  C   UNL     1      -0.257  14.026  21.281  0.00  0.00    +0.000 C 
ATOM     23  C   UNL     1      -1.019  14.650  22.429  0.00  0.00    +0.000 C 
ATOM     24  C   UNL     1       0.441  14.915  22.290  0.00  0.00    +0.000 C 
ENDBRANCH  18  22
ENDBRANCH  11  13
ENDBRANCH   6   9
BRANCH   1  25
ATOM     25  N   UNL     1       6.285   4.138  18.840  0.00  0.00    +0.000 N 
ATOM     26  H   UNL     1       6.492   4.592  19.740  0.00  0.00    +0.000 HD
BRANCH  25  27
ATOM     27  S   UNL     1       7.419   4.782  17.743  0.00  0.00    +0.000 S 
ATOM     28  O   UNL     1       6.677   5.026  16.527  0.00  0.00    +0.000 OA
ATOM     29  O   UNL     1       8.621   3.977  17.766  0.00  0.00    +0.000 OA
BRANCH  27  30
ATOM     30  C   UNL     1       7.777   6.368  18.508  0.00  0.00    +0.000 C 
BRANCH  30  32
ATOM     31  C   UNL     1       8.182   8.817  18.004  0.00  0.00    +0.000 C 
ATOM     32  C   UNL     1       7.586   7.508  17.509  0.00  0.00    +0.000 C 
ENDBRANCH  30  32
ENDBRANCH  27  30
ENDBRANCH  25  27
ENDBRANCH   1  25
TORSDOF 7
ENDMDL
MODEL 9
REMARK VINA RESULT:      -8.0      1.473      2.182
REMARK  Name = 
REMARK  8 active torsions:
REMARK  status: ('A' for Active; 'I' for Inactive)
REMARK    1  A    between atoms: C_1  and  C_2
REMARK    2  A    between atoms: C_2  and  C_3
REMARK    3  A    between atoms: C_3  and  S_4
REMARK    4  A    between atoms: S_4  and  N_7
REMARK    5  A    between atoms: N_7  and  C_8
REMARK    6  A    between atoms: C_13  and  C_14
REMARK    7  A    between atoms: N_16  and  C_17
REMARK    8  A    between atoms: C_22  and  C_23
REMARK                            x       y       z     vdW  Elec       q    Type
REMARK                         _______ _______ _______ _____ _____    ______ ____
ROOT
ATOM      1  C   UNL     1       4.976   4.130  18.909  0.00  0.00    +0.000 A 
ATOM      2  C   UNL     1       4.378   2.891  18.696  0.00  0.00    +0.000 A 
ATOM      3  C   UNL     1       3.013   2.740  18.943  0.00  0.00    +0.000 A 
ATOM      4  C   UNL     1       2.248   3.829  19.379  0.00  0.00    +0.000 A 
ATOM      5  F   UNL     1       0.945   3.621  19.621  0.00  0.00    +0.000 F 
ATOM      6  C   UNL     1       2.818   5.088  19.569  0.00  0.00    +0.000 A 
ATOM      7  C   UNL     1       4.195   5.222  19.319  0.00  0.00    +0.000 A 
ATOM      8  F   UNL     1       4.829   6.392  19.498  0.00  0.00    +0.000 F 
ENDROOT
BRANCH   6   9
ATOM      9  C   UNL     1       2.035   6.269  20.040  0.00  0.00    +0.000 C 
ATOM     10  O   UNL     1       1.369   6.141  21.061  0.00  0.00    +0.000 OA
ATOM     11  N   UNL     1       2.085   7.446  19.302  0.00  0.00    +0.000 N 
ATOM     12  H   UNL     1       2.644   7.443  18.453  0.00  0.00    +0.000 HD
BRANCH  11  13
ATOM     13  C   UNL     1       1.423   8.633  19.588  0.00  0.00    +0.000 A 
ATOM     14  C   UNL     1       1.025   9.650  18.544  0.00  0.00    +0.000 A 
ATOM     15  N   UNL     1       0.402  10.776  18.746  0.00  0.00    +0.000 NA
ATOM     16  C   UNL     1       0.097  11.060  20.042  0.00  0.00    +0.000 A 
ATOM     17  C   UNL     1      -0.529  12.142  20.606  0.00  0.00    +0.000 A 
ATOM     18  C   UNL     1      -0.504  11.893  21.985  0.00  0.00    +0.000 A 
ATOM     19  N   UNL     1       0.054  10.717  22.293  0.00  0.00    +0.000 NA
ATOM     20  N   UNL     1       0.427  10.198  21.090  0.00  0.00    +0.000 N 
ATOM     21  C   UNL     1       1.074   8.984  20.840  0.00  0.00    +0.000 A 
BRANCH  18  22
ATOM     22  C   UNL     1      -1.046  12.896  22.995  0.00  0.00    +0.000 C 
ATOM     23  C   UNL     1      -1.993  13.981  22.533  0.00  0.00    +0.000 C 
ATOM     24  C   UNL     1      -2.521  12.845  23.339  0.00  0.00    +0.000 C 
ENDBRANCH  18  22
ENDBRANCH  11  13
ENDBRANCH   6   9
BRANCH   1  25
ATOM     25  N   UNL     1       6.386   4.292  18.662  0.00  0.00    +0.000 N 
ATOM     26  H   UNL     1       6.782   5.052  19.231  0.00  0.00    +0.000 HD
BRANCH  25  27
ATOM     27  S   UNL     1       6.822   4.661  17.056  0.00  0.00    +0.000 S 
ATOM     28  O   UNL     1       5.691   4.258  16.252  0.00  0.00    +0.000 OA
ATOM     29  O   UNL     1       8.163   4.181  16.800  0.00  0.00    +0.000 OA
BRANCH  27  30
ATOM     30  C   UNL     1       6.858   6.456  17.112  0.00  0.00    +0.000 C 
BRANCH  30  32
ATOM     31  C   UNL     1       8.167   8.428  18.016  0.00  0.00    +0.000 C 
ATOM     32  C   UNL     1       7.852   6.947  18.164  0.00  0.00    +0.000 C 
ENDBRANCH  30  32
ENDBRANCH  27  30
ENDBRANCH  25  27
ENDBRANCH   1  25
TORSDOF 7
ENDMDL
