MODEL 1
REMARK VINA RESULT:      -8.4      0.000      0.000
REMARK  Name = 
REMARK  9 active torsions:
REMARK  status: ('A' for Active; 'I' for Inactive)
REMARK    1  A    between atoms: N_2  and  C_4
REMARK    2  A    between atoms: C_7  and  C_8
REMARK    3  A    between atoms: C_11  and  O_12
REMARK    4  A    between atoms: O_12  and  C_13
REMARK    5  A    between atoms: C_15  and  C_16
REMARK    6  A    between atoms: C_16  and  O_17
REMARK    7  A    between atoms: C_18  and  O_19
REMARK    8  A    between atoms: C_20  and  O_21
REMARK    9  A    between atoms: C_22  and  O_23
REMARK                            x       y       z     vdW  Elec       q    Type
REMARK                         _______ _______ _______ _____ _____    ______ ____
ROOT
ATOM      1  C   UNL     1       1.316   8.876  19.902  0.00  0.00    +0.000 A 
ATOM      2  C   UNL     1       1.654   9.086  18.550  0.00  0.00    +0.000 A 
ATOM      3  C   UNL     1       2.476   8.183  17.829  0.00  0.00    +0.000 A 
ATOM      4  C   UNL     1       2.895   6.992  18.410  0.00  0.00    +0.000 A 
ATOM      5  C   UNL     1       2.409   6.696  19.687  0.00  0.00    +0.000 A 
ATOM      6 CL   UNL     1       2.386   5.073  20.286  0.00  0.00    +0.000 Cl
ATOM      7  C   UNL     1       1.777   7.674  20.449  0.00  0.00    +0.000 A 
ENDROOT
BRANCH   1  11
ATOM      8  C   UNL     1      -1.196  11.389  22.389  0.00  0.00    +0.000 A 
ATOM      9  C   UNL     1      -0.699  10.183  22.866  0.00  0.00    +0.000 A 
ATOM     10  C   UNL     1       0.089   9.393  22.032  0.00  0.00    +0.000 A 
ATOM     11  C   UNL     1       0.446   9.770  20.715  0.00  0.00    +0.000 A 
ATOM     12  C   UNL     1      -0.068  11.003  20.260  0.00  0.00    +0.000 A 
ATOM     13  C   UNL     1      -0.895  11.800  21.080  0.00  0.00    +0.000 A 
BRANCH   8  15
ATOM     14  O   UNL     1      -1.624  13.343  23.560  0.00  0.00    +0.000 OA
ATOM     15  N   UNL     1      -2.038  12.217  23.275  0.00  0.00    +0.000 N 
ATOM     16  O   UNL     1      -3.105  11.727  23.658  0.00  0.00    +0.000 OA
ENDBRANCH   8  15
ENDBRANCH   1  11
BRANCH   4  17
ATOM     17  O   UNL     1       3.767   6.063  17.884  0.00  0.00    +0.000 OA
BRANCH  17  18
ATOM     18  C   UNL     1       4.608   6.452  16.806  0.00  0.00    +0.000 C 
ATOM     19  O   UNL     1       5.819   7.113  17.203  0.00  0.00    +0.000 OA
ATOM     20  C   UNL     1       6.742   6.311  17.950  0.00  0.00    +0.000 C 
ATOM     21  C   UNL     1       7.179   5.053  17.189  0.00  0.00    +0.000 C 
ATOM     22  C   UNL     1       5.990   4.285  16.609  0.00  0.00    +0.000 C 
ATOM     23  C   UNL     1       4.957   5.204  15.943  0.00  0.00    +0.000 C 
BRANCH  21  24
ATOM     24  O   UNL     1       7.919   4.153  18.037  0.00  0.00    +0.000 OA
ATOM     25  H   UNL     1       8.473   4.679  18.644  0.00  0.00    +0.000 HD
ENDBRANCH  21  24
BRANCH  22  26
ATOM     26  O   UNL     1       6.492   3.363  15.616  0.00  0.00    +0.000 OA
ATOM     27  H   UNL     1       7.160   2.805  16.065  0.00  0.00    +0.000 HD
ENDBRANCH  22  26
BRANCH  23  28
ATOM     28  O   UNL     1       5.481   5.666  14.680  0.00  0.00    +0.000 OA
ATOM     29  H   UNL     1       5.821   4.869  14.224  0.00  0.00    +0.000 HD
ENDBRANCH  23  28
BRANCH  20  30
ATOM     30  C   UNL     1       7.958   7.204  18.239  0.00  0.00    +0.000 C 
BRANCH  30  31
ATOM     31  O   UNL     1       7.982   8.330  17.358  0.00  0.00    +0.000 OA
ATOM     32  H   UNL     1       7.203   8.871  17.592  0.00  0.00    +0.000 HD
ENDBRANCH  30  31
ENDBRANCH  20  30
ENDBRANCH  17  18
ENDBRANCH   4  17
TORSDOF 9
ENDMDL
MODEL 2
REMARK VINA RESULT:      -7.8      4.861      7.803
REMARK  Name = 
REMARK  9 active torsions:
REMARK  status: ('A' for Active; 'I' for Inactive)
REMARK    1  A    between atoms: N_2  and  C_4
REMARK    2  A    between atoms: C_7  and  C_8
REMARK    3  A    between atoms: C_11  and  O_12
REMARK    4  A    between atoms: O_12  and  C_13
REMARK    5  A    between atoms: C_15  and  C_16
REMARK    6  A    between atoms: C_16  and  O_17
REMARK    7  A    between atoms: C_18  and  O_19
REMARK    8  A    between atoms: C_20  and  O_21
REMARK    9  A    between atoms: C_22  and  O_23
REMARK                            x       y       z     vdW  Elec       q    Type
REMARK                         _______ _______ _______ _____ _____    ______ ____
ROOT
ATOM      1  C   UNL     1       7.777   8.240  18.145  0.00  0.00    +0.000 A 
ATOM      2  C   UNL     1       8.292   7.044  18.686  0.00  0.00    +0.000 A 
ATOM      3  C   UNL     1       7.643   5.796  18.510  0.00  0.00    +0.000 A 
ATOM      4  C   UNL     1       6.520   5.692  17.698  0.00  0.00    +0.000 A 
ATOM      5  C   UNL     1       6.117   6.842  17.012  0.00  0.00    +0.000 A 
ATOM      6 CL   UNL     1       5.127   6.743  15.597  0.00  0.00    +0.000 Cl
ATOM      7  C   UNL     1       6.635   8.088  17.351  0.00  0.00    +0.000 A 
ENDROOT
BRANCH   1  11
ATOM      8  C   UNL     1       9.724  12.085  18.622  0.00  0.00    +0.000 A 
ATOM      9  C   UNL     1      10.080  11.003  19.415  0.00  0.00    +0.000 A 
ATOM     10  C   UNL     1       9.419   9.788  19.247  0.00  0.00    +0.000 A 
ATOM     11  C   UNL     1       8.412   9.580  18.274  0.00  0.00    +0.000 A 
ATOM     12  C   UNL     1       8.076  10.696  17.479  0.00  0.00    +0.000 A 
ATOM     13  C   UNL     1       8.712  11.943  17.659  0.00  0.00    +0.000 A 
BRANCH   8  15
ATOM     14  O   UNL     1      11.073  13.516  19.851  0.00  0.00    +0.000 OA
ATOM     15  N   UNL     1      10.421  13.373  18.813  0.00  0.00    +0.000 N 
ATOM     16  O   UNL     1      10.313  14.212  17.913  0.00  0.00    +0.000 OA
ENDBRANCH   8  15
ENDBRANCH   1  11
BRANCH   4  17
ATOM     17  O   UNL     1       5.725   4.583  17.503  0.00  0.00    +0.000 OA
BRANCH  17  18
ATOM     18  C   UNL     1       5.167   3.937  18.638  0.00  0.00    +0.000 C 
ATOM     19  O   UNL     1       4.311   4.768  19.437  0.00  0.00    +0.000 OA
ATOM     20  C   UNL     1       3.107   5.208  18.794  0.00  0.00    +0.000 C 
ATOM     21  C   UNL     1       2.234   4.041  18.316  0.00  0.00    +0.000 C 
ATOM     22  C   UNL     1       3.037   3.003  17.528  0.00  0.00    +0.000 C 
ATOM     23  C   UNL     1       4.384   2.671  18.183  0.00  0.00    +0.000 C 
BRANCH  21  24
ATOM     24  O   UNL     1       1.154   4.497  17.479  0.00  0.00    +0.000 OA
ATOM     25  H   UNL     1       1.455   4.497  16.551  0.00  0.00    +0.000 HD
ENDBRANCH  21  24
BRANCH  22  26
ATOM     26  O   UNL     1       2.251   1.793  17.451  0.00  0.00    +0.000 OA
ATOM     27  H   UNL     1       2.876   1.066  17.253  0.00  0.00    +0.000 HD
ENDBRANCH  22  26
BRANCH  23  28
ATOM     28  O   UNL     1       4.152   1.845  19.344  0.00  0.00    +0.000 OA
ATOM     29  H   UNL     1       3.347   1.324  19.147  0.00  0.00    +0.000 HD
ENDBRANCH  23  28
BRANCH  20  30
ATOM     30  C   UNL     1       2.345   6.048  19.829  0.00  0.00    +0.000 C 
BRANCH  30  31
ATOM     31  O   UNL     1       1.366   5.257  20.506  0.00  0.00    +0.000 OA
ATOM     32  H   UNL     1       1.837   4.811  21.236  0.00  0.00    +0.000 HD
ENDBRANCH  30  31
ENDBRANCH  20  30
ENDBRANCH  17  18
ENDBRANCH   4  17
TORSDOF 9
ENDMDL
MODEL 3
REMARK VINA RESULT:      -7.8      4.796      7.834
REMARK  Name = 
REMARK  9 active torsions:
REMARK  status: ('A' for Active; 'I' for Inactive)
REMARK    1  A    between atoms: N_2  and  C_4
REMARK    2  A    between atoms: C_7  and  C_8
REMARK    3  A    between atoms: C_11  and  O_12
REMARK    4  A    between atoms: O_12  and  C_13
REMARK    5  A    between atoms: C_15  and  C_16
REMARK    6  A    between atoms: C_16  and  O_17
REMARK    7  A    between atoms: C_18  and  O_19
REMARK    8  A    between atoms: C_20  and  O_21
REMARK    9  A    between atoms: C_22  and  O_23
REMARK                            x       y       z     vdW  Elec       q    Type
REMARK                         _______ _______ _______ _____ _____    ______ ____
ROOT
ATOM      1  C   UNL     1       7.846   8.253  18.235  0.00  0.00    +0.000 A 
ATOM      2  C   UNL     1       8.347   7.073  18.822  0.00  0.00    +0.000 A 
ATOM      3  C   UNL     1       7.686   5.826  18.689  0.00  0.00    +0.000 A 
ATOM      4  C   UNL     1       6.565   5.704  17.877  0.00  0.00    +0.000 A 
ATOM      5  C   UNL     1       6.176   6.831  17.148  0.00  0.00    +0.000 A 
ATOM      6 CL   UNL     1       5.190   6.691  15.734  0.00  0.00    +0.000 Cl
ATOM      7  C   UNL     1       6.706   8.084  17.443  0.00  0.00    +0.000 A 
ENDROOT
BRANCH   1  11
ATOM      8  C   UNL     1       9.625  12.205  18.386  0.00  0.00    +0.000 A 
ATOM      9  C   UNL     1       8.555  11.937  17.542  0.00  0.00    +0.000 A 
ATOM     10  C   UNL     1       8.022  10.650  17.506  0.00  0.00    +0.000 A 
ATOM     11  C   UNL     1       8.494   9.591  18.318  0.00  0.00    +0.000 A 
ATOM     12  C   UNL     1       9.577   9.895  19.169  0.00  0.00    +0.000 A 
ATOM     13  C   UNL     1      10.151  11.185  19.194  0.00  0.00    +0.000 A 
BRANCH   8  15
ATOM     14  O   UNL     1       9.456  14.481  18.797  0.00  0.00    +0.000 OA
ATOM     15  N   UNL     1      10.192  13.569  18.411  0.00  0.00    +0.000 N 
ATOM     16  O   UNL     1      11.367  13.698  18.055  0.00  0.00    +0.000 OA
ENDBRANCH   8  15
ENDBRANCH   1  11
BRANCH   4  17
ATOM     17  O   UNL     1       5.760   4.596  17.719  0.00  0.00    +0.000 OA
BRANCH  17  18
ATOM     18  C   UNL     1       5.133   4.041  18.867  0.00  0.00    +0.000 C 
ATOM     19  O   UNL     1       4.211   4.922  19.527  0.00  0.00    +0.000 OA
ATOM     20  C   UNL     1       3.049   5.278  18.767  0.00  0.00    +0.000 C 
ATOM     21  C   UNL     1       2.229   4.056  18.336  0.00  0.00    +0.000 C 
ATOM     22  C   UNL     1       3.099   2.970  17.701  0.00  0.00    +0.000 C 
ATOM     23  C   UNL     1       4.401   2.724  18.473  0.00  0.00    +0.000 C 
BRANCH  21  24
ATOM     24  O   UNL     1       1.203   4.415  17.391  0.00  0.00    +0.000 OA
ATOM     25  H   UNL     1       0.347   4.453  17.857  0.00  0.00    +0.000 HD
ENDBRANCH  21  24
BRANCH  22  26
ATOM     26  O   UNL     1       2.338   1.742  17.679  0.00  0.00    +0.000 OA
ATOM     27  H   UNL     1       1.656   1.823  18.377  0.00  0.00    +0.000 HD
ENDBRANCH  22  26
BRANCH  23  28
ATOM     28  O   UNL     1       4.101   2.000  19.685  0.00  0.00    +0.000 OA
ATOM     29  H   UNL     1       3.132   1.857  19.679  0.00  0.00    +0.000 HD
ENDBRANCH  23  28
BRANCH  20  30
ATOM     30  C   UNL     1       2.205   6.191  19.669  0.00  0.00    +0.000 C 
BRANCH  30  31
ATOM     31  O   UNL     1       2.221   5.726  21.021  0.00  0.00    +0.000 OA
ATOM     32  H   UNL     1       2.940   5.066  21.070  0.00  0.00    +0.000 HD
ENDBRANCH  30  31
ENDBRANCH  20  30
ENDBRANCH  17  18
ENDBRANCH   4  17
TORSDOF 9
ENDMDL
MODEL 4
REMARK VINA RESULT:      -7.8      1.215      2.227
REMARK  Name = 
REMARK  9 active torsions:
REMARK  status: ('A' for Active; 'I' for Inactive)
REMARK    1  A    between atoms: N_2  and  C_4
REMARK    2  A    between atoms: C_7  and  C_8
REMARK    3  A    between atoms: C_11  and  O_12
REMARK    4  A    between atoms: O_12  and  C_13
REMARK    5  A    between atoms: C_15  and  C_16
REMARK    6  A    between atoms: C_16  and  O_17
REMARK    7  A    between atoms: C_18  and  O_19
REMARK    8  A    between atoms: C_20  and  O_21
REMARK    9  A    between atoms: C_22  and  O_23
REMARK                            x       y       z     vdW  Elec       q    Type
REMARK                         _______ _______ _______ _____ _____    ______ ____
ROOT
ATOM      1  C   UNL     1       0.891   9.352  19.959  0.00  0.00    +0.000 A 
ATOM      2  C   UNL     1       1.132   9.712  18.618  0.00  0.00    +0.000 A 
ATOM      3  C   UNL     1       1.939   8.925  17.759  0.00  0.00    +0.000 A 
ATOM      4  C   UNL     1       2.438   7.699  18.186  0.00  0.00    +0.000 A 
ATOM      5  C   UNL     1       2.046   7.254  19.452  0.00  0.00    +0.000 A 
ATOM      6 CL   UNL     1       2.121   5.579  19.878  0.00  0.00    +0.000 Cl
ATOM      7  C   UNL     1       1.429   8.121  20.348  0.00  0.00    +0.000 A 
ENDROOT
BRANCH   1  11
ATOM      8  C   UNL     1      -1.631  11.672  22.617  0.00  0.00    +0.000 A 
ATOM      9  C   UNL     1      -1.505  12.012  21.277  0.00  0.00    +0.000 A 
ATOM     10  C   UNL     1      -0.671  11.255  20.457  0.00  0.00    +0.000 A 
ATOM     11  C   UNL     1       0.043  10.120  20.911  0.00  0.00    +0.000 A 
ATOM     12  C   UNL     1      -0.110   9.796  22.276  0.00  0.00    +0.000 A 
ATOM     13  C   UNL     1      -0.924  10.571  23.128  0.00  0.00    +0.000 A 
BRANCH   8  15
ATOM     14  O   UNL     1      -2.117  13.615  23.786  0.00  0.00    +0.000 OA
ATOM     15  N   UNL     1      -2.509  12.485  23.482  0.00  0.00    +0.000 N 
ATOM     16  O   UNL     1      -3.580  11.981  23.832  0.00  0.00    +0.000 OA
ENDBRANCH   8  15
ENDBRANCH   1  11
BRANCH   4  17
ATOM     17  O   UNL     1       3.308   6.867  17.514  0.00  0.00    +0.000 OA
BRANCH  17  18
ATOM     18  C   UNL     1       4.695   6.952  17.808  0.00  0.00    +0.000 C 
ATOM     19  O   UNL     1       5.176   5.941  18.708  0.00  0.00    +0.000 OA
ATOM     20  C   UNL     1       5.117   4.597  18.213  0.00  0.00    +0.000 C 
ATOM     21  C   UNL     1       5.907   4.413  16.911  0.00  0.00    +0.000 C 
ATOM     22  C   UNL     1       5.576   5.490  15.876  0.00  0.00    +0.000 C 
ATOM     23  C   UNL     1       5.511   6.898  16.483  0.00  0.00    +0.000 C 
BRANCH  21  24
ATOM     24  O   UNL     1       5.649   3.127  16.314  0.00  0.00    +0.000 OA
ATOM     25  H   UNL     1       6.192   2.456  16.769  0.00  0.00    +0.000 HD
ENDBRANCH  21  24
BRANCH  22  26
ATOM     26  O   UNL     1       6.609   5.472  14.866  0.00  0.00    +0.000 OA
ATOM     27  H   UNL     1       6.501   6.292  14.341  0.00  0.00    +0.000 HD
ENDBRANCH  22  26
BRANCH  23  28
ATOM     28  O   UNL     1       6.852   7.352  16.764  0.00  0.00    +0.000 OA
ATOM     29  H   UNL     1       7.285   6.623  17.254  0.00  0.00    +0.000 HD
ENDBRANCH  23  28
BRANCH  20  30
ATOM     30  C   UNL     1       5.699   3.702  19.317  0.00  0.00    +0.000 C 
BRANCH  30  31
ATOM     31  O   UNL     1       5.033   2.437  19.351  0.00  0.00    +0.000 OA
ATOM     32  H   UNL     1       4.693   2.288  18.447  0.00  0.00    +0.000 HD
ENDBRANCH  30  31
ENDBRANCH  20  30
ENDBRANCH  17  18
ENDBRANCH   4  17
TORSDOF 9
ENDMDL
MODEL 5
REMARK VINA RESULT:      -7.7      2.020      2.621
REMARK  Name = 
REMARK  9 active torsions:
REMARK  status: ('A' for Active; 'I' for Inactive)
REMARK    1  A    between atoms: N_2  and  C_4
REMARK    2  A    between atoms: C_7  and  C_8
REMARK    3  A    between atoms: C_11  and  O_12
REMARK    4  A    between atoms: O_12  and  C_13
REMARK    5  A    between atoms: C_15  and  C_16
REMARK    6  A    between atoms: C_16  and  O_17
REMARK    7  A    between atoms: C_18  and  O_19
REMARK    8  A    between atoms: C_20  and  O_21
REMARK    9  A    between atoms: C_22  and  O_23
REMARK                            x       y       z     vdW  Elec       q    Type
REMARK                         _______ _______ _______ _____ _____    ______ ____
ROOT
ATOM      1  C   UNL     1       0.576   9.681  19.302  0.00  0.00    +0.000 A 
ATOM      2  C   UNL     1       1.197   9.574  18.041  0.00  0.00    +0.000 A 
ATOM      3  C   UNL     1       2.214   8.622  17.779  0.00  0.00    +0.000 A 
ATOM      4  C   UNL     1       2.563   7.679  18.740  0.00  0.00    +0.000 A 
ATOM      5  C   UNL     1       1.820   7.665  19.924  0.00  0.00    +0.000 A 
ATOM      6 CL   UNL     1       1.762   6.262  20.932  0.00  0.00    +0.000 Cl
ATOM      7  C   UNL     1       0.974   8.724  20.242  0.00  0.00    +0.000 A 
ENDROOT
BRANCH   1  11
ATOM      8  C   UNL     1      -2.648  12.451  20.162  0.00  0.00    +0.000 A 
ATOM      9  C   UNL     1      -2.552  11.831  18.923  0.00  0.00    +0.000 A 
ATOM     10  C   UNL     1      -1.491  10.962  18.676  0.00  0.00    +0.000 A 
ATOM     11  C   UNL     1      -0.508  10.642  19.643  0.00  0.00    +0.000 A 
ATOM     12  C   UNL     1      -0.636  11.282  20.894  0.00  0.00    +0.000 A 
ATOM     13  C   UNL     1      -1.685  12.191  21.150  0.00  0.00    +0.000 A 
BRANCH   8  15
ATOM     14  O   UNL     1      -3.505  14.449  20.967  0.00  0.00    +0.000 OA
ATOM     15  N   UNL     1      -3.769  13.379  20.413  0.00  0.00    +0.000 N 
ATOM     16  O   UNL     1      -4.891  13.022  20.040  0.00  0.00    +0.000 OA
ENDBRANCH   8  15
ENDBRANCH   1  11
BRANCH   4  17
ATOM     17  O   UNL     1       3.587   6.758  18.678  0.00  0.00    +0.000 OA
BRANCH  17  18
ATOM     18  C   UNL     1       3.483   5.687  17.750  0.00  0.00    +0.000 C 
ATOM     19  O   UNL     1       4.431   5.738  16.672  0.00  0.00    +0.000 OA
ATOM     20  C   UNL     1       5.805   5.595  17.054  0.00  0.00    +0.000 C 
ATOM     21  C   UNL     1       6.078   4.278  17.791  0.00  0.00    +0.000 C 
ATOM     22  C   UNL     1       5.074   4.027  18.918  0.00  0.00    +0.000 C 
ATOM     23  C   UNL     1       3.628   4.332  18.503  0.00  0.00    +0.000 C 
BRANCH  21  24
ATOM     24  O   UNL     1       7.401   4.256  18.361  0.00  0.00    +0.000 OA
ATOM     25  H   UNL     1       7.563   5.108  18.808  0.00  0.00    +0.000 HD
ENDBRANCH  21  24
BRANCH  22  26
ATOM     26  O   UNL     1       5.160   2.635  19.293  0.00  0.00    +0.000 OA
ATOM     27  H   UNL     1       5.230   2.612  20.270  0.00  0.00    +0.000 HD
ENDBRANCH  22  26
BRANCH  23  28
ATOM     28  O   UNL     1       3.156   3.283  17.631  0.00  0.00    +0.000 OA
ATOM     29  H   UNL     1       2.521   2.758  18.162  0.00  0.00    +0.000 HD
ENDBRANCH  23  28
BRANCH  20  30
ATOM     30  C   UNL     1       6.623   5.653  15.755  0.00  0.00    +0.000 C 
BRANCH  30  31
ATOM     31  O   UNL     1       7.534   4.553  15.678  0.00  0.00    +0.000 OA
ATOM     32  H   UNL     1       7.080   3.798  16.100  0.00  0.00    +0.000 HD
ENDBRANCH  30  31
ENDBRANCH  20  30
ENDBRANCH  17  18
ENDBRANCH   4  17
TORSDOF 9
ENDMDL
MODEL 6
REMARK VINA RESULT:      -7.6      1.899      2.824
REMARK  Name = 
REMARK  9 active torsions:
REMARK  status: ('A' for Active; 'I' for Inactive)
REMARK    1  A    between atoms: N_2  and  C_4
REMARK    2  A    between atoms: C_7  and  C_8
REMARK    3  A    between atoms: C_11  and  O_12
REMARK    4  A    between atoms: O_12  and  C_13
REMARK    5  A    between atoms: C_15  and  C_16
REMARK    6  A    between atoms: C_16  and  O_17
REMARK    7  A    between atoms: C_18  and  O_19
REMARK    8  A    between atoms: C_20  and  O_21
REMARK    9  A    between atoms: C_22  and  O_23
REMARK                            x       y       z     vdW  Elec       q    Type
REMARK                         _______ _______ _______ _____ _____    ______ ____
ROOT
ATOM      1  C   UNL     1       1.070   9.149  20.339  0.00  0.00    +0.000 A 
ATOM      2  C   UNL     1       1.436   9.315  18.988  0.00  0.00    +0.000 A 
ATOM      3  C   UNL     1       2.061   8.284  18.243  0.00  0.00    +0.000 A 
ATOM      4  C   UNL     1       2.240   7.022  18.798  0.00  0.00    +0.000 A 
ATOM      5  C   UNL     1       1.710   6.801  20.072  0.00  0.00    +0.000 A 
ATOM      6 CL   UNL     1       1.372   5.203  20.641  0.00  0.00    +0.000 Cl
ATOM      7  C   UNL     1       1.287   7.868  20.859  0.00  0.00    +0.000 A 
ENDROOT
BRANCH   1  11
ATOM      8  C   UNL     1      -0.851  12.256  22.676  0.00  0.00    +0.000 A 
ATOM      9  C   UNL     1      -0.104  12.571  21.548  0.00  0.00    +0.000 A 
ATOM     10  C   UNL     1       0.515  11.548  20.833  0.00  0.00    +0.000 A 
ATOM     11  C   UNL     1       0.397  10.180  21.176  0.00  0.00    +0.000 A 
ATOM     12  C   UNL     1      -0.373   9.890  22.322  0.00  0.00    +0.000 A 
ATOM     13  C   UNL     1      -0.979  10.917  23.078  0.00  0.00    +0.000 A 
BRANCH   8  15
ATOM     14  O   UNL     1      -0.773  14.262  23.836  0.00  0.00    +0.000 OA
ATOM     15  N   UNL     1      -1.496  13.347  23.434  0.00  0.00    +0.000 N 
ATOM     16  O   UNL     1      -2.717  13.271  23.603  0.00  0.00    +0.000 OA
ENDBRANCH   8  15
ENDBRANCH   1  11
BRANCH   4  17
ATOM     17  O   UNL     1       2.909   5.950  18.246  0.00  0.00    +0.000 OA
BRANCH  17  18
ATOM     18  C   UNL     1       4.245   5.696  18.660  0.00  0.00    +0.000 C 
ATOM     19  O   UNL     1       4.373   4.687  19.673  0.00  0.00    +0.000 OA
ATOM     20  C   UNL     1       3.987   3.364  19.278  0.00  0.00    +0.000 C 
ATOM     21  C   UNL     1       4.785   2.853  18.072  0.00  0.00    +0.000 C 
ATOM     22  C   UNL     1       4.829   3.873  16.933  0.00  0.00    +0.000 C 
ATOM     23  C   UNL     1       5.105   5.301  17.423  0.00  0.00    +0.000 C 
BRANCH  21  24
ATOM     24  O   UNL     1       4.232   1.629  17.552  0.00  0.00    +0.000 OA
ATOM     25  H   UNL     1       3.515   1.849  16.929  0.00  0.00    +0.000 HD
ENDBRANCH  21  24
BRANCH  22  26
ATOM     26  O   UNL     1       5.886   3.487  16.026  0.00  0.00    +0.000 OA
ATOM     27  H   UNL     1       5.459   2.999  15.291  0.00  0.00    +0.000 HD
ENDBRANCH  22  26
BRANCH  23  28
ATOM     28  O   UNL     1       6.496   5.412  17.792  0.00  0.00    +0.000 OA
ATOM     29  H   UNL     1       6.951   5.791  17.011  0.00  0.00    +0.000 HD
ENDBRANCH  23  28
BRANCH  20  30
ATOM     30  C   UNL     1       4.229   2.460  20.495  0.00  0.00    +0.000 C 
BRANCH  30  31
ATOM     31  O   UNL     1       5.236   1.484  20.211  0.00  0.00    +0.000 OA
ATOM     32  H   UNL     1       4.818   0.831  19.617  0.00  0.00    +0.000 HD
ENDBRANCH  30  31
ENDBRANCH  20  30
ENDBRANCH  17  18
ENDBRANCH   4  17
TORSDOF 9
ENDMDL
MODEL 7
REMARK VINA RESULT:      -7.6      1.910      2.762
REMARK  Name = 
REMARK  9 active torsions:
REMARK  status: ('A' for Active; 'I' for Inactive)
REMARK    1  A    between atoms: N_2  and  C_4
REMARK    2  A    between atoms: C_7  and  C_8
REMARK    3  A    between atoms: C_11  and  O_12
REMARK    4  A    between atoms: O_12  and  C_13
REMARK    5  A    between atoms: C_15  and  C_16
REMARK    6  A    between atoms: C_16  and  O_17
REMARK    7  A    between atoms: C_18  and  O_19
REMARK    8  A    between atoms: C_20  and  O_21
REMARK    9  A    between atoms: C_22  and  O_23
REMARK                            x       y       z     vdW  Elec       q    Type
REMARK                         _______ _______ _______ _____ _____    ______ ____
ROOT
ATOM      1  C   UNL     1       1.174   9.393  20.132  0.00  0.00    +0.000 A 
ATOM      2  C   UNL     1       1.478   9.456  18.757  0.00  0.00    +0.000 A 
ATOM      3  C   UNL     1       2.060   8.365  18.063  0.00  0.00    +0.000 A 
ATOM      4  C   UNL     1       2.253   7.144  18.701  0.00  0.00    +0.000 A 
ATOM      5  C   UNL     1       1.781   7.024  20.011  0.00  0.00    +0.000 A 
ATOM      6 CL   UNL     1       1.455   5.476  20.710  0.00  0.00    +0.000 Cl
ATOM      7  C   UNL     1       1.404   8.152  20.734  0.00  0.00    +0.000 A 
ENDROOT
BRANCH   1  11
ATOM      8  C   UNL     1      -0.703  12.485  22.524  0.00  0.00    +0.000 A 
ATOM      9  C   UNL     1      -0.935  11.142  22.787  0.00  0.00    +0.000 A 
ATOM     10  C   UNL     1      -0.330  10.176  21.985  0.00  0.00    +0.000 A 
ATOM     11  C   UNL     1       0.549  10.490  20.920  0.00  0.00    +0.000 A 
ATOM     12  C   UNL     1       0.770  11.863  20.682  0.00  0.00    +0.000 A 
ATOM     13  C   UNL     1       0.140  12.855  21.463  0.00  0.00    +0.000 A 
BRANCH   8  15
ATOM     14  O   UNL     1      -2.535  13.312  23.680  0.00  0.00    +0.000 OA
ATOM     15  N   UNL     1      -1.355  13.504  23.371  0.00  0.00    +0.000 N 
ATOM     16  O   UNL     1      -0.670  14.470  23.721  0.00  0.00    +0.000 OA
ENDBRANCH   8  15
ENDBRANCH   1  11
BRANCH   4  17
ATOM     17  O   UNL     1       2.887   6.027  18.200  0.00  0.00    +0.000 OA
BRANCH  17  18
ATOM     18  C   UNL     1       4.217   5.755  18.618  0.00  0.00    +0.000 C 
ATOM     19  O   UNL     1       4.328   4.753  19.641  0.00  0.00    +0.000 OA
ATOM     20  C   UNL     1       3.921   3.434  19.256  0.00  0.00    +0.000 C 
ATOM     21  C   UNL     1       4.713   2.899  18.057  0.00  0.00    +0.000 C 
ATOM     22  C   UNL     1       4.775   3.908  16.908  0.00  0.00    +0.000 C 
ATOM     23  C   UNL     1       5.073   5.335  17.386  0.00  0.00    +0.000 C 
BRANCH  21  24
ATOM     24  O   UNL     1       4.141   1.679  17.547  0.00  0.00    +0.000 OA
ATOM     25  H   UNL     1       4.566   0.923  17.994  0.00  0.00    +0.000 HD
ENDBRANCH  21  24
BRANCH  22  26
ATOM     26  O   UNL     1       5.826   3.496  16.006  0.00  0.00    +0.000 OA
ATOM     27  H   UNL     1       6.138   2.622  16.320  0.00  0.00    +0.000 HD
ENDBRANCH  22  26
BRANCH  23  28
ATOM     28  O   UNL     1       6.465   5.427  17.756  0.00  0.00    +0.000 OA
ATOM     29  H   UNL     1       6.957   4.926  17.074  0.00  0.00    +0.000 HD
ENDBRANCH  23  28
BRANCH  20  30
ATOM     30  C   UNL     1       4.147   2.536  20.482  0.00  0.00    +0.000 C 
BRANCH  30  31
ATOM     31  O   UNL     1       5.225   1.624  20.253  0.00  0.00    +0.000 OA
ATOM     32  H   UNL     1       5.622   1.452  21.129  0.00  0.00    +0.000 HD
ENDBRANCH  30  31
ENDBRANCH  20  30
ENDBRANCH  17  18
ENDBRANCH   4  17
TORSDOF 9
ENDMDL
MODEL 8
REMARK VINA RESULT:      -7.6      1.549      2.942
REMARK  Name = 
REMARK  9 active torsions:
REMARK  status: ('A' for Active; 'I' for Inactive)
REMARK    1  A    between atoms: N_2  and  C_4
REMARK    2  A    between atoms: C_7  and  C_8
REMARK    3  A    between atoms: C_11  and  O_12
REMARK    4  A    between atoms: O_12  and  C_13
REMARK    5  A    between atoms: C_15  and  C_16
REMARK    6  A    between atoms: C_16  and  O_17
REMARK    7  A    between atoms: C_18  and  O_19
REMARK    8  A    between atoms: C_20  and  O_21
REMARK    9  A    between atoms: C_22  and  O_23
REMARK                            x       y       z     vdW  Elec       q    Type
REMARK                         _______ _______ _______ _____ _____    ______ ____
ROOT
ATOM      1  C   UNL     1       1.226   8.180  20.372  0.00  0.00    +0.000 A 
ATOM      2  C   UNL     1       1.508   6.874  20.818  0.00  0.00    +0.000 A 
ATOM      3  C   UNL     1       2.189   5.931  20.008  0.00  0.00    +0.000 A 
ATOM      4  C   UNL     1       2.702   6.303  18.771  0.00  0.00    +0.000 A 
ATOM      5  C   UNL     1       2.586   7.647  18.407  0.00  0.00    +0.000 A 
ATOM      6 CL   UNL     1       3.619   8.348  17.210  0.00  0.00    +0.000 Cl
ATOM      7  C   UNL     1       1.745   8.502  19.113  0.00  0.00    +0.000 A 
ENDROOT
BRANCH   1  11
ATOM      8  C   UNL     1      -0.775  11.325  22.589  0.00  0.00    +0.000 A 
ATOM      9  C   UNL     1      -0.142  11.595  21.383  0.00  0.00    +0.000 A 
ATOM     10  C   UNL     1       0.508  10.564  20.708  0.00  0.00    +0.000 A 
ATOM     11  C   UNL     1       0.531   9.226  21.172  0.00  0.00    +0.000 A 
ATOM     12  C   UNL     1      -0.126   8.981  22.396  0.00  0.00    +0.000 A 
ATOM     13  C   UNL     1      -0.761  10.021  23.110  0.00  0.00    +0.000 A 
BRANCH   8  15
ATOM     14  O   UNL     1      -2.638  12.259  23.607  0.00  0.00    +0.000 OA
ATOM     15  N   UNL     1      -1.453  12.425  23.304  0.00  0.00    +0.000 N 
ATOM     16  O   UNL     1      -0.782  13.430  23.559  0.00  0.00    +0.000 OA
ENDBRANCH   8  15
ENDBRANCH   1  11
BRANCH   4  17
ATOM     17  O   UNL     1       3.299   5.489  17.831  0.00  0.00    +0.000 OA
BRANCH  17  18
ATOM     18  C   UNL     1       4.303   4.579  18.257  0.00  0.00    +0.000 C 
ATOM     19  O   UNL     1       4.842   3.754  17.213  0.00  0.00    +0.000 OA
ATOM     20  C   UNL     1       5.566   4.449  16.190  0.00  0.00    +0.000 C 
ATOM     21  C   UNL     1       6.750   5.250  16.747  0.00  0.00    +0.000 C 
ATOM     22  C   UNL     1       6.352   6.113  17.946  0.00  0.00    +0.000 C 
ATOM     23  C   UNL     1       5.458   5.366  18.945  0.00  0.00    +0.000 C 
BRANCH  21  24
ATOM     24  O   UNL     1       7.320   6.115  15.746  0.00  0.00    +0.000 OA
ATOM     25  H   UNL     1       7.432   7.006  16.129  0.00  0.00    +0.000 HD
ENDBRANCH  21  24
BRANCH  22  26
ATOM     26  O   UNL     1       7.561   6.519  18.626  0.00  0.00    +0.000 OA
ATOM     27  H   UNL     1       8.302   6.068  18.173  0.00  0.00    +0.000 HD
ENDBRANCH  22  26
BRANCH  23  28
ATOM     28  O   UNL     1       6.263   4.423  19.685  0.00  0.00    +0.000 OA
ATOM     29  H   UNL     1       5.644   3.732  19.999  0.00  0.00    +0.000 HD
ENDBRANCH  23  28
BRANCH  20  30
ATOM     30  C   UNL     1       6.066   3.379  15.209  0.00  0.00    +0.000 C 
BRANCH  30  31
ATOM     31  O   UNL     1       6.396   3.961  13.946  0.00  0.00    +0.000 OA
ATOM     32  H   UNL     1       6.815   4.821  14.147  0.00  0.00    +0.000 HD
ENDBRANCH  30  31
ENDBRANCH  20  30
ENDBRANCH  17  18
ENDBRANCH   4  17
TORSDOF 9
ENDMDL
MODEL 9
REMARK VINA RESULT:      -7.5      1.871      2.709
REMARK  Name = 
REMARK  9 active torsions:
REMARK  status: ('A' for Active; 'I' for Inactive)
REMARK    1  A    between atoms: N_2  and  C_4
REMARK    2  A    between atoms: C_7  and  C_8
REMARK    3  A    between atoms: C_11  and  O_12
REMARK    4  A    between atoms: O_12  and  C_13
REMARK    5  A    between atoms: C_15  and  C_16
REMARK    6  A    between atoms: C_16  and  O_17
REMARK    7  A    between atoms: C_18  and  O_19
REMARK    8  A    between atoms: C_20  and  O_21
REMARK    9  A    between atoms: C_22  and  O_23
REMARK                            x       y       z     vdW  Elec       q    Type
REMARK                         _______ _______ _______ _____ _____    ______ ____
ROOT
ATOM      1  C   UNL     1       0.434   9.724  20.375  0.00  0.00    +0.000 A 
ATOM      2  C   UNL     1       0.890   9.811  19.045  0.00  0.00    +0.000 A 
ATOM      3  C   UNL     1       1.798   8.870  18.495  0.00  0.00    +0.000 A 
ATOM      4  C   UNL     1       2.190   7.756  19.229  0.00  0.00    +0.000 A 
ATOM      5  C   UNL     1       1.594   7.570  20.480  0.00  0.00    +0.000 A 
ATOM      6 CL   UNL     1       1.556   6.015  21.235  0.00  0.00    +0.000 Cl
ATOM      7  C   UNL     1       0.871   8.597  21.079  0.00  0.00    +0.000 A 
ENDROOT
BRANCH   1  11
ATOM      8  C   UNL     1      -2.325  12.412  22.367  0.00  0.00    +0.000 A 
ATOM      9  C   UNL     1      -1.591  11.481  23.089  0.00  0.00    +0.000 A 
ATOM     10  C   UNL     1      -0.729  10.620  22.413  0.00  0.00    +0.000 A 
ATOM     11  C   UNL     1      -0.529  10.664  21.012  0.00  0.00    +0.000 A 
ATOM     12  C   UNL     1      -1.283  11.624  20.306  0.00  0.00    +0.000 A 
ATOM     13  C   UNL     1      -2.187  12.481  20.971  0.00  0.00    +0.000 A 
BRANCH   8  15
ATOM     14  O   UNL     1      -3.322  14.480  22.693  0.00  0.00    +0.000 OA
ATOM     15  N   UNL     1      -3.245  13.314  23.089  0.00  0.00    +0.000 N 
ATOM     16  O   UNL     1      -3.882  12.833  24.031  0.00  0.00    +0.000 OA
ENDBRANCH   8  15
ENDBRANCH   1  11
BRANCH   4  17
ATOM     17  O   UNL     1       3.129   6.810  18.879  0.00  0.00    +0.000 OA
BRANCH  17  18
ATOM     18  C   UNL     1       2.848   5.940  17.791  0.00  0.00    +0.000 C 
ATOM     19  O   UNL     1       3.999   5.548  17.027  0.00  0.00    +0.000 OA
ATOM     20  C   UNL     1       4.961   4.751  17.730  0.00  0.00    +0.000 C 
ATOM     21  C   UNL     1       4.361   3.453  18.282  0.00  0.00    +0.000 C 
ATOM     22  C   UNL     1       3.057   3.697  19.044  0.00  0.00    +0.000 C 
ATOM     23  C   UNL     1       2.118   4.670  18.318  0.00  0.00    +0.000 C 
BRANCH  21  24
ATOM     24  O   UNL     1       5.277   2.783  19.170  0.00  0.00    +0.000 OA
ATOM     25  H   UNL     1       4.919   1.901  19.381  0.00  0.00    +0.000 HD
ENDBRANCH  21  24
BRANCH  22  26
ATOM     26  O   UNL     1       2.380   2.428  19.191  0.00  0.00    +0.000 OA
ATOM     27  H   UNL     1       2.617   2.086  20.077  0.00  0.00    +0.000 HD
ENDBRANCH  22  26
BRANCH  23  28
ATOM     28  O   UNL     1       1.521   3.996  17.190  0.00  0.00    +0.000 OA
ATOM     29  H   UNL     1       0.568   3.914  17.400  0.00  0.00    +0.000 HD
ENDBRANCH  23  28
BRANCH  20  30
ATOM     30  C   UNL     1       6.077   4.433  16.723  0.00  0.00    +0.000 C 
BRANCH  30  31
ATOM     31  O   UNL     1       5.877   3.145  16.133  0.00  0.00    +0.000 OA
ATOM     32  H   UNL     1       6.549   3.065  15.429  0.00  0.00    +0.000 HD
ENDBRANCH  30  31
ENDBRANCH  20  30
ENDBRANCH  17  18
ENDBRANCH   4  17
TORSDOF 9
ENDMDL
