MODEL 1
REMARK VINA RESULT:      -6.9      0.000      0.000
REMARK  Name = 
REMARK  2 active torsions:
REMARK  status: ('A' for Active; 'I' for Inactive)
REMARK    1  A    between atoms: C_2  and  C_4
REMARK    2  A    between atoms: C_4  and  C_5
REMARK                            x       y       z     vdW  Elec       q    Type
REMARK                         _______ _______ _______ _____ _____    ______ ____
ROOT
ATOM      1  C   UNL     1       5.079   5.461  17.673  0.00  0.00    +0.000 C 
ATOM      2  C   UNL     1       5.565   5.141  19.106  0.00  0.00    +0.000 C 
ATOM      3  O   UNL     1       5.034   3.924  19.514  0.00  0.00    +0.000 OA
ATOM      4  C   UNL     1       3.759   3.574  19.196  0.00  0.00    +0.000 A 
ATOM      5  C   UNL     1       3.157   2.451  19.768  0.00  0.00    +0.000 A 
ATOM      6  C   UNL     1       1.848   2.110  19.409  0.00  0.00    +0.000 A 
ATOM      7  C   UNL     1       1.141   2.894  18.487  0.00  0.00    +0.000 A 
ATOM      8  C   UNL     1       1.743   4.018  17.910  0.00  0.00    +0.000 A 
ATOM      9  C   UNL     1       3.055   4.351  18.255  0.00  0.00    +0.000 A 
ATOM     10  O   UNL     1       3.690   5.402  17.673  0.00  0.00    +0.000 OA
ENDROOT
BRANCH   1  11
ATOM     11  C   UNL     1       5.610   4.440  16.636  0.00  0.00    +0.000 C 
BRANCH  11  13
ATOM     12  N   UNL     1       7.966   4.167  17.062  0.00  0.00    +0.000 NA
ATOM     13  C   UNL     1       7.057   4.642  16.284  0.00  0.00    +0.000 C 
ATOM     14  N   UNL     1       7.421   5.326  15.095  0.00  0.00    +0.000 N 
ATOM     15  H   UNL     1       8.968   4.276  16.853  0.00  0.00    +0.000 HD
ATOM     16  H   UNL     1       8.411   5.448  14.842  0.00  0.00    +0.000 HD
ATOM     17  H   UNL     1       6.696   5.683  14.456  0.00  0.00    +0.000 HD
ENDBRANCH  11  13
ENDBRANCH   1  11
TORSDOF 2
ENDMDL
MODEL 2
REMARK VINA RESULT:      -6.8      1.723      2.706
REMARK  Name = 
REMARK  2 active torsions:
REMARK  status: ('A' for Active; 'I' for Inactive)
REMARK    1  A    between atoms: C_2  and  C_4
REMARK    2  A    between atoms: C_4  and  C_5
REMARK                            x       y       z     vdW  Elec       q    Type
REMARK                         _______ _______ _______ _____ _____    ______ ____
ROOT
ATOM      1  C   UNL     1       5.521   3.976  18.552  0.00  0.00    +0.000 C 
ATOM      2  C   UNL     1       4.594   4.105  17.321  0.00  0.00    +0.000 C 
ATOM      3  O   UNL     1       3.327   4.496  17.735  0.00  0.00    +0.000 OA
ATOM      4  C   UNL     1       2.780   4.002  18.878  0.00  0.00    +0.000 A 
ATOM      5  C   UNL     1       1.439   4.234  19.193  0.00  0.00    +0.000 A 
ATOM      6  C   UNL     1       0.910   3.724  20.384  0.00  0.00    +0.000 A 
ATOM      7  C   UNL     1       1.718   2.978  21.253  0.00  0.00    +0.000 A 
ATOM      8  C   UNL     1       3.063   2.746  20.942  0.00  0.00    +0.000 A 
ATOM      9  C   UNL     1       3.597   3.269  19.762  0.00  0.00    +0.000 A 
ATOM     10  O   UNL     1       4.912   3.112  19.454  0.00  0.00    +0.000 OA
ENDROOT
BRANCH   1  11
ATOM     11  C   UNL     1       5.747   5.336  19.256  0.00  0.00    +0.000 C 
BRANCH  11  13
ATOM     12  N   UNL     1       7.921   5.403  20.294  0.00  0.00    +0.000 NA
ATOM     13  C   UNL     1       7.190   5.758  19.296  0.00  0.00    +0.000 C 
ATOM     14  N   UNL     1       7.749   6.518  18.236  0.00  0.00    +0.000 N 
ATOM     15  H   UNL     1       8.915   5.664  20.356  0.00  0.00    +0.000 HD
ATOM     16  H   UNL     1       8.740   6.790  18.252  0.00  0.00    +0.000 HD
ATOM     17  H   UNL     1       7.173   6.780  17.422  0.00  0.00    +0.000 HD
ENDBRANCH  11  13
ENDBRANCH   1  11
TORSDOF 2
ENDMDL
MODEL 3
REMARK VINA RESULT:      -6.8      0.885      1.154
REMARK  Name = 
REMARK  2 active torsions:
REMARK  status: ('A' for Active; 'I' for Inactive)
REMARK    1  A    between atoms: C_2  and  C_4
REMARK    2  A    between atoms: C_4  and  C_5
REMARK                            x       y       z     vdW  Elec       q    Type
REMARK                         _______ _______ _______ _____ _____    ______ ____
ROOT
ATOM      1  C   UNL     1       5.287   5.013  17.076  0.00  0.00    +0.000 C 
ATOM      2  C   UNL     1       5.886   4.772  18.481  0.00  0.00    +0.000 C 
ATOM      3  O   UNL     1       5.268   3.673  19.064  0.00  0.00    +0.000 OA
ATOM      4  C   UNL     1       3.935   3.454  18.909  0.00  0.00    +0.000 A 
ATOM      5  C   UNL     1       3.276   2.472  19.652  0.00  0.00    +0.000 A 
ATOM      6  C   UNL     1       1.905   2.262  19.459  0.00  0.00    +0.000 A 
ATOM      7  C   UNL     1       1.196   3.037  18.531  0.00  0.00    +0.000 A 
ATOM      8  C   UNL     1       1.855   4.020  17.783  0.00  0.00    +0.000 A 
ATOM      9  C   UNL     1       3.225   4.220  17.963  0.00  0.00    +0.000 A 
ATOM     10  O   UNL     1       3.908   5.126  17.215  0.00  0.00    +0.000 OA
ENDROOT
BRANCH   1  11
ATOM     11  C   UNL     1       5.584   3.843  16.106  0.00  0.00    +0.000 C 
BRANCH  11  13
ATOM     12  N   UNL     1       6.335   3.602  13.829  0.00  0.00    +0.000 NA
ATOM     13  C   UNL     1       6.454   4.233  14.944  0.00  0.00    +0.000 C 
ATOM     14  N   UNL     1       7.381   5.302  15.064  0.00  0.00    +0.000 N 
ATOM     15  H   UNL     1       6.905   3.842  13.007  0.00  0.00    +0.000 HD
ATOM     16  H   UNL     1       7.962   5.584  14.263  0.00  0.00    +0.000 HD
ATOM     17  H   UNL     1       7.459   5.828  15.947  0.00  0.00    +0.000 HD
ENDBRANCH  11  13
ENDBRANCH   1  11
TORSDOF 2
ENDMDL
MODEL 4
REMARK VINA RESULT:      -6.8      1.326      1.391
REMARK  Name = 
REMARK  2 active torsions:
REMARK  status: ('A' for Active; 'I' for Inactive)
REMARK    1  A    between atoms: C_2  and  C_4
REMARK    2  A    between atoms: C_4  and  C_5
REMARK                            x       y       z     vdW  Elec       q    Type
REMARK                         _______ _______ _______ _____ _____    ______ ____
ROOT
ATOM      1  C   UNL     1       5.992   5.524  17.446  0.00  0.00    +0.000 C 
ATOM      2  C   UNL     1       6.141   5.468  18.984  0.00  0.00    +0.000 C 
ATOM      3  O   UNL     1       5.740   4.219  19.442  0.00  0.00    +0.000 OA
ATOM      4  C   UNL     1       4.671   3.582  18.896  0.00  0.00    +0.000 A 
ATOM      5  C   UNL     1       4.145   2.428  19.481  0.00  0.00    +0.000 A 
ATOM      6  C   UNL     1       3.051   1.788  18.886  0.00  0.00    +0.000 A 
ATOM      7  C   UNL     1       2.482   2.305  17.714  0.00  0.00    +0.000 A 
ATOM      8  C   UNL     1       3.008   3.461  17.124  0.00  0.00    +0.000 A 
ATOM      9  C   UNL     1       4.110   4.091  17.708  0.00  0.00    +0.000 A 
ATOM     10  O   UNL     1       4.682   5.182  17.132  0.00  0.00    +0.000 OA
ENDROOT
BRANCH   1  11
ATOM     11  C   UNL     1       6.940   4.529  16.732  0.00  0.00    +0.000 C 
BRANCH  11  13
ATOM     12  N   UNL     1       6.013   3.855  14.612  0.00  0.00    +0.000 NA
ATOM     13  C   UNL     1       6.862   4.598  15.232  0.00  0.00    +0.000 C 
ATOM     14  N   UNL     1       7.696   5.488  14.507  0.00  0.00    +0.000 N 
ATOM     15  H   UNL     1       5.922   3.877  13.588  0.00  0.00    +0.000 HD
ATOM     16  H   UNL     1       7.630   5.550  13.482  0.00  0.00    +0.000 HD
ATOM     17  H   UNL     1       8.357   6.104  15.003  0.00  0.00    +0.000 HD
ENDBRANCH  11  13
ENDBRANCH   1  11
TORSDOF 2
ENDMDL
MODEL 5
REMARK VINA RESULT:      -6.7      1.548      2.085
REMARK  Name = 
REMARK  2 active torsions:
REMARK  status: ('A' for Active; 'I' for Inactive)
REMARK    1  A    between atoms: C_2  and  C_4
REMARK    2  A    between atoms: C_4  and  C_5
REMARK                            x       y       z     vdW  Elec       q    Type
REMARK                         _______ _______ _______ _____ _____    ______ ____
ROOT
ATOM      1  C   UNL     1       4.187   5.710  17.451  0.00  0.00    +0.000 C 
ATOM      2  C   UNL     1       3.414   6.869  18.122  0.00  0.00    +0.000 C 
ATOM      3  O   UNL     1       2.816   6.411  19.289  0.00  0.00    +0.000 OA
ATOM      4  C   UNL     1       2.260   5.172  19.353  0.00  0.00    +0.000 A 
ATOM      5  C   UNL     1       1.487   4.786  20.450  0.00  0.00    +0.000 A 
ATOM      6  C   UNL     1       0.940   3.497  20.491  0.00  0.00    +0.000 A 
ATOM      7  C   UNL     1       1.160   2.603  19.435  0.00  0.00    +0.000 A 
ATOM      8  C   UNL     1       1.937   2.986  18.335  0.00  0.00    +0.000 A 
ATOM      9  C   UNL     1       2.497   4.266  18.300  0.00  0.00    +0.000 A 
ATOM     10  O   UNL     1       3.302   4.653  17.276  0.00  0.00    +0.000 OA
ENDROOT
BRANCH   1  11
ATOM     11  C   UNL     1       5.369   5.217  18.322  0.00  0.00    +0.000 C 
BRANCH  11  13
ATOM     12  N   UNL     1       6.032   3.817  16.476  0.00  0.00    +0.000 NA
ATOM     13  C   UNL     1       6.388   4.421  17.555  0.00  0.00    +0.000 C 
ATOM     14  N   UNL     1       7.735   4.356  17.999  0.00  0.00    +0.000 N 
ATOM     15  H   UNL     1       6.699   3.268  15.917  0.00  0.00    +0.000 HD
ATOM     16  H   UNL     1       8.438   3.829  17.464  0.00  0.00    +0.000 HD
ATOM     17  H   UNL     1       8.029   4.862  18.847  0.00  0.00    +0.000 HD
ENDBRANCH  11  13
ENDBRANCH   1  11
TORSDOF 2
ENDMDL
MODEL 6
REMARK VINA RESULT:      -6.7      1.775      2.589
REMARK  Name = 
REMARK  2 active torsions:
REMARK  status: ('A' for Active; 'I' for Inactive)
REMARK    1  A    between atoms: C_2  and  C_4
REMARK    2  A    between atoms: C_4  and  C_5
REMARK                            x       y       z     vdW  Elec       q    Type
REMARK                         _______ _______ _______ _____ _____    ______ ____
ROOT
ATOM      1  C   UNL     1       5.917   5.076  17.500  0.00  0.00    +0.000 C 
ATOM      2  C   UNL     1       4.980   6.155  16.908  0.00  0.00    +0.000 C 
ATOM      3  O   UNL     1       3.711   6.015  17.455  0.00  0.00    +0.000 OA
ATOM      4  C   UNL     1       3.178   4.785  17.683  0.00  0.00    +0.000 A 
ATOM      5  C   UNL     1       1.836   4.637  18.041  0.00  0.00    +0.000 A 
ATOM      6  C   UNL     1       1.321   3.358  18.284  0.00  0.00    +0.000 A 
ATOM      7  C   UNL     1       2.145   2.231  18.161  0.00  0.00    +0.000 A 
ATOM      8  C   UNL     1       3.491   2.376  17.805  0.00  0.00    +0.000 A 
ATOM      9  C   UNL     1       4.010   3.653  17.579  0.00  0.00    +0.000 A 
ATOM     10  O   UNL     1       5.325   3.836  17.287  0.00  0.00    +0.000 OA
ENDROOT
BRANCH   1  11
ATOM     11  C   UNL     1       6.129   5.259  19.023  0.00  0.00    +0.000 C 
BRANCH  11  13
ATOM     12  N   UNL     1       8.092   5.381  20.416  0.00  0.00    +0.000 NA
ATOM     13  C   UNL     1       7.476   5.825  19.376  0.00  0.00    +0.000 C 
ATOM     14  N   UNL     1       8.077   6.820  18.562  0.00  0.00    +0.000 N 
ATOM     15  H   UNL     1       9.018   5.735  20.689  0.00  0.00    +0.000 HD
ATOM     16  H   UNL     1       9.007   7.194  18.792  0.00  0.00    +0.000 HD
ATOM     17  H   UNL     1       7.599   7.158  17.714  0.00  0.00    +0.000 HD
ENDBRANCH  11  13
ENDBRANCH   1  11
TORSDOF 2
ENDMDL
MODEL 7
REMARK VINA RESULT:      -6.7      1.553      2.451
REMARK  Name = 
REMARK  2 active torsions:
REMARK  status: ('A' for Active; 'I' for Inactive)
REMARK    1  A    between atoms: C_2  and  C_4
REMARK    2  A    between atoms: C_4  and  C_5
REMARK                            x       y       z     vdW  Elec       q    Type
REMARK                         _______ _______ _______ _____ _____    ______ ____
ROOT
ATOM      1  C   UNL     1       5.690   5.415  17.026  0.00  0.00    +0.000 C 
ATOM      2  C   UNL     1       4.608   6.483  16.742  0.00  0.00    +0.000 C 
ATOM      3  O   UNL     1       3.482   6.216  17.510  0.00  0.00    +0.000 OA
ATOM      4  C   UNL     1       3.059   4.940  17.714  0.00  0.00    +0.000 A 
ATOM      5  C   UNL     1       1.824   4.678  18.311  0.00  0.00    +0.000 A 
ATOM      6  C   UNL     1       1.424   3.352  18.520  0.00  0.00    +0.000 A 
ATOM      7  C   UNL     1       2.254   2.294  18.125  0.00  0.00    +0.000 A 
ATOM      8  C   UNL     1       3.493   2.554  17.528  0.00  0.00    +0.000 A 
ATOM      9  C   UNL     1       3.901   3.876  17.334  0.00  0.00    +0.000 A 
ATOM     10  O   UNL     1       5.121   4.166  16.810  0.00  0.00    +0.000 OA
ENDROOT
BRANCH   1  11
ATOM     11  C   UNL     1       6.196   5.473  18.488  0.00  0.00    +0.000 C 
BRANCH  11  13
ATOM     12  N   UNL     1       8.107   4.198  17.761  0.00  0.00    +0.000 NA
ATOM     13  C   UNL     1       7.605   4.976  18.655  0.00  0.00    +0.000 C 
ATOM     14  N   UNL     1       8.385   5.377  19.771  0.00  0.00    +0.000 N 
ATOM     15  H   UNL     1       9.070   3.842  17.832  0.00  0.00    +0.000 HD
ATOM     16  H   UNL     1       9.355   5.054  19.876  0.00  0.00    +0.000 HD
ATOM     17  H   UNL     1       7.995   6.022  20.474  0.00  0.00    +0.000 HD
ENDBRANCH  11  13
ENDBRANCH   1  11
TORSDOF 2
ENDMDL
MODEL 8
REMARK VINA RESULT:      -6.6      1.832      2.343
REMARK  Name = 
REMARK  2 active torsions:
REMARK  status: ('A' for Active; 'I' for Inactive)
REMARK    1  A    between atoms: C_2  and  C_4
REMARK    2  A    between atoms: C_4  and  C_5
REMARK                            x       y       z     vdW  Elec       q    Type
REMARK                         _______ _______ _______ _____ _____    ______ ____
ROOT
ATOM      1  C   UNL     1       3.885   6.069  17.891  0.00  0.00    +0.000 C 
ATOM      2  C   UNL     1       2.918   7.002  18.657  0.00  0.00    +0.000 C 
ATOM      3  O   UNL     1       2.307   6.294  19.683  0.00  0.00    +0.000 OA
ATOM      4  C   UNL     1       1.919   5.003  19.509  0.00  0.00    +0.000 A 
ATOM      5  C   UNL     1       1.129   4.354  20.461  0.00  0.00    +0.000 A 
ATOM      6  C   UNL     1       0.758   3.019  20.259  0.00  0.00    +0.000 A 
ATOM      7  C   UNL     1       1.169   2.339  19.105  0.00  0.00    +0.000 A 
ATOM      8  C   UNL     1       1.962   2.986  18.150  0.00  0.00    +0.000 A 
ATOM      9  C   UNL     1       2.347   4.312  18.358  0.00  0.00    +0.000 A 
ATOM     10  O   UNL     1       3.163   4.954  17.480  0.00  0.00    +0.000 OA
ENDROOT
BRANCH   1  11
ATOM     11  C   UNL     1       5.058   5.588  18.782  0.00  0.00    +0.000 C 
BRANCH  11  13
ATOM     12  N   UNL     1       5.484   3.256  19.216  0.00  0.00    +0.000 NA
ATOM     13  C   UNL     1       5.593   4.238  18.391  0.00  0.00    +0.000 C 
ATOM     14  N   UNL     1       6.190   4.040  17.119  0.00  0.00    +0.000 N 
ATOM     15  H   UNL     1       5.830   2.315  18.985  0.00  0.00    +0.000 HD
ATOM     16  H   UNL     1       6.538   3.112  16.842  0.00  0.00    +0.000 HD
ATOM     17  H   UNL     1       6.253   4.818  16.446  0.00  0.00    +0.000 HD
ENDBRANCH  11  13
ENDBRANCH   1  11
TORSDOF 2
ENDMDL
MODEL 9
REMARK VINA RESULT:      -6.6      2.315      2.856
REMARK  Name = 
REMARK  2 active torsions:
REMARK  status: ('A' for Active; 'I' for Inactive)
REMARK    1  A    between atoms: C_2  and  C_4
REMARK    2  A    between atoms: C_4  and  C_5
REMARK                            x       y       z     vdW  Elec       q    Type
REMARK                         _______ _______ _______ _____ _____    ______ ____
ROOT
ATOM      1  C   UNL     1       7.164   5.352  16.820  0.00  0.00    +0.000 C 
ATOM      2  C   UNL     1       7.447   4.908  18.274  0.00  0.00    +0.000 C 
ATOM      3  O   UNL     1       6.246   4.621  18.912  0.00  0.00    +0.000 OA
ATOM      4  C   UNL     1       5.139   5.380  18.696  0.00  0.00    +0.000 A 
ATOM      5  C   UNL     1       3.994   5.221  19.480  0.00  0.00    +0.000 A 
ATOM      6  C   UNL     1       2.865   6.009  19.223  0.00  0.00    +0.000 A 
ATOM      7  C   UNL     1       2.886   6.956  18.190  0.00  0.00    +0.000 A 
ATOM      8  C   UNL     1       4.031   7.116  17.402  0.00  0.00    +0.000 A 
ATOM      9  C   UNL     1       5.152   6.320  17.646  0.00  0.00    +0.000 A 
ATOM     10  O   UNL     1       6.261   6.408  16.865  0.00  0.00    +0.000 OA
ENDROOT
BRANCH   1  11
ATOM     11  C   UNL     1       6.540   4.214  15.975  0.00  0.00    +0.000 C 
BRANCH  11  13
ATOM     12  N   UNL     1       6.252   3.514  13.686  0.00  0.00    +0.000 NA
ATOM     13  C   UNL     1       6.771   4.369  14.497  0.00  0.00    +0.000 C 
ATOM     14  N   UNL     1       7.532   5.457  13.996  0.00  0.00    +0.000 N 
ATOM     15  H   UNL     1       6.379   3.588  12.668  0.00  0.00    +0.000 HD
ATOM     16  H   UNL     1       7.674   5.575  12.984  0.00  0.00    +0.000 HD
ATOM     17  H   UNL     1       7.925   6.158  14.641  0.00  0.00    +0.000 HD
ENDBRANCH  11  13
ENDBRANCH   1  11
TORSDOF 2
ENDMDL
