MODEL 1
REMARK VINA RESULT:      -7.8      0.000      0.000
REMARK  Name = 
REMARK  5 active torsions:
REMARK  status: ('A' for Active; 'I' for Inactive)
REMARK    1  A    between atoms: C_10  and  C_11
REMARK    2  A    between atoms: C_16  and  O_17
REMARK    3  A    between atoms: N_18  and  N_19
REMARK    4  A    between atoms: N_19  and  S_20
REMARK    5  A    between atoms: S_20  and  C_23
REMARK                            x       y       z     vdW  Elec       q    Type
REMARK                         _______ _______ _______ _____ _____    ______ ____
ROOT
ATOM      1  O   UNL     1       4.153   2.003  16.862  0.00  0.00    +0.000 OA
ATOM      2  C   UNL     1       4.093   3.044  17.511  0.00  0.00    +0.000 C 
ATOM      3  C   UNL     1       2.993   3.315  18.454  0.00  0.00    +0.000 A 
ATOM      4  C   UNL     1       1.812   2.566  18.399  0.00  0.00    +0.000 A 
ATOM      5  C   UNL     1       0.750   2.894  19.239  0.00  0.00    +0.000 A 
ATOM      6  C   UNL     1       0.877   3.956  20.133  0.00  0.00    +0.000 A 
ATOM      7  C   UNL     1       2.060   4.701  20.177  0.00  0.00    +0.000 A 
ATOM      8  C   UNL     1       3.126   4.404  19.321  0.00  0.00    +0.000 A 
ATOM      9  N   UNL     1       4.310   5.123  19.421  0.00  0.00    +0.000 N 
ATOM     10  C   UNL     1       5.459   4.754  18.588  0.00  0.00    +0.000 C 
ATOM     11  N   UNL     1       5.010   4.083  17.372  0.00  0.00    +0.000 N 
ATOM     12  H   UNL     1       4.199   6.117  19.588  0.00  0.00    +0.000 HD
ENDROOT
BRANCH  10  13
ATOM     13  C   UNL     1       6.293   5.994  18.333  0.00  0.00    +0.000 A 
ATOM     14  C   UNL     1       7.661   6.008  18.669  0.00  0.00    +0.000 A 
ATOM     15  C   UNL     1       8.446   7.138  18.441  0.00  0.00    +0.000 A 
ATOM     16  C   UNL     1       7.881   8.274  17.871  0.00  0.00    +0.000 A 
ATOM     17  C   UNL     1       6.526   8.285  17.538  0.00  0.00    +0.000 A 
ATOM     18  C   UNL     1       5.743   7.149  17.769  0.00  0.00    +0.000 A 
BRANCH  18  19
ATOM     19  O   UNL     1       4.415   7.167  17.440  0.00  0.00    +0.000 OA
ATOM     20  H   UNL     1       4.012   6.323  17.706  0.00  0.00    +0.000 HD
ENDBRANCH  18  19
ENDBRANCH  10  13
BRANCH  11  21
ATOM     21  N   UNL     1       6.106   3.795  16.345  0.00  0.00    +0.000 NA
ATOM     22  H   UNL     1       5.825   2.942  15.836  0.00  0.00    +0.000 HD
BRANCH  21  23
ATOM     23  S   UNL     1       6.127   5.011  15.101  0.00  0.00    +0.000 S 
ATOM     24  O   UNL     1       4.887   5.752  15.193  0.00  0.00    +0.000 OA
ATOM     25  O   UNL     1       7.407   5.685  15.106  0.00  0.00    +0.000 OA
BRANCH  23  26
ATOM     26  C   UNL     1       6.058   4.028  13.625  0.00  0.00    +0.000 A 
ATOM     27  C   UNL     1       4.821   3.606  13.129  0.00  0.00    +0.000 A 
ATOM     28  C   UNL     1       4.769   2.883  11.938  0.00  0.00    +0.000 A 
ATOM     29  C   UNL     1       5.949   2.580  11.256  0.00  0.00    +0.000 A 
ATOM     30  C   UNL     1       7.183   2.999  11.760  0.00  0.00    +0.000 A 
ATOM     31  C   UNL     1       7.243   3.729  12.948  0.00  0.00    +0.000 A 
ENDBRANCH  23  26
ENDBRANCH  21  23
ENDBRANCH  11  21
TORSDOF 5
ENDMDL
MODEL 2
REMARK VINA RESULT:      -7.6      0.943      1.331
REMARK  Name = 
REMARK  5 active torsions:
REMARK  status: ('A' for Active; 'I' for Inactive)
REMARK    1  A    between atoms: C_10  and  C_11
REMARK    2  A    between atoms: C_16  and  O_17
REMARK    3  A    between atoms: N_18  and  N_19
REMARK    4  A    between atoms: N_19  and  S_20
REMARK    5  A    between atoms: S_20  and  C_23
REMARK                            x       y       z     vdW  Elec       q    Type
REMARK                         _______ _______ _______ _____ _____    ______ ____
ROOT
ATOM      1  O   UNL     1       4.104   2.224  17.102  0.00  0.00    +0.000 OA
ATOM      2  C   UNL     1       4.099   3.274  17.739  0.00  0.00    +0.000 C 
ATOM      3  C   UNL     1       3.028   3.602  18.697  0.00  0.00    +0.000 A 
ATOM      4  C   UNL     1       1.816   2.902  18.671  0.00  0.00    +0.000 A 
ATOM      5  C   UNL     1       0.783   3.283  19.525  0.00  0.00    +0.000 A 
ATOM      6  C   UNL     1       0.970   4.348  20.404  0.00  0.00    +0.000 A 
ATOM      7  C   UNL     1       2.183   5.044  20.420  0.00  0.00    +0.000 A 
ATOM      8  C   UNL     1       3.222   4.693  19.549  0.00  0.00    +0.000 A 
ATOM      9  N   UNL     1       4.436   5.363  19.620  0.00  0.00    +0.000 N 
ATOM     10  C   UNL     1       5.554   4.937  18.773  0.00  0.00    +0.000 C 
ATOM     11  N   UNL     1       5.056   4.272  17.572  0.00  0.00    +0.000 N 
ATOM     12  H   UNL     1       4.369   6.363  19.777  0.00  0.00    +0.000 HD
ENDROOT
BRANCH  10  13
ATOM     13  C   UNL     1       6.434   6.138  18.489  0.00  0.00    +0.000 A 
ATOM     14  C   UNL     1       5.938   7.215  17.729  0.00  0.00    +0.000 A 
ATOM     15  C   UNL     1       6.730   8.330  17.458  0.00  0.00    +0.000 A 
ATOM     16  C   UNL     1       8.033   8.391  17.943  0.00  0.00    +0.000 A 
ATOM     17  C   UNL     1       8.548   7.333  18.691  0.00  0.00    +0.000 A 
ATOM     18  C   UNL     1       7.749   6.217  18.959  0.00  0.00    +0.000 A 
BRANCH  18  19
ATOM     19  O   UNL     1       8.260   5.181  19.693  0.00  0.00    +0.000 OA
ATOM     20  H   UNL     1       7.526   4.643  20.035  0.00  0.00    +0.000 HD
ENDBRANCH  18  19
ENDBRANCH  10  13
BRANCH  11  21
ATOM     21  N   UNL     1       6.121   3.927  16.530  0.00  0.00    +0.000 NA
ATOM     22  H   UNL     1       5.781   3.100  16.014  0.00  0.00    +0.000 HD
BRANCH  21  23
ATOM     23  S   UNL     1       6.209   5.155  15.301  0.00  0.00    +0.000 S 
ATOM     24  O   UNL     1       5.020   5.971  15.414  0.00  0.00    +0.000 OA
ATOM     25  O   UNL     1       7.529   5.746  15.303  0.00  0.00    +0.000 OA
BRANCH  23  26
ATOM     26  C   UNL     1       6.066   4.198  13.814  0.00  0.00    +0.000 A 
ATOM     27  C   UNL     1       4.817   3.706  13.422  0.00  0.00    +0.000 A 
ATOM     28  C   UNL     1       4.701   3.004  12.224  0.00  0.00    +0.000 A 
ATOM     29  C   UNL     1       5.829   2.790  11.430  0.00  0.00    +0.000 A 
ATOM     30  C   UNL     1       7.076   3.277  11.830  0.00  0.00    +0.000 A 
ATOM     31  C   UNL     1       7.200   3.988  13.025  0.00  0.00    +0.000 A 
ENDBRANCH  23  26
ENDBRANCH  21  23
ENDBRANCH  11  21
TORSDOF 5
ENDMDL
MODEL 3
REMARK VINA RESULT:      -7.6      2.910      7.386
REMARK  Name = 
REMARK  5 active torsions:
REMARK  status: ('A' for Active; 'I' for Inactive)
REMARK    1  A    between atoms: C_10  and  C_11
REMARK    2  A    between atoms: C_16  and  O_17
REMARK    3  A    between atoms: N_18  and  N_19
REMARK    4  A    between atoms: N_19  and  S_20
REMARK    5  A    between atoms: S_20  and  C_23
REMARK                            x       y       z     vdW  Elec       q    Type
REMARK                         _______ _______ _______ _____ _____    ______ ____
ROOT
ATOM      1  O   UNL     1       5.510   7.575  17.106  0.00  0.00    +0.000 OA
ATOM      2  C   UNL     1       5.106   6.415  17.088  0.00  0.00    +0.000 C 
ATOM      3  C   UNL     1       5.607   5.428  16.114  0.00  0.00    +0.000 A 
ATOM      4  C   UNL     1       6.298   5.848  14.973  0.00  0.00    +0.000 A 
ATOM      5  C   UNL     1       6.687   4.908  14.020  0.00  0.00    +0.000 A 
ATOM      6  C   UNL     1       6.396   3.560  14.219  0.00  0.00    +0.000 A 
ATOM      7  C   UNL     1       5.701   3.151  15.362  0.00  0.00    +0.000 A 
ATOM      8  C   UNL     1       5.277   4.084  16.315  0.00  0.00    +0.000 A 
ATOM      9  N   UNL     1       4.637   3.649  17.468  0.00  0.00    +0.000 N 
ATOM     10  C   UNL     1       4.274   4.615  18.509  0.00  0.00    +0.000 C 
ATOM     11  N   UNL     1       4.102   5.945  17.930  0.00  0.00    +0.000 N 
ATOM     12  H   UNL     1       3.978   2.889  17.336  0.00  0.00    +0.000 HD
ENDROOT
BRANCH  10  13
ATOM     13  C   UNL     1       3.051   4.102  19.244  0.00  0.00    +0.000 A 
ATOM     14  C   UNL     1       3.064   3.994  20.648  0.00  0.00    +0.000 A 
ATOM     15  C   UNL     1       1.949   3.526  21.344  0.00  0.00    +0.000 A 
ATOM     16  C   UNL     1       0.800   3.160  20.650  0.00  0.00    +0.000 A 
ATOM     17  C   UNL     1       0.768   3.252  19.259  0.00  0.00    +0.000 A 
ATOM     18  C   UNL     1       1.889   3.722  18.566  0.00  0.00    +0.000 A 
BRANCH  18  19
ATOM     19  O   UNL     1       1.851   3.809  17.201  0.00  0.00    +0.000 OA
ATOM     20  H   UNL     1       2.343   3.060  16.823  0.00  0.00    +0.000 HD
ENDBRANCH  18  19
ENDBRANCH  10  13
BRANCH  11  21
ATOM     21  N   UNL     1       3.562   7.007  18.889  0.00  0.00    +0.000 NA
ATOM     22  H   UNL     1       4.285   7.740  18.963  0.00  0.00    +0.000 HD
BRANCH  21  23
ATOM     23  S   UNL     1       2.212   7.850  18.187  0.00  0.00    +0.000 S 
ATOM     24  O   UNL     1       2.742   8.925  17.376  0.00  0.00    +0.000 OA
ATOM     25  O   UNL     1       1.273   6.893  17.645  0.00  0.00    +0.000 OA
BRANCH  23  26
ATOM     26  C   UNL     1       1.452   8.579  19.615  0.00  0.00    +0.000 A 
ATOM     27  C   UNL     1       0.732   9.771  19.487  0.00  0.00    +0.000 A 
ATOM     28  C   UNL     1       0.089  10.308  20.601  0.00  0.00    +0.000 A 
ATOM     29  C   UNL     1       0.173   9.659  21.833  0.00  0.00    +0.000 A 
ATOM     30  C   UNL     1       0.899   8.471  21.957  0.00  0.00    +0.000 A 
ATOM     31  C   UNL     1       1.540   7.923  20.846  0.00  0.00    +0.000 A 
ENDBRANCH  23  26
ENDBRANCH  21  23
ENDBRANCH  11  21
TORSDOF 5
ENDMDL
MODEL 4
REMARK VINA RESULT:      -7.4      3.060      7.121
REMARK  Name = 
REMARK  5 active torsions:
REMARK  status: ('A' for Active; 'I' for Inactive)
REMARK    1  A    between atoms: C_10  and  C_11
REMARK    2  A    between atoms: C_16  and  O_17
REMARK    3  A    between atoms: N_18  and  N_19
REMARK    4  A    between atoms: N_19  and  S_20
REMARK    5  A    between atoms: S_20  and  C_23
REMARK                            x       y       z     vdW  Elec       q    Type
REMARK                         _______ _______ _______ _____ _____    ______ ____
ROOT
ATOM      1  O   UNL     1       5.494   7.334  17.533  0.00  0.00    +0.000 OA
ATOM      2  C   UNL     1       5.133   6.167  17.406  0.00  0.00    +0.000 C 
ATOM      3  C   UNL     1       5.591   5.325  16.285  0.00  0.00    +0.000 A 
ATOM      4  C   UNL     1       6.171   5.908  15.153  0.00  0.00    +0.000 A 
ATOM      5  C   UNL     1       6.517   5.106  14.068  0.00  0.00    +0.000 A 
ATOM      6  C   UNL     1       6.294   3.731  14.124  0.00  0.00    +0.000 A 
ATOM      7  C   UNL     1       5.709   3.159  15.259  0.00  0.00    +0.000 A 
ATOM      8  C   UNL     1       5.329   3.953  16.347  0.00  0.00    +0.000 A 
ATOM      9  N   UNL     1       4.800   3.356  17.484  0.00  0.00    +0.000 N 
ATOM     10  C   UNL     1       4.486   4.176  18.659  0.00  0.00    +0.000 C 
ATOM     11  N   UNL     1       4.218   5.555  18.258  0.00  0.00    +0.000 N 
ATOM     12  H   UNL     1       4.162   2.587  17.311  0.00  0.00    +0.000 HD
ENDROOT
BRANCH  10  13
ATOM     13  C   UNL     1       3.347   3.524  19.416  0.00  0.00    +0.000 A 
ATOM     14  C   UNL     1       3.440   3.337  20.809  0.00  0.00    +0.000 A 
ATOM     15  C   UNL     1       2.403   2.740  21.526  0.00  0.00    +0.000 A 
ATOM     16  C   UNL     1       1.252   2.322  20.865  0.00  0.00    +0.000 A 
ATOM     17  C   UNL     1       1.142   2.490  19.484  0.00  0.00    +0.000 A 
ATOM     18  C   UNL     1       2.185   3.089  18.771  0.00  0.00    +0.000 A 
BRANCH  18  19
ATOM     19  O   UNL     1       2.071   3.251  17.417  0.00  0.00    +0.000 OA
ATOM     20  H   UNL     1       2.779   3.843  17.108  0.00  0.00    +0.000 HD
ENDBRANCH  18  19
ENDBRANCH  10  13
BRANCH  11  21
ATOM     21  N   UNL     1       3.718   6.471  19.376  0.00  0.00    +0.000 NA
ATOM     22  H   UNL     1       4.046   7.424  19.153  0.00  0.00    +0.000 HD
BRANCH  21  23
ATOM     23  S   UNL     1       1.986   6.625  19.326  0.00  0.00    +0.000 S 
ATOM     24  O   UNL     1       1.530   6.027  18.089  0.00  0.00    +0.000 OA
ATOM     25  O   UNL     1       1.429   6.230  20.601  0.00  0.00    +0.000 OA
BRANCH  23  26
ATOM     26  C   UNL     1       1.777   8.381  19.184  0.00  0.00    +0.000 A 
ATOM     27  C   UNL     1       2.231   9.044  18.039  0.00  0.00    +0.000 A 
ATOM     28  C   UNL     1       2.012  10.414  17.908  0.00  0.00    +0.000 A 
ATOM     29  C   UNL     1       1.351  11.114  18.919  0.00  0.00    +0.000 A 
ATOM     30  C   UNL     1       0.905  10.448  20.063  0.00  0.00    +0.000 A 
ATOM     31  C   UNL     1       1.114   9.074  20.200  0.00  0.00    +0.000 A 
ENDBRANCH  23  26
ENDBRANCH  21  23
ENDBRANCH  11  21
TORSDOF 5
ENDMDL
MODEL 5
REMARK VINA RESULT:      -7.2      2.950      7.433
REMARK  Name = 
REMARK  5 active torsions:
REMARK  status: ('A' for Active; 'I' for Inactive)
REMARK    1  A    between atoms: C_10  and  C_11
REMARK    2  A    between atoms: C_16  and  O_17
REMARK    3  A    between atoms: N_18  and  N_19
REMARK    4  A    between atoms: N_19  and  S_20
REMARK    5  A    between atoms: S_20  and  C_23
REMARK                            x       y       z     vdW  Elec       q    Type
REMARK                         _______ _______ _______ _____ _____    ______ ____
ROOT
ATOM      1  O   UNL     1       5.665   7.505  17.152  0.00  0.00    +0.000 OA
ATOM      2  C   UNL     1       5.204   6.373  17.023  0.00  0.00    +0.000 C 
ATOM      3  C   UNL     1       5.719   5.431  16.013  0.00  0.00    +0.000 A 
ATOM      4  C   UNL     1       6.505   5.891  14.951  0.00  0.00    +0.000 A 
ATOM      5  C   UNL     1       6.908   5.000  13.958  0.00  0.00    +0.000 A 
ATOM      6  C   UNL     1       6.536   3.660  14.038  0.00  0.00    +0.000 A 
ATOM      7  C   UNL     1       5.747   3.211  15.102  0.00  0.00    +0.000 A 
ATOM      8  C   UNL     1       5.308   4.096  16.092  0.00  0.00    +0.000 A 
ATOM      9  N   UNL     1       4.571   3.617  17.167  0.00  0.00    +0.000 N 
ATOM     10  C   UNL     1       4.188   4.527  18.252  0.00  0.00    +0.000 C 
ATOM     11  N   UNL     1       4.123   5.902  17.762  0.00  0.00    +0.000 N 
ATOM     12  H   UNL     1       3.885   2.907  16.938  0.00  0.00    +0.000 HD
ENDROOT
BRANCH  10  13
ATOM     13  C   UNL     1       2.895   4.032  18.868  0.00  0.00    +0.000 A 
ATOM     14  C   UNL     1       1.991   3.273  18.101  0.00  0.00    +0.000 A 
ATOM     15  C   UNL     1       0.796   2.806  18.650  0.00  0.00    +0.000 A 
ATOM     16  C   UNL     1       0.484   3.089  19.975  0.00  0.00    +0.000 A 
ATOM     17  C   UNL     1       1.360   3.846  20.752  0.00  0.00    +0.000 A 
ATOM     18  C   UNL     1       2.557   4.311  20.196  0.00  0.00    +0.000 A 
BRANCH  18  19
ATOM     19  O   UNL     1       3.413   5.054  20.963  0.00  0.00    +0.000 OA
ATOM     20  H   UNL     1       3.966   5.602  20.380  0.00  0.00    +0.000 HD
ENDBRANCH  18  19
ENDBRANCH  10  13
BRANCH  11  21
ATOM     21  N   UNL     1       3.576   6.922  18.761  0.00  0.00    +0.000 NA
ATOM     22  H   UNL     1       4.293   7.658  18.864  0.00  0.00    +0.000 HD
BRANCH  21  23
ATOM     23  S   UNL     1       2.218   7.780  18.092  0.00  0.00    +0.000 S 
ATOM     24  O   UNL     1       2.740   8.809  17.218  0.00  0.00    +0.000 OA
ATOM     25  O   UNL     1       1.228   6.833  17.630  0.00  0.00    +0.000 OA
BRANCH  23  26
ATOM     26  C   UNL     1       1.548   8.582  19.526  0.00  0.00    +0.000 A 
ATOM     27  C   UNL     1       0.948   9.840  19.403  0.00  0.00    +0.000 A 
ATOM     28  C   UNL     1       0.373  10.438  20.522  0.00  0.00    +0.000 A 
ATOM     29  C   UNL     1       0.404   9.785  21.755  0.00  0.00    +0.000 A 
ATOM     30  C   UNL     1       1.009   8.531  21.874  0.00  0.00    +0.000 A 
ATOM     31  C   UNL     1       1.583   7.921  20.757  0.00  0.00    +0.000 A 
ENDBRANCH  23  26
ENDBRANCH  21  23
ENDBRANCH  11  21
TORSDOF 5
ENDMDL
MODEL 6
REMARK VINA RESULT:      -7.2      9.574     12.309
REMARK  Name = 
REMARK  5 active torsions:
REMARK  status: ('A' for Active; 'I' for Inactive)
REMARK    1  A    between atoms: C_10  and  C_11
REMARK    2  A    between atoms: C_16  and  O_17
REMARK    3  A    between atoms: N_18  and  N_19
REMARK    4  A    between atoms: N_19  and  S_20
REMARK    5  A    between atoms: S_20  and  C_23
REMARK                            x       y       z     vdW  Elec       q    Type
REMARK                         _______ _______ _______ _____ _____    ______ ____
ROOT
ATOM      1  O   UNL     1      -0.375  10.726  18.087  0.00  0.00    +0.000 OA
ATOM      2  C   UNL     1      -0.842  10.940  19.203  0.00  0.00    +0.000 C 
ATOM      3  C   UNL     1      -0.263  10.341  20.420  0.00  0.00    +0.000 A 
ATOM      4  C   UNL     1       0.613   9.255  20.326  0.00  0.00    +0.000 A 
ATOM      5  C   UNL     1       1.081   8.647  21.490  0.00  0.00    +0.000 A 
ATOM      6  C   UNL     1       0.683   9.133  22.733  0.00  0.00    +0.000 A 
ATOM      7  C   UNL     1      -0.197  10.217  22.815  0.00  0.00    +0.000 A 
ATOM      8  C   UNL     1      -0.700  10.822  21.658  0.00  0.00    +0.000 A 
ATOM      9  N   UNL     1      -1.530  11.931  21.765  0.00  0.00    +0.000 N 
ATOM     10  C   UNL     1      -1.983  12.621  20.553  0.00  0.00    +0.000 C 
ATOM     11  N   UNL     1      -1.986  11.702  19.417  0.00  0.00    +0.000 N 
ATOM     12  H   UNL     1      -2.206  11.893  22.519  0.00  0.00    +0.000 HD
ENDROOT
BRANCH  10  13
ATOM     13  C   UNL     1      -3.330  13.258  20.832  0.00  0.00    +0.000 A 
ATOM     14  C   UNL     1      -4.375  12.491  21.382  0.00  0.00    +0.000 A 
ATOM     15  C   UNL     1      -5.621  13.058  21.647  0.00  0.00    +0.000 A 
ATOM     16  C   UNL     1      -5.846  14.403  21.371  0.00  0.00    +0.000 A 
ATOM     17  C   UNL     1      -4.828  15.180  20.818  0.00  0.00    +0.000 A 
ATOM     18  C   UNL     1      -3.580  14.606  20.553  0.00  0.00    +0.000 A 
BRANCH  18  19
ATOM     19  O   UNL     1      -2.585  15.373  20.011  0.00  0.00    +0.000 OA
ATOM     20  H   UNL     1      -2.956  16.233  19.751  0.00  0.00    +0.000 HD
ENDBRANCH  18  19
ENDBRANCH  10  13
BRANCH  11  21
ATOM     21  N   UNL     1      -2.596  12.262  18.131  0.00  0.00    +0.000 NA
ATOM     22  H   UNL     1      -1.824  12.373  17.455  0.00  0.00    +0.000 HD
BRANCH  21  23
ATOM     23  S   UNL     1      -3.626  11.085  17.368  0.00  0.00    +0.000 S 
ATOM     24  O   UNL     1      -3.525  11.279  15.937  0.00  0.00    +0.000 OA
ATOM     25  O   UNL     1      -3.403   9.788  17.967  0.00  0.00    +0.000 OA
BRANCH  23  26
ATOM     26  C   UNL     1      -5.238  11.625  17.872  0.00  0.00    +0.000 A 
ATOM     27  C   UNL     1      -6.041  10.785  18.651  0.00  0.00    +0.000 A 
ATOM     28  C   UNL     1      -7.283  11.238  19.092  0.00  0.00    +0.000 A 
ATOM     29  C   UNL     1      -7.720  12.518  18.749  0.00  0.00    +0.000 A 
ATOM     30  C   UNL     1      -6.917  13.351  17.965  0.00  0.00    +0.000 A 
ATOM     31  C   UNL     1      -5.669  12.909  17.524  0.00  0.00    +0.000 A 
ENDBRANCH  23  26
ENDBRANCH  21  23
ENDBRANCH  11  21
TORSDOF 5
ENDMDL
MODEL 7
REMARK VINA RESULT:      -7.1      6.699      9.821
REMARK  Name = 
REMARK  5 active torsions:
REMARK  status: ('A' for Active; 'I' for Inactive)
REMARK    1  A    between atoms: C_10  and  C_11
REMARK    2  A    between atoms: C_16  and  O_17
REMARK    3  A    between atoms: N_18  and  N_19
REMARK    4  A    between atoms: N_19  and  S_20
REMARK    5  A    between atoms: S_20  and  C_23
REMARK                            x       y       z     vdW  Elec       q    Type
REMARK                         _______ _______ _______ _____ _____    ______ ____
ROOT
ATOM      1  O   UNL     1       0.978   6.760  21.168  0.00  0.00    +0.000 OA
ATOM      2  C   UNL     1       1.401   7.489  20.274  0.00  0.00    +0.000 C 
ATOM      3  C   UNL     1       2.467   7.055  19.352  0.00  0.00    +0.000 A 
ATOM      4  C   UNL     1       3.264   5.948  19.662  0.00  0.00    +0.000 A 
ATOM      5  C   UNL     1       4.322   5.606  18.821  0.00  0.00    +0.000 A 
ATOM      6  C   UNL     1       4.568   6.362  17.676  0.00  0.00    +0.000 A 
ATOM      7  C   UNL     1       3.767   7.469  17.378  0.00  0.00    +0.000 A 
ATOM      8  C   UNL     1       2.719   7.845  18.226  0.00  0.00    +0.000 A 
ATOM      9  N   UNL     1       1.904   8.915  17.881  0.00  0.00    +0.000 N 
ATOM     10  C   UNL     1       0.750   9.252  18.720  0.00  0.00    +0.000 C 
ATOM     11  N   UNL     1       0.970   8.799  20.091  0.00  0.00    +0.000 N 
ATOM     12  H   UNL     1       2.383   9.707  17.468  0.00  0.00    +0.000 HD
ENDROOT
BRANCH  10  13
ATOM     13  C   UNL     1       0.479  10.739  18.601  0.00  0.00    +0.000 A 
ATOM     14  C   UNL     1       1.551  11.652  18.565  0.00  0.00    +0.000 A 
ATOM     15  C   UNL     1       1.324  13.024  18.453  0.00  0.00    +0.000 A 
ATOM     16  C   UNL     1       0.022  13.508  18.373  0.00  0.00    +0.000 A 
ATOM     17  C   UNL     1      -1.055  12.623  18.415  0.00  0.00    +0.000 A 
ATOM     18  C   UNL     1      -0.821  11.248  18.527  0.00  0.00    +0.000 A 
BRANCH  18  19
ATOM     19  O   UNL     1      -1.882  10.384  18.567  0.00  0.00    +0.000 OA
ATOM     20  H   UNL     1      -1.917   9.888  17.732  0.00  0.00    +0.000 HD
ENDBRANCH  18  19
ENDBRANCH  10  13
BRANCH  11  21
ATOM     21  N   UNL     1      -0.093   9.238  21.099  0.00  0.00    +0.000 NA
ATOM     22  H   UNL     1      -0.366   8.398  21.634  0.00  0.00    +0.000 HD
BRANCH  21  23
ATOM     23  S   UNL     1       0.593  10.277  22.314  0.00  0.00    +0.000 S 
ATOM     24  O   UNL     1       0.615   9.539  23.559  0.00  0.00    +0.000 OA
ATOM     25  O   UNL     1       1.786  10.907  21.793  0.00  0.00    +0.000 OA
BRANCH  23  26
ATOM     26  C   UNL     1      -0.644  11.540  22.459  0.00  0.00    +0.000 A 
ATOM     27  C   UNL     1      -1.853  11.258  23.106  0.00  0.00    +0.000 A 
ATOM     28  C   UNL     1      -2.797  12.270  23.267  0.00  0.00    +0.000 A 
ATOM     29  C   UNL     1      -2.536  13.551  22.778  0.00  0.00    +0.000 A 
ATOM     30  C   UNL     1      -1.330  13.826  22.128  0.00  0.00    +0.000 A 
ATOM     31  C   UNL     1      -0.375  12.820  21.968  0.00  0.00    +0.000 A 
ENDBRANCH  23  26
ENDBRANCH  21  23
ENDBRANCH  11  21
TORSDOF 5
ENDMDL
MODEL 8
REMARK VINA RESULT:      -7.1     10.236     13.088
REMARK  Name = 
REMARK  5 active torsions:
REMARK  status: ('A' for Active; 'I' for Inactive)
REMARK    1  A    between atoms: C_10  and  C_11
REMARK    2  A    between atoms: C_16  and  O_17
REMARK    3  A    between atoms: N_18  and  N_19
REMARK    4  A    between atoms: N_19  and  S_20
REMARK    5  A    between atoms: S_20  and  C_23
REMARK                            x       y       z     vdW  Elec       q    Type
REMARK                         _______ _______ _______ _____ _____    ______ ____
ROOT
ATOM      1  O   UNL     1      -0.764  10.062  19.451  0.00  0.00    +0.000 OA
ATOM      2  C   UNL     1      -1.673  10.850  19.198  0.00  0.00    +0.000 C 
ATOM      3  C   UNL     1      -2.449  10.772  17.947  0.00  0.00    +0.000 A 
ATOM      4  C   UNL     1      -1.971  10.028  16.863  0.00  0.00    +0.000 A 
ATOM      5  C   UNL     1      -2.675  10.037  15.660  0.00  0.00    +0.000 A 
ATOM      6  C   UNL     1      -3.852  10.776  15.552  0.00  0.00    +0.000 A 
ATOM      7  C   UNL     1      -4.318  11.519  16.641  0.00  0.00    +0.000 A 
ATOM      8  C   UNL     1      -3.610  11.545  17.848  0.00  0.00    +0.000 A 
ATOM      9  N   UNL     1      -4.121  12.246  18.932  0.00  0.00    +0.000 N 
ATOM     10  C   UNL     1      -3.427  12.200  20.223  0.00  0.00    +0.000 C 
ATOM     11  N   UNL     1      -2.008  11.917  20.026  0.00  0.00    +0.000 N 
ATOM     12  H   UNL     1      -4.554  13.135  18.706  0.00  0.00    +0.000 HD
ENDROOT
BRANCH  10  13
ATOM     13  C   UNL     1      -3.700  13.491  20.969  0.00  0.00    +0.000 A 
ATOM     14  C   UNL     1      -3.256  14.719  20.441  0.00  0.00    +0.000 A 
ATOM     15  C   UNL     1      -3.498  15.918  21.110  0.00  0.00    +0.000 A 
ATOM     16  C   UNL     1      -4.189  15.914  22.317  0.00  0.00    +0.000 A 
ATOM     17  C   UNL     1      -4.631  14.708  22.862  0.00  0.00    +0.000 A 
ATOM     18  C   UNL     1      -4.386  13.508  22.187  0.00  0.00    +0.000 A 
BRANCH  18  19
ATOM     19  O   UNL     1      -4.821  12.329  22.727  0.00  0.00    +0.000 OA
ATOM     20  H   UNL     1      -4.360  12.177  23.570  0.00  0.00    +0.000 HD
ENDBRANCH  18  19
ENDBRANCH  10  13
BRANCH  11  21
ATOM     21  N   UNL     1      -1.147  12.006  21.287  0.00  0.00    +0.000 NA
ATOM     22  H   UNL     1      -0.641  11.110  21.369  0.00  0.00    +0.000 HD
BRANCH  21  23
ATOM     23  S   UNL     1       0.132  13.168  21.087  0.00  0.00    +0.000 S 
ATOM     24  O   UNL     1       1.372  12.521  21.460  0.00  0.00    +0.000 OA
ATOM     25  O   UNL     1      -0.014  13.832  19.811  0.00  0.00    +0.000 OA
BRANCH  23  26
ATOM     26  C   UNL     1      -0.253  14.358  22.344  0.00  0.00    +0.000 A 
ATOM     27  C   UNL     1       0.135  15.692  22.181  0.00  0.00    +0.000 A 
ATOM     28  C   UNL     1      -0.221  16.634  23.145  0.00  0.00    +0.000 A 
ATOM     29  C   UNL     1      -0.953  16.240  24.266  0.00  0.00    +0.000 A 
ATOM     30  C   UNL     1      -1.332  14.905  24.428  0.00  0.00    +0.000 A 
ATOM     31  C   UNL     1      -0.986  13.957  23.464  0.00  0.00    +0.000 A 
ENDBRANCH  23  26
ENDBRANCH  21  23
ENDBRANCH  11  21
TORSDOF 5
ENDMDL
MODEL 9
REMARK VINA RESULT:      -7.0      8.454     10.509
REMARK  Name = 
REMARK  5 active torsions:
REMARK  status: ('A' for Active; 'I' for Inactive)
REMARK    1  A    between atoms: C_10  and  C_11
REMARK    2  A    between atoms: C_16  and  O_17
REMARK    3  A    between atoms: N_18  and  N_19
REMARK    4  A    between atoms: N_19  and  S_20
REMARK    5  A    between atoms: S_20  and  C_23
REMARK                            x       y       z     vdW  Elec       q    Type
REMARK                         _______ _______ _______ _____ _____    ______ ____
ROOT
ATOM      1  O   UNL     1      -1.052  10.684  23.029  0.00  0.00    +0.000 OA
ATOM      2  C   UNL     1      -1.142  11.862  22.692  0.00  0.00    +0.000 C 
ATOM      3  C   UNL     1      -2.202  12.744  23.212  0.00  0.00    +0.000 A 
ATOM      4  C   UNL     1      -3.333  12.202  23.833  0.00  0.00    +0.000 A 
ATOM      5  C   UNL     1      -4.365  13.047  24.240  0.00  0.00    +0.000 A 
ATOM      6  C   UNL     1      -4.256  14.421  24.035  0.00  0.00    +0.000 A 
ATOM      7  C   UNL     1      -3.123  14.951  23.409  0.00  0.00    +0.000 A 
ATOM      8  C   UNL     1      -2.090  14.117  22.969  0.00  0.00    +0.000 A 
ATOM      9  N   UNL     1      -0.952  14.672  22.399  0.00  0.00    +0.000 N 
ATOM     10  C   UNL     1       0.170  13.806  22.021  0.00  0.00    +0.000 C 
ATOM     11  N   UNL     1      -0.304  12.451  21.750  0.00  0.00    +0.000 N 
ATOM     12  H   UNL     1      -1.117  15.458  21.781  0.00  0.00    +0.000 HD
ENDROOT
BRANCH  10  13
ATOM     13  C   UNL     1       0.906  14.443  20.859  0.00  0.00    +0.000 A 
ATOM     14  C   UNL     1       0.192  15.147  19.870  0.00  0.00    +0.000 A 
ATOM     15  C   UNL     1       0.850  15.742  18.794  0.00  0.00    +0.000 A 
ATOM     16  C   UNL     1       2.233  15.648  18.687  0.00  0.00    +0.000 A 
ATOM     17  C   UNL     1       2.960  14.949  19.651  0.00  0.00    +0.000 A 
ATOM     18  C   UNL     1       2.295  14.354  20.728  0.00  0.00    +0.000 A 
BRANCH  18  19
ATOM     19  O   UNL     1       3.014  13.669  21.670  0.00  0.00    +0.000 OA
ATOM     20  H   UNL     1       2.822  14.043  22.547  0.00  0.00    +0.000 HD
ENDBRANCH  18  19
ENDBRANCH  10  13
BRANCH  11  21
ATOM     21  N   UNL     1       0.748  11.495  21.187  0.00  0.00    +0.000 NA
ATOM     22  H   UNL     1       0.688  10.623  21.736  0.00  0.00    +0.000 HD
BRANCH  21  23
ATOM     23  S   UNL     1       0.326  10.981  19.579  0.00  0.00    +0.000 S 
ATOM     24  O   UNL     1      -1.092  10.690  19.573  0.00  0.00    +0.000 OA
ATOM     25  O   UNL     1       0.911  11.885  18.614  0.00  0.00    +0.000 OA
BRANCH  23  26
ATOM     26  C   UNL     1       1.192   9.439  19.446  0.00  0.00    +0.000 A 
ATOM     27  C   UNL     1       1.256   8.581  20.548  0.00  0.00    +0.000 A 
ATOM     28  C   UNL     1       1.889   7.346  20.421  0.00  0.00    +0.000 A 
ATOM     29  C   UNL     1       2.459   6.978  19.201  0.00  0.00    +0.000 A 
ATOM     30  C   UNL     1       2.398   7.842  18.104  0.00  0.00    +0.000 A 
ATOM     31  C   UNL     1       1.760   9.078  18.221  0.00  0.00    +0.000 A 
ENDBRANCH  23  26
ENDBRANCH  21  23
ENDBRANCH  11  21
TORSDOF 5
ENDMDL
