MODEL 1
REMARK VINA RESULT:      -8.1      0.000      0.000
REMARK  Name = 
REMARK  10 active torsions:
REMARK  status: ('A' for Active; 'I' for Inactive)
REMARK    1  A    between atoms: C_1  and  O_2
REMARK    2  A    between atoms: O_2  and  C_3
REMARK    3  A    between atoms: C_6  and  N_7
REMARK    4  A    between atoms: C_8  and  C_10
REMARK    5  A    between atoms: C_10  and  N_11
REMARK    6  A    between atoms: C_12  and  S_13
REMARK    7  A    between atoms: S_13  and  C_14
REMARK    8  A    between atoms: C_14  and  C_15
REMARK    9  A    between atoms: C_31  and  O_32
REMARK   10  A    between atoms: O_32  and  C_33
REMARK                            x       y       z     vdW  Elec       q    Type
REMARK                         _______ _______ _______ _____ _____    ______ ____
ROOT
ATOM      1  N   UNL     1       6.777   5.553  17.258  0.00  0.00    +0.000 N 
ATOM      2  C   UNL     1       5.536   5.124  17.675  0.00  0.00    +0.000 A 
ATOM      3  N   UNL     1       4.882   4.519  16.717  0.00  0.00    +0.000 NA
ATOM      4  C   UNL     1       5.679   4.620  15.605  0.00  0.00    +0.000 A 
ATOM      5  C   UNL     1       5.470   4.168  14.301  0.00  0.00    +0.000 A 
ATOM      6  C   UNL     1       6.493   4.407  13.399  0.00  0.00    +0.000 A 
ATOM      7  N   UNL     1       7.642   5.060  13.690  0.00  0.00    +0.000 NA
ATOM      8  C   UNL     1       7.833   5.539  14.938  0.00  0.00    +0.000 A 
ATOM      9  C   UNL     1       6.862   5.298  15.904  0.00  0.00    +0.000 A 
ENDROOT
BRANCH   1  10
ATOM     10  C   UNL     1       7.798   6.225  18.047  0.00  0.00    +0.000 C 
BRANCH  10  12
ATOM     11  N   UNL     1       8.644   8.387  18.895  0.00  0.00    +0.000 N 
ATOM     12  C   UNL     1       7.797   7.747  18.010  0.00  0.00    +0.000 C 
ATOM     13  O   UNL     1       7.133   8.319  17.145  0.00  0.00    +0.000 OA
ATOM     14  H   UNL     1       8.935   7.888  19.725  0.00  0.00    +0.000 HD
BRANCH  11  18
ATOM     15  C   UNL     1       9.389  12.522  19.159  0.00  0.00    +0.000 A 
ATOM     16  C   UNL     1       9.336  11.908  17.898  0.00  0.00    +0.000 A 
ATOM     17  C   UNL     1       9.119  10.536  17.775  0.00  0.00    +0.000 A 
ATOM     18  C   UNL     1       8.986   9.753  18.913  0.00  0.00    +0.000 A 
ATOM     19  C   UNL     1       9.199  10.338  20.165  0.00  0.00    +0.000 A 
ATOM     20  C   UNL     1       9.391  11.720  20.307  0.00  0.00    +0.000 A 
BRANCH  15  22
ATOM     21  C   UNL     1       8.681  14.596  18.298  0.00  0.00    +0.000 C 
ATOM     22  O   UNL     1       9.452  13.885  19.270  0.00  0.00    +0.000 OA
ENDBRANCH  15  22
BRANCH  20  23
ATOM     23  O   UNL     1       9.523  12.084  21.620  0.00  0.00    +0.000 OA
ATOM     24  C   UNL     1       8.428  11.891  22.500  0.00  0.00    +0.000 C 
ENDBRANCH  20  23
ENDBRANCH  11  18
ENDBRANCH  10  12
ENDBRANCH   1  10
BRANCH   2  25
ATOM     25  S   UNL     1       4.929   5.448  19.266  0.00  0.00    +0.000 S 
BRANCH  25  26
ATOM     26  C   UNL     1       4.588   3.781  19.903  0.00  0.00    +0.000 C 
BRANCH  26  27
ATOM     27  C   UNL     1       3.135   3.413  19.714  0.00  0.00    +0.000 A 
ATOM     28  C   UNL     1       2.156   4.078  20.463  0.00  0.00    +0.000 A 
ATOM     29  F   UNL     1       2.514   5.044  21.320  0.00  0.00    +0.000 F 
ATOM     30  C   UNL     1       0.799   3.775  20.348  0.00  0.00    +0.000 A 
ATOM     31  C   UNL     1       0.386   2.779  19.468  0.00  0.00    +0.000 A 
ATOM     32  C   UNL     1       1.338   2.094  18.717  0.00  0.00    +0.000 A 
ATOM     33  C   UNL     1       2.701   2.403  18.841  0.00  0.00    +0.000 A 
ATOM     34 CL   UNL     1       3.810   1.491  17.877  0.00  0.00    +0.000 Cl
ENDBRANCH  26  27
ENDBRANCH  25  26
ENDBRANCH   2  25
TORSDOF 8
ENDMDL
MODEL 2
REMARK VINA RESULT:      -7.9      5.252      6.085
REMARK  Name = 
REMARK  10 active torsions:
REMARK  status: ('A' for Active; 'I' for Inactive)
REMARK    1  A    between atoms: C_1  and  O_2
REMARK    2  A    between atoms: O_2  and  C_3
REMARK    3  A    between atoms: C_6  and  N_7
REMARK    4  A    between atoms: C_8  and  C_10
REMARK    5  A    between atoms: C_10  and  N_11
REMARK    6  A    between atoms: C_12  and  S_13
REMARK    7  A    between atoms: S_13  and  C_14
REMARK    8  A    between atoms: C_14  and  C_15
REMARK    9  A    between atoms: C_31  and  O_32
REMARK   10  A    between atoms: O_32  and  C_33
REMARK                            x       y       z     vdW  Elec       q    Type
REMARK                         _______ _______ _______ _____ _____    ______ ____
ROOT
ATOM      1  N   UNL     1       3.146   6.688  18.263  0.00  0.00    +0.000 N 
ATOM      2  C   UNL     1       3.226   6.078  19.495  0.00  0.00    +0.000 A 
ATOM      3  N   UNL     1       4.393   5.519  19.687  0.00  0.00    +0.000 NA
ATOM      4  C   UNL     1       5.083   5.693  18.515  0.00  0.00    +0.000 A 
ATOM      5  C   UNL     1       6.368   5.282  18.153  0.00  0.00    +0.000 A 
ATOM      6  C   UNL     1       6.792   5.641  16.885  0.00  0.00    +0.000 A 
ATOM      7  N   UNL     1       6.045   6.324  15.986  0.00  0.00    +0.000 NA
ATOM      8  C   UNL     1       4.786   6.686  16.311  0.00  0.00    +0.000 A 
ATOM      9  C   UNL     1       4.312   6.393  17.586  0.00  0.00    +0.000 A 
ENDROOT
BRANCH   1  10
ATOM     10  C   UNL     1       2.028   7.441  17.713  0.00  0.00    +0.000 C 
BRANCH  10  12
ATOM     11  N   UNL     1       0.905   9.325  18.853  0.00  0.00    +0.000 N 
ATOM     12  C   UNL     1       1.965   8.922  18.063  0.00  0.00    +0.000 C 
ATOM     13  O   UNL     1       2.893   9.653  17.717  0.00  0.00    +0.000 OA
ATOM     14  H   UNL     1       0.072   8.752  18.865  0.00  0.00    +0.000 HD
BRANCH  11  18
ATOM     15  C   UNL     1       0.084  12.948  20.832  0.00  0.00    +0.000 A 
ATOM     16  C   UNL     1       0.584  12.974  19.521  0.00  0.00    +0.000 A 
ATOM     17  C   UNL     1       0.893  11.794  18.845  0.00  0.00    +0.000 A 
ATOM     18  C   UNL     1       0.738  10.572  19.485  0.00  0.00    +0.000 A 
ATOM     19  C   UNL     1       0.395  10.556  20.841  0.00  0.00    +0.000 A 
ATOM     20  C   UNL     1       0.055  11.732  21.525  0.00  0.00    +0.000 A 
BRANCH  15  22
ATOM     21  C   UNL     1       0.658  14.842  22.109  0.00  0.00    +0.000 C 
ATOM     22  O   UNL     1      -0.358  14.096  21.434  0.00  0.00    +0.000 OA
ENDBRANCH  15  22
BRANCH  20  23
ATOM     23  O   UNL     1      -0.302  11.480  22.823  0.00  0.00    +0.000 OA
ATOM     24  C   UNL     1      -1.678  11.399  23.155  0.00  0.00    +0.000 C 
ENDBRANCH  20  23
ENDBRANCH  11  18
ENDBRANCH  10  12
ENDBRANCH   1  10
BRANCH   2  25
ATOM     25  S   UNL     1       1.883   6.014  20.588  0.00  0.00    +0.000 S 
BRANCH  25  26
ATOM     26  C   UNL     1       0.948   4.582  19.975  0.00  0.00    +0.000 C 
BRANCH  26  27
ATOM     27  C   UNL     1       1.861   3.582  19.305  0.00  0.00    +0.000 A 
ATOM     28  C   UNL     1       1.905   3.523  17.906  0.00  0.00    +0.000 A 
ATOM     29  F   UNL     1       1.156   4.365  17.180  0.00  0.00    +0.000 F 
ATOM     30  C   UNL     1       2.714   2.613  17.226  0.00  0.00    +0.000 A 
ATOM     31  C   UNL     1       3.507   1.723  17.945  0.00  0.00    +0.000 A 
ATOM     32  C   UNL     1       3.477   1.752  19.336  0.00  0.00    +0.000 A 
ATOM     33  C   UNL     1       2.658   2.668  20.012  0.00  0.00    +0.000 A 
ATOM     34 CL   UNL     1       2.678   2.621  21.741  0.00  0.00    +0.000 Cl
ENDBRANCH  26  27
ENDBRANCH  25  26
ENDBRANCH   2  25
TORSDOF 8
ENDMDL
MODEL 3
REMARK VINA RESULT:      -7.7      5.287      5.989
REMARK  Name = 
REMARK  10 active torsions:
REMARK  status: ('A' for Active; 'I' for Inactive)
REMARK    1  A    between atoms: C_1  and  O_2
REMARK    2  A    between atoms: O_2  and  C_3
REMARK    3  A    between atoms: C_6  and  N_7
REMARK    4  A    between atoms: C_8  and  C_10
REMARK    5  A    between atoms: C_10  and  N_11
REMARK    6  A    between atoms: C_12  and  S_13
REMARK    7  A    between atoms: S_13  and  C_14
REMARK    8  A    between atoms: C_14  and  C_15
REMARK    9  A    between atoms: C_31  and  O_32
REMARK   10  A    between atoms: O_32  and  C_33
REMARK                            x       y       z     vdW  Elec       q    Type
REMARK                         _______ _______ _______ _____ _____    ______ ____
ROOT
ATOM      1  N   UNL     1       3.044   6.793  18.436  0.00  0.00    +0.000 N 
ATOM      2  C   UNL     1       3.160   6.053  19.592  0.00  0.00    +0.000 A 
ATOM      3  N   UNL     1       4.320   5.453  19.670  0.00  0.00    +0.000 NA
ATOM      4  C   UNL     1       4.963   5.736  18.493  0.00  0.00    +0.000 A 
ATOM      5  C   UNL     1       6.221   5.340  18.033  0.00  0.00    +0.000 A 
ATOM      6  C   UNL     1       6.599   5.823  16.792  0.00  0.00    +0.000 A 
ATOM      7  N   UNL     1       5.832   6.613  16.005  0.00  0.00    +0.000 NA
ATOM      8  C   UNL     1       4.598   6.965  16.422  0.00  0.00    +0.000 A 
ATOM      9  C   UNL     1       4.171   6.547  17.679  0.00  0.00    +0.000 A 
ENDROOT
BRANCH   1  10
ATOM     10  C   UNL     1       1.923   7.624  18.020  0.00  0.00    +0.000 C 
BRANCH  10  12
ATOM     11  N   UNL     1       1.918  10.093  17.916  0.00  0.00    +0.000 N 
ATOM     12  C   UNL     1       1.779   8.972  18.712  0.00  0.00    +0.000 C 
ATOM     13  O   UNL     1       1.454   8.997  19.900  0.00  0.00    +0.000 OA
ATOM     14  H   UNL     1       2.435  10.005  17.052  0.00  0.00    +0.000 HD
BRANCH  11  18
ATOM     15  C   UNL     1       0.770  14.064  18.714  0.00  0.00    +0.000 A 
ATOM     16  C   UNL     1       2.113  13.777  18.425  0.00  0.00    +0.000 A 
ATOM     17  C   UNL     1       2.534  12.469  18.182  0.00  0.00    +0.000 A 
ATOM     18  C   UNL     1       1.622  11.426  18.260  0.00  0.00    +0.000 A 
ATOM     19  C   UNL     1       0.323  11.693  18.705  0.00  0.00    +0.000 A 
ATOM     20  C   UNL     1      -0.121  13.005  18.926  0.00  0.00    +0.000 A 
BRANCH  15  22
ATOM     21  C   UNL     1       0.810  16.068  19.950  0.00  0.00    +0.000 C 
ATOM     22  O   UNL     1       0.335  15.359  18.802  0.00  0.00    +0.000 OA
ENDBRANCH  15  22
BRANCH  20  23
ATOM     23  O   UNL     1      -1.437  13.040  19.302  0.00  0.00    +0.000 OA
ATOM     24  C   UNL     1      -1.757  13.092  20.682  0.00  0.00    +0.000 C 
ENDBRANCH  20  23
ENDBRANCH  11  18
ENDBRANCH  10  12
ENDBRANCH   1  10
BRANCH   2  25
ATOM     25  S   UNL     1       1.863   5.901  20.731  0.00  0.00    +0.000 S 
BRANCH  25  26
ATOM     26  C   UNL     1       0.925   4.492  20.071  0.00  0.00    +0.000 C 
BRANCH  26  27
ATOM     27  C   UNL     1       1.829   3.536  19.329  0.00  0.00    +0.000 A 
ATOM     28  C   UNL     1       1.851   3.559  17.929  0.00  0.00    +0.000 A 
ATOM     29  F   UNL     1       1.088   4.438  17.265  0.00  0.00    +0.000 F 
ATOM     30  C   UNL     1       2.650   2.692  17.183  0.00  0.00    +0.000 A 
ATOM     31  C   UNL     1       3.458   1.764  17.836  0.00  0.00    +0.000 A 
ATOM     32  C   UNL     1       3.451   1.712  19.227  0.00  0.00    +0.000 A 
ATOM     33  C   UNL     1       2.640   2.585  19.969  0.00  0.00    +0.000 A 
ATOM     34 CL   UNL     1       2.689   2.438  21.692  0.00  0.00    +0.000 Cl
ENDBRANCH  26  27
ENDBRANCH  25  26
ENDBRANCH   2  25
TORSDOF 8
ENDMDL
MODEL 4
REMARK VINA RESULT:      -7.7      1.173      1.640
REMARK  Name = 
REMARK  10 active torsions:
REMARK  status: ('A' for Active; 'I' for Inactive)
REMARK    1  A    between atoms: C_1  and  O_2
REMARK    2  A    between atoms: O_2  and  C_3
REMARK    3  A    between atoms: C_6  and  N_7
REMARK    4  A    between atoms: C_8  and  C_10
REMARK    5  A    between atoms: C_10  and  N_11
REMARK    6  A    between atoms: C_12  and  S_13
REMARK    7  A    between atoms: S_13  and  C_14
REMARK    8  A    between atoms: C_14  and  C_15
REMARK    9  A    between atoms: C_31  and  O_32
REMARK   10  A    between atoms: O_32  and  C_33
REMARK                            x       y       z     vdW  Elec       q    Type
REMARK                         _______ _______ _______ _____ _____    ______ ____
ROOT
ATOM      1  N   UNL     1       6.782   5.582  17.304  0.00  0.00    +0.000 N 
ATOM      2  C   UNL     1       5.555   5.115  17.721  0.00  0.00    +0.000 A 
ATOM      3  N   UNL     1       4.922   4.487  16.764  0.00  0.00    +0.000 NA
ATOM      4  C   UNL     1       5.717   4.609  15.653  0.00  0.00    +0.000 A 
ATOM      5  C   UNL     1       5.525   4.146  14.350  0.00  0.00    +0.000 A 
ATOM      6  C   UNL     1       6.541   4.415  13.449  0.00  0.00    +0.000 A 
ATOM      7  N   UNL     1       7.668   5.105  13.740  0.00  0.00    +0.000 NA
ATOM      8  C   UNL     1       7.842   5.594  14.985  0.00  0.00    +0.000 A 
ATOM      9  C   UNL     1       6.877   5.325  15.951  0.00  0.00    +0.000 A 
ENDROOT
BRANCH   1  10
ATOM     10  C   UNL     1       7.780   6.289  18.093  0.00  0.00    +0.000 C 
BRANCH  10  12
ATOM     11  N   UNL     1       8.645   8.488  18.817  0.00  0.00    +0.000 N 
ATOM     12  C   UNL     1       7.813   7.805  17.951  0.00  0.00    +0.000 C 
ATOM     13  O   UNL     1       7.187   8.328  17.028  0.00  0.00    +0.000 OA
ATOM     14  H   UNL     1       8.900   8.042  19.688  0.00  0.00    +0.000 HD
BRANCH  11  18
ATOM     15  C   UNL     1       9.748  12.514  18.274  0.00  0.00    +0.000 A 
ATOM     16  C   UNL     1      10.488  11.707  19.152  0.00  0.00    +0.000 A 
ATOM     17  C   UNL     1      10.135  10.376  19.377  0.00  0.00    +0.000 A 
ATOM     18  C   UNL     1       9.015   9.845  18.753  0.00  0.00    +0.000 A 
ATOM     19  C   UNL     1       8.189  10.693  18.008  0.00  0.00    +0.000 A 
ATOM     20  C   UNL     1       8.545  12.025  17.750  0.00  0.00    +0.000 A 
BRANCH  15  22
ATOM     21  C   UNL     1      11.337  13.792  17.097  0.00  0.00    +0.000 C 
ATOM     22  O   UNL     1      10.185  13.769  17.943  0.00  0.00    +0.000 OA
ENDBRANCH  15  22
BRANCH  20  23
ATOM     23  O   UNL     1       7.624  12.655  16.957  0.00  0.00    +0.000 OA
ATOM     24  C   UNL     1       6.887  13.742  17.490  0.00  0.00    +0.000 C 
ENDBRANCH  20  23
ENDBRANCH  11  18
ENDBRANCH  10  12
ENDBRANCH   1  10
BRANCH   2  25
ATOM     25  S   UNL     1       4.935   5.425  19.309  0.00  0.00    +0.000 S 
BRANCH  25  26
ATOM     26  C   UNL     1       4.568   3.754  19.920  0.00  0.00    +0.000 C 
BRANCH  26  27
ATOM     27  C   UNL     1       3.113   3.406  19.714  0.00  0.00    +0.000 A 
ATOM     28  C   UNL     1       2.133   4.096  20.440  0.00  0.00    +0.000 A 
ATOM     29  F   UNL     1       2.493   5.066  21.291  0.00  0.00    +0.000 F 
ATOM     30  C   UNL     1       0.773   3.812  20.308  0.00  0.00    +0.000 A 
ATOM     31  C   UNL     1       0.358   2.812  19.434  0.00  0.00    +0.000 A 
ATOM     32  C   UNL     1       1.310   2.103  18.705  0.00  0.00    +0.000 A 
ATOM     33  C   UNL     1       2.676   2.392  18.847  0.00  0.00    +0.000 A 
ATOM     34 CL   UNL     1       3.785   1.451  17.910  0.00  0.00    +0.000 Cl
ENDBRANCH  26  27
ENDBRANCH  25  26
ENDBRANCH   2  25
TORSDOF 8
ENDMDL
MODEL 5
REMARK VINA RESULT:      -7.6      7.740      9.964
REMARK  Name = 
REMARK  10 active torsions:
REMARK  status: ('A' for Active; 'I' for Inactive)
REMARK    1  A    between atoms: C_1  and  O_2
REMARK    2  A    between atoms: O_2  and  C_3
REMARK    3  A    between atoms: C_6  and  N_7
REMARK    4  A    between atoms: C_8  and  C_10
REMARK    5  A    between atoms: C_10  and  N_11
REMARK    6  A    between atoms: C_12  and  S_13
REMARK    7  A    between atoms: S_13  and  C_14
REMARK    8  A    between atoms: C_14  and  C_15
REMARK    9  A    between atoms: C_31  and  O_32
REMARK   10  A    between atoms: O_32  and  C_33
REMARK                            x       y       z     vdW  Elec       q    Type
REMARK                         _______ _______ _______ _____ _____    ______ ____
ROOT
ATOM      1  N   UNL     1       0.996   9.657  19.720  0.00  0.00    +0.000 N 
ATOM      2  C   UNL     1       1.478   8.375  19.868  0.00  0.00    +0.000 A 
ATOM      3  N   UNL     1       1.235   7.898  21.062  0.00  0.00    +0.000 NA
ATOM      4  C   UNL     1       0.644   8.923  21.756  0.00  0.00    +0.000 A 
ATOM      5  C   UNL     1       0.192   8.977  23.076  0.00  0.00    +0.000 A 
ATOM      6  C   UNL     1      -0.391  10.167  23.475  0.00  0.00    +0.000 A 
ATOM      7  N   UNL     1      -0.521  11.264  22.692  0.00  0.00    +0.000 NA
ATOM      8  C   UNL     1      -0.048  11.235  21.429  0.00  0.00    +0.000 A 
ATOM      9  C   UNL     1       0.513  10.055  20.950  0.00  0.00    +0.000 A 
ENDROOT
BRANCH   1  10
ATOM     10  C   UNL     1       1.043  10.494  18.530  0.00  0.00    +0.000 C 
BRANCH  10  12
ATOM     11  N   UNL     1      -1.390  10.703  18.150  0.00  0.00    +0.000 N 
ATOM     12  C   UNL     1      -0.179  11.360  18.256  0.00  0.00    +0.000 C 
ATOM     13  O   UNL     1      -0.046  12.584  18.242  0.00  0.00    +0.000 OA
ATOM     14  H   UNL     1      -1.383   9.723  17.904  0.00  0.00    +0.000 HD
BRANCH  11  18
ATOM     15  C   UNL     1      -5.310  12.229  18.322  0.00  0.00    +0.000 A 
ATOM     16  C   UNL     1      -4.801  11.766  17.098  0.00  0.00    +0.000 A 
ATOM     17  C   UNL     1      -3.497  11.279  16.999  0.00  0.00    +0.000 A 
ATOM     18  C   UNL     1      -2.673  11.281  18.116  0.00  0.00    +0.000 A 
ATOM     19  C   UNL     1      -3.127  11.890  19.290  0.00  0.00    +0.000 A 
ATOM     20  C   UNL     1      -4.443  12.359  19.413  0.00  0.00    +0.000 A 
BRANCH  15  22
ATOM     21  C   UNL     1      -7.276  12.906  17.217  0.00  0.00    +0.000 C 
ATOM     22  O   UNL     1      -6.632  12.563  18.447  0.00  0.00    +0.000 OA
ENDBRANCH  15  22
BRANCH  20  23
ATOM     23  O   UNL     1      -4.689  12.864  20.662  0.00  0.00    +0.000 OA
ATOM     24  C   UNL     1      -4.941  14.252  20.804  0.00  0.00    +0.000 C 
ENDBRANCH  20  23
ENDBRANCH  11  18
ENDBRANCH  10  12
ENDBRANCH   1  10
BRANCH   2  25
ATOM     25  S   UNL     1       2.369   7.569  18.619  0.00  0.00    +0.000 S 
BRANCH  25  26
ATOM     26  C   UNL     1       3.120   6.175  19.511  0.00  0.00    +0.000 C 
BRANCH  26  27
ATOM     27  C   UNL     1       2.537   4.859  19.053  0.00  0.00    +0.000 A 
ATOM     28  C   UNL     1       1.501   4.273  19.791  0.00  0.00    +0.000 A 
ATOM     29  F   UNL     1       1.025   4.893  20.880  0.00  0.00    +0.000 F 
ATOM     30  C   UNL     1       0.930   3.052  19.432  0.00  0.00    +0.000 A 
ATOM     31  C   UNL     1       1.396   2.377  18.306  0.00  0.00    +0.000 A 
ATOM     32  C   UNL     1       2.431   2.931  17.558  0.00  0.00    +0.000 A 
ATOM     33  C   UNL     1       3.002   4.157  17.929  0.00  0.00    +0.000 A 
ATOM     34 CL   UNL     1       4.290   4.760  16.945  0.00  0.00    +0.000 Cl
ENDBRANCH  26  27
ENDBRANCH  25  26
ENDBRANCH   2  25
TORSDOF 8
ENDMDL
MODEL 6
REMARK VINA RESULT:      -7.6      4.770      5.516
REMARK  Name = 
REMARK  10 active torsions:
REMARK  status: ('A' for Active; 'I' for Inactive)
REMARK    1  A    between atoms: C_1  and  O_2
REMARK    2  A    between atoms: O_2  and  C_3
REMARK    3  A    between atoms: C_6  and  N_7
REMARK    4  A    between atoms: C_8  and  C_10
REMARK    5  A    between atoms: C_10  and  N_11
REMARK    6  A    between atoms: C_12  and  S_13
REMARK    7  A    between atoms: S_13  and  C_14
REMARK    8  A    between atoms: C_14  and  C_15
REMARK    9  A    between atoms: C_31  and  O_32
REMARK   10  A    between atoms: O_32  and  C_33
REMARK                            x       y       z     vdW  Elec       q    Type
REMARK                         _______ _______ _______ _____ _____    ______ ____
ROOT
ATOM      1  N   UNL     1       3.074   6.802  18.423  0.00  0.00    +0.000 N 
ATOM      2  C   UNL     1       3.184   6.076  19.589  0.00  0.00    +0.000 A 
ATOM      3  N   UNL     1       4.346   5.483  19.685  0.00  0.00    +0.000 NA
ATOM      4  C   UNL     1       4.999   5.757  18.511  0.00  0.00    +0.000 A 
ATOM      5  C   UNL     1       6.263   5.363  18.067  0.00  0.00    +0.000 A 
ATOM      6  C   UNL     1       6.650   5.834  16.825  0.00  0.00    +0.000 A 
ATOM      7  N   UNL     1       5.887   6.611  16.021  0.00  0.00    +0.000 NA
ATOM      8  C   UNL     1       4.646   6.960  16.423  0.00  0.00    +0.000 A 
ATOM      9  C   UNL     1       4.210   6.554  17.680  0.00  0.00    +0.000 A 
ENDROOT
BRANCH   1  10
ATOM     10  C   UNL     1       1.952   7.621  17.987  0.00  0.00    +0.000 C 
BRANCH  10  12
ATOM     11  N   UNL     1       1.973  10.091  17.898  0.00  0.00    +0.000 N 
ATOM     12  C   UNL     1       1.780   8.966  18.678  0.00  0.00    +0.000 C 
ATOM     13  O   UNL     1       1.389   8.987  19.846  0.00  0.00    +0.000 OA
ATOM     14  H   UNL     1       2.538  10.003  17.064  0.00  0.00    +0.000 HD
BRANCH  11  18
ATOM     15  C   UNL     1       1.355  14.078  19.097  0.00  0.00    +0.000 A 
ATOM     16  C   UNL     1       0.307  13.151  19.211  0.00  0.00    +0.000 A 
ATOM     17  C   UNL     1       0.468  11.829  18.798  0.00  0.00    +0.000 A 
ATOM     18  C   UNL     1       1.669  11.424  18.233  0.00  0.00    +0.000 A 
ATOM     19  C   UNL     1       2.652  12.384  17.973  0.00  0.00    +0.000 A 
ATOM     20  C   UNL     1       2.516  13.711  18.407  0.00  0.00    +0.000 A 
BRANCH  15  22
ATOM     21  C   UNL     1       0.350  16.202  18.941  0.00  0.00    +0.000 C 
ATOM     22  O   UNL     1       1.242  15.330  19.640  0.00  0.00    +0.000 OA
ENDBRANCH  15  22
BRANCH  20  23
ATOM     23  O   UNL     1       3.617  14.464  18.097  0.00  0.00    +0.000 OA
ATOM     24  C   UNL     1       4.546  14.777  19.120  0.00  0.00    +0.000 C 
ENDBRANCH  20  23
ENDBRANCH  11  18
ENDBRANCH  10  12
ENDBRANCH   1  10
BRANCH   2  25
ATOM     25  S   UNL     1       1.877   5.929  20.717  0.00  0.00    +0.000 S 
BRANCH  25  26
ATOM     26  C   UNL     1       0.935   4.529  20.045  0.00  0.00    +0.000 C 
BRANCH  26  27
ATOM     27  C   UNL     1       1.840   3.564  19.316  0.00  0.00    +0.000 A 
ATOM     28  C   UNL     1       1.871   3.577  17.916  0.00  0.00    +0.000 A 
ATOM     29  F   UNL     1       1.117   4.456  17.241  0.00  0.00    +0.000 F 
ATOM     30  C   UNL     1       2.672   2.702  17.182  0.00  0.00    +0.000 A 
ATOM     31  C   UNL     1       3.471   1.775  17.847  0.00  0.00    +0.000 A 
ATOM     32  C   UNL     1       3.453   1.732  19.238  0.00  0.00    +0.000 A 
ATOM     33  C   UNL     1       2.642   2.613  19.968  0.00  0.00    +0.000 A 
ATOM     34 CL   UNL     1       2.677   2.477  21.692  0.00  0.00    +0.000 Cl
ENDBRANCH  26  27
ENDBRANCH  25  26
ENDBRANCH   2  25
TORSDOF 8
ENDMDL
MODEL 7
REMARK VINA RESULT:      -7.6      8.018     10.410
REMARK  Name = 
REMARK  10 active torsions:
REMARK  status: ('A' for Active; 'I' for Inactive)
REMARK    1  A    between atoms: C_1  and  O_2
REMARK    2  A    between atoms: O_2  and  C_3
REMARK    3  A    between atoms: C_6  and  N_7
REMARK    4  A    between atoms: C_8  and  C_10
REMARK    5  A    between atoms: C_10  and  N_11
REMARK    6  A    between atoms: C_12  and  S_13
REMARK    7  A    between atoms: S_13  and  C_14
REMARK    8  A    between atoms: C_14  and  C_15
REMARK    9  A    between atoms: C_31  and  O_32
REMARK   10  A    between atoms: O_32  and  C_33
REMARK                            x       y       z     vdW  Elec       q    Type
REMARK                         _______ _______ _______ _____ _____    ______ ____
ROOT
ATOM      1  N   UNL     1       0.823  10.248  19.724  0.00  0.00    +0.000 N 
ATOM      2  C   UNL     1       1.265   8.943  19.710  0.00  0.00    +0.000 A 
ATOM      3  N   UNL     1       0.991   8.324  20.829  0.00  0.00    +0.000 NA
ATOM      4  C   UNL     1       0.420   9.268  21.644  0.00  0.00    +0.000 A 
ATOM      5  C   UNL     1      -0.048   9.165  22.955  0.00  0.00    +0.000 A 
ATOM      6  C   UNL     1      -0.602  10.312  23.499  0.00  0.00    +0.000 A 
ATOM      7  N   UNL     1      -0.689  11.504  22.863  0.00  0.00    +0.000 NA
ATOM      8  C   UNL     1      -0.198  11.624  21.612  0.00  0.00    +0.000 A 
ATOM      9  C   UNL     1       0.335  10.498  20.990  0.00  0.00    +0.000 A 
ENDROOT
BRANCH   1  10
ATOM     10  C   UNL     1       0.911  11.229  18.653  0.00  0.00    +0.000 C 
BRANCH  10  12
ATOM     11  N   UNL     1      -1.484  11.009  18.085  0.00  0.00    +0.000 N 
ATOM     12  C   UNL     1      -0.397  11.856  18.192  0.00  0.00    +0.000 C 
ATOM     13  O   UNL     1      -0.447  13.076  18.036  0.00  0.00    +0.000 OA
ATOM     14  H   UNL     1      -1.310  10.020  17.964  0.00  0.00    +0.000 HD
BRANCH  11  18
ATOM     15  C   UNL     1      -5.594  11.864  17.767  0.00  0.00    +0.000 A 
ATOM     16  C   UNL     1      -4.863  11.539  16.613  0.00  0.00    +0.000 A 
ATOM     17  C   UNL     1      -3.495  11.277  16.678  0.00  0.00    +0.000 A 
ATOM     18  C   UNL     1      -2.831  11.370  17.893  0.00  0.00    +0.000 A 
ATOM     19  C   UNL     1      -3.526  11.850  19.008  0.00  0.00    +0.000 A 
ATOM     20  C   UNL     1      -4.906  12.091  18.966  0.00  0.00    +0.000 A 
BRANCH  15  22
ATOM     21  C   UNL     1      -7.442  13.308  17.560  0.00  0.00    +0.000 C 
ATOM     22  O   UNL     1      -6.958  11.973  17.723  0.00  0.00    +0.000 OA
ENDBRANCH  15  22
BRANCH  20  23
ATOM     23  O   UNL     1      -5.389  12.500  20.180  0.00  0.00    +0.000 OA
ATOM     24  C   UNL     1      -4.902  13.707  20.743  0.00  0.00    +0.000 C 
ENDBRANCH  20  23
ENDBRANCH  11  18
ENDBRANCH  10  12
ENDBRANCH   1  10
BRANCH   2  25
ATOM     25  S   UNL     1       2.150   8.278  18.377  0.00  0.00    +0.000 S 
BRANCH  25  26
ATOM     26  C   UNL     1       3.023   6.881  19.143  0.00  0.00    +0.000 C 
BRANCH  26  27
ATOM     27  C   UNL     1       3.574   5.943  18.096  0.00  0.00    +0.000 A 
ATOM     28  C   UNL     1       4.667   6.348  17.318  0.00  0.00    +0.000 A 
ATOM     29  F   UNL     1       5.222   7.551  17.525  0.00  0.00    +0.000 F 
ATOM     30  C   UNL     1       5.213   5.537  16.324  0.00  0.00    +0.000 A 
ATOM     31  C   UNL     1       4.666   4.280  16.080  0.00  0.00    +0.000 A 
ATOM     32  C   UNL     1       3.573   3.854  16.830  0.00  0.00    +0.000 A 
ATOM     33  C   UNL     1       3.027   4.678  17.826  0.00  0.00    +0.000 A 
ATOM     34 CL   UNL     1       1.664   4.068  18.698  0.00  0.00    +0.000 Cl
ENDBRANCH  26  27
ENDBRANCH  25  26
ENDBRANCH   2  25
TORSDOF 8
ENDMDL
MODEL 8
REMARK VINA RESULT:      -7.6      5.680      8.083
REMARK  Name = 
REMARK  10 active torsions:
REMARK  status: ('A' for Active; 'I' for Inactive)
REMARK    1  A    between atoms: C_1  and  O_2
REMARK    2  A    between atoms: O_2  and  C_3
REMARK    3  A    between atoms: C_6  and  N_7
REMARK    4  A    between atoms: C_8  and  C_10
REMARK    5  A    between atoms: C_10  and  N_11
REMARK    6  A    between atoms: C_12  and  S_13
REMARK    7  A    between atoms: S_13  and  C_14
REMARK    8  A    between atoms: C_14  and  C_15
REMARK    9  A    between atoms: C_31  and  O_32
REMARK   10  A    between atoms: O_32  and  C_33
REMARK                            x       y       z     vdW  Elec       q    Type
REMARK                         _______ _______ _______ _____ _____    ______ ____
ROOT
ATOM      1  N   UNL     1       2.339   6.245  19.460  0.00  0.00    +0.000 N 
ATOM      2  C   UNL     1       2.698   6.252  18.130  0.00  0.00    +0.000 A 
ATOM      3  N   UNL     1       2.452   5.104  17.553  0.00  0.00    +0.000 NA
ATOM      4  C   UNL     1       1.988   4.282  18.548  0.00  0.00    +0.000 A 
ATOM      5  C   UNL     1       1.590   2.945  18.503  0.00  0.00    +0.000 A 
ATOM      6  C   UNL     1       1.140   2.399  19.693  0.00  0.00    +0.000 A 
ATOM      7  N   UNL     1       1.091   3.057  20.874  0.00  0.00    +0.000 NA
ATOM      8  C   UNL     1       1.515   4.337  20.937  0.00  0.00    +0.000 A 
ATOM      9  C   UNL     1       1.941   4.960  19.767  0.00  0.00    +0.000 A 
ENDROOT
BRANCH   1  10
ATOM     10  C   UNL     1       2.426   7.343  20.411  0.00  0.00    +0.000 C 
BRANCH  10  12
ATOM     11  N   UNL     1       1.113   9.308  19.686  0.00  0.00    +0.000 N 
ATOM     12  C   UNL     1       1.195   8.229  20.546  0.00  0.00    +0.000 C 
ATOM     13  O   UNL     1       0.305   7.891  21.327  0.00  0.00    +0.000 OA
ATOM     14  H   UNL     1       1.969   9.666  19.285  0.00  0.00    +0.000 HD
BRANCH  11  18
ATOM     15  C   UNL     1      -2.340  11.690  19.335  0.00  0.00    +0.000 A 
ATOM     16  C   UNL     1      -1.990  10.820  18.290  0.00  0.00    +0.000 A 
ATOM     17  C   UNL     1      -0.838  10.037  18.361  0.00  0.00    +0.000 A 
ATOM     18  C   UNL     1      -0.002  10.138  19.464  0.00  0.00    +0.000 A 
ATOM     19  C   UNL     1      -0.266  11.119  20.425  0.00  0.00    +0.000 A 
ATOM     20  C   UNL     1      -1.433  11.894  20.382  0.00  0.00    +0.000 A 
BRANCH  15  22
ATOM     21  C   UNL     1      -4.489  11.832  18.384  0.00  0.00    +0.000 C 
ATOM     22  O   UNL     1      -3.544  12.342  19.327  0.00  0.00    +0.000 OA
ENDBRANCH  15  22
BRANCH  20  23
ATOM     23  O   UNL     1      -1.517  12.749  21.448  0.00  0.00    +0.000 OA
ATOM     24  C   UNL     1      -1.227  12.259  22.747  0.00  0.00    +0.000 C 
ENDBRANCH  20  23
ENDBRANCH  11  18
ENDBRANCH  10  12
ENDBRANCH   1  10
BRANCH   2  25
ATOM     25  S   UNL     1       3.463   7.616  17.383  0.00  0.00    +0.000 S 
BRANCH  25  26
ATOM     26  C   UNL     1       4.688   6.832  16.295  0.00  0.00    +0.000 C 
BRANCH  26  27
ATOM     27  C   UNL     1       5.857   6.297  17.089  0.00  0.00    +0.000 A 
ATOM     28  C   UNL     1       6.779   7.195  17.643  0.00  0.00    +0.000 A 
ATOM     29  F   UNL     1       6.604   8.514  17.482  0.00  0.00    +0.000 F 
ATOM     30  C   UNL     1       7.888   6.766  18.372  0.00  0.00    +0.000 A 
ATOM     31  C   UNL     1       8.104   5.404  18.563  0.00  0.00    +0.000 A 
ATOM     32  C   UNL     1       7.210   4.488  18.016  0.00  0.00    +0.000 A 
ATOM     33  C   UNL     1       6.099   4.927  17.281  0.00  0.00    +0.000 A 
ATOM     34 CL   UNL     1       5.051   3.715  16.630  0.00  0.00    +0.000 Cl
ENDBRANCH  26  27
ENDBRANCH  25  26
ENDBRANCH   2  25
TORSDOF 8
ENDMDL
MODEL 9
REMARK VINA RESULT:      -7.5      5.813      8.211
REMARK  Name = 
REMARK  10 active torsions:
REMARK  status: ('A' for Active; 'I' for Inactive)
REMARK    1  A    between atoms: C_1  and  O_2
REMARK    2  A    between atoms: O_2  and  C_3
REMARK    3  A    between atoms: C_6  and  N_7
REMARK    4  A    between atoms: C_8  and  C_10
REMARK    5  A    between atoms: C_10  and  N_11
REMARK    6  A    between atoms: C_12  and  S_13
REMARK    7  A    between atoms: S_13  and  C_14
REMARK    8  A    between atoms: C_14  and  C_15
REMARK    9  A    between atoms: C_31  and  O_32
REMARK   10  A    between atoms: O_32  and  C_33
REMARK                            x       y       z     vdW  Elec       q    Type
REMARK                         _______ _______ _______ _____ _____    ______ ____
ROOT
ATOM      1  N   UNL     1       2.213   6.072  19.671  0.00  0.00    +0.000 N 
ATOM      2  C   UNL     1       2.322   6.141  18.300  0.00  0.00    +0.000 A 
ATOM      3  N   UNL     1       2.079   4.988  17.733  0.00  0.00    +0.000 NA
ATOM      4  C   UNL     1       1.879   4.105  18.763  0.00  0.00    +0.000 A 
ATOM      5  C   UNL     1       1.602   2.737  18.739  0.00  0.00    +0.000 A 
ATOM      6  C   UNL     1       1.427   2.126  19.969  0.00  0.00    +0.000 A 
ATOM      7  N   UNL     1       1.534   2.752  21.164  0.00  0.00    +0.000 NA
ATOM      8  C   UNL     1       1.846   4.065  21.198  0.00  0.00    +0.000 A 
ATOM      9  C   UNL     1       1.995   4.749  19.996  0.00  0.00    +0.000 A 
ENDROOT
BRANCH   1  10
ATOM     10  C   UNL     1       2.373   7.154  20.632  0.00  0.00    +0.000 C 
BRANCH  10  12
ATOM     11  N   UNL     1       1.179   9.196  21.350  0.00  0.00    +0.000 N 
ATOM     12  C   UNL     1       1.099   7.837  21.109  0.00  0.00    +0.000 C 
ATOM     13  O   UNL     1       0.058   7.181  21.159  0.00  0.00    +0.000 OA
ATOM     14  H   UNL     1       2.087   9.593  21.548  0.00  0.00    +0.000 HD
BRANCH  11  18
ATOM     15  C   UNL     1      -1.813  12.105  21.902  0.00  0.00    +0.000 A 
ATOM     16  C   UNL     1      -1.412  11.310  22.987  0.00  0.00    +0.000 A 
ATOM     17  C   UNL     1      -0.443  10.319  22.834  0.00  0.00    +0.000 A 
ATOM     18  C   UNL     1       0.113  10.085  21.584  0.00  0.00    +0.000 A 
ATOM     19  C   UNL     1      -0.402  10.765  20.476  0.00  0.00    +0.000 A 
ATOM     20  C   UNL     1      -1.356  11.783  20.618  0.00  0.00    +0.000 A 
BRANCH  15  22
ATOM     21  C   UNL     1      -3.797  12.892  22.896  0.00  0.00    +0.000 C 
ATOM     22  O   UNL     1      -2.650  13.172  22.089  0.00  0.00    +0.000 OA
ENDBRANCH  15  22
BRANCH  20  23
ATOM     23  O   UNL     1      -1.678  12.351  19.414  0.00  0.00    +0.000 OA
ATOM     24  C   UNL     1      -2.679  11.746  18.615  0.00  0.00    +0.000 C 
ENDBRANCH  20  23
ENDBRANCH  11  18
ENDBRANCH  10  12
ENDBRANCH   1  10
BRANCH   2  25
ATOM     25  S   UNL     1       2.812   7.587  17.480  0.00  0.00    +0.000 S 
BRANCH  25  26
ATOM     26  C   UNL     1       4.622   7.532  17.635  0.00  0.00    +0.000 C 
BRANCH  26  27
ATOM     27  C   UNL     1       5.188   6.301  16.967  0.00  0.00    +0.000 A 
ATOM     28  C   UNL     1       5.193   6.219  15.569  0.00  0.00    +0.000 A 
ATOM     29  F   UNL     1       4.717   7.238  14.840  0.00  0.00    +0.000 F 
ATOM     30  C   UNL     1       5.687   5.104  14.892  0.00  0.00    +0.000 A 
ATOM     31  C   UNL     1       6.191   4.025  15.613  0.00  0.00    +0.000 A 
ATOM     32  C   UNL     1       6.190   4.074  17.005  0.00  0.00    +0.000 A 
ATOM     33  C   UNL     1       5.688   5.198  17.678  0.00  0.00    +0.000 A 
ATOM     34 CL   UNL     1       5.718   5.163  19.407  0.00  0.00    +0.000 Cl
ENDBRANCH  26  27
ENDBRANCH  25  26
ENDBRANCH   2  25
TORSDOF 8
ENDMDL
