MODEL 1
REMARK VINA RESULT:      -8.3      0.000      0.000
REMARK  Name = 
REMARK  13 active torsions:
REMARK  status: ('A' for Active; 'I' for Inactive)
REMARK    1  A    between atoms: C_1  and  C_2
REMARK    2  A    between atoms: C_2  and  O_4
REMARK    3  A    between atoms: O_4  and  C_5
REMARK    4  A    between atoms: C_8  and  O_9
REMARK    5  A    between atoms: O_9  and  C_10
REMARK    6  A    between atoms: C_10  and  C_11
REMARK    7  A    between atoms: C_18  and  C_19
REMARK    8  A    between atoms: C_20  and  C_21
REMARK    9  A    between atoms: C_20  and  C_22
REMARK   10  A    between atoms: C_22  and  C_23
REMARK   11  A    between atoms: C_23  and  C_24
REMARK   12  A    between atoms: C_25  and  C_26
REMARK   13  A    between atoms: C_25  and  C_27
REMARK                            x       y       z     vdW  Elec       q    Type
REMARK                         _______ _______ _______ _____ _____    ______ ____
ROOT
ATOM      1  C   UNL     1       5.289   4.359  19.794  0.00  0.00    +0.000 C 
ATOM      2  C   UNL     1       4.632   3.033  19.407  0.00  0.00    +0.000 C 
ATOM      3  C   UNL     1       3.525   3.080  18.346  0.00  0.00    +0.000 C 
ATOM      4  C   UNL     1       2.682   4.363  18.307  0.00  0.00    +0.000 C 
ATOM      5  C   UNL     1       3.526   5.658  18.421  0.00  0.00    +0.000 C 
ATOM      6  C   UNL     1       2.607   6.888  18.537  0.00  0.00    +0.000 C 
ATOM      7  C   UNL     1       2.982   7.773  17.397  0.00  0.00    +0.000 C 
ATOM      8  O   UNL     1       2.577   8.914  17.236  0.00  0.00    +0.000 OA
ATOM      9  O   UNL     1       3.783   7.120  16.529  0.00  0.00    +0.000 OA
ATOM     10  C   UNL     1       4.421   6.025  17.191  0.00  0.00    +0.000 C 
ATOM     11  C   UNL     1       4.336   5.549  19.746  0.00  0.00    +0.000 C 
ENDROOT
BRANCH  10  12
ATOM     12  C   UNL     1       4.749   5.017  16.105  0.00  0.00    +0.000 C 
ATOM     13  C   UNL     1       5.953   4.803  15.523  0.00  0.00    +0.000 C 
ATOM     14  C   UNL     1       7.148   5.693  15.769  0.00  0.00    +0.000 C 
BRANCH  13  15
ATOM     15  C   UNL     1       6.267   3.695  14.508  0.00  0.00    +0.000 C 
BRANCH  15  16
ATOM     16  C   UNL     1       6.367   4.078  13.024  0.00  0.00    +0.000 C 
BRANCH  16  17
ATOM     17  C   UNL     1       5.064   3.941  12.267  0.00  0.00    +0.000 C 
ATOM     18  C   UNL     1       4.699   2.947  11.433  0.00  0.00    +0.000 C 
ATOM     19  C   UNL     1       5.494   1.691  11.204  0.00  0.00    +0.000 C 
ATOM     20  C   UNL     1       3.427   3.028  10.625  0.00  0.00    +0.000 C 
ENDBRANCH  16  17
ENDBRANCH  15  16
ENDBRANCH  13  15
ENDBRANCH  10  12
BRANCH   1  21
ATOM     21  O   UNL     1       6.395   4.709  18.942  0.00  0.00    +0.000 OA
BRANCH  21  23
ATOM     22  C   UNL     1       7.797   6.564  18.647  0.00  0.00    +0.000 C 
ATOM     23  C   UNL     1       7.405   5.414  19.520  0.00  0.00    +0.000 C 
ATOM     24  O   UNL     1       7.878   5.190  20.628  0.00  0.00    +0.000 OA
ENDBRANCH  21  23
ENDBRANCH   1  21
BRANCH   4  25
ATOM     25  O   UNL     1       1.775   4.338  19.447  0.00  0.00    +0.000 OA
BRANCH  25  26
ATOM     26  C   UNL     1       1.127   3.159  19.705  0.00  0.00    +0.000 C 
ATOM     27  C   UNL     1       1.262   2.776  21.147  0.00  0.00    +0.000 C 
ATOM     28  O   UNL     1       0.507   2.508  18.879  0.00  0.00    +0.000 OA
ENDBRANCH  25  26
ENDBRANCH   4  25
TORSDOF 8
ENDMDL
MODEL 2
REMARK VINA RESULT:      -7.5      2.544      6.229
REMARK  Name = 
REMARK  13 active torsions:
REMARK  status: ('A' for Active; 'I' for Inactive)
REMARK    1  A    between atoms: C_1  and  C_2
REMARK    2  A    between atoms: C_2  and  O_4
REMARK    3  A    between atoms: O_4  and  C_5
REMARK    4  A    between atoms: C_8  and  O_9
REMARK    5  A    between atoms: O_9  and  C_10
REMARK    6  A    between atoms: C_10  and  C_11
REMARK    7  A    between atoms: C_18  and  C_19
REMARK    8  A    between atoms: C_20  and  C_21
REMARK    9  A    between atoms: C_20  and  C_22
REMARK   10  A    between atoms: C_22  and  C_23
REMARK   11  A    between atoms: C_23  and  C_24
REMARK   12  A    between atoms: C_25  and  C_26
REMARK   13  A    between atoms: C_25  and  C_27
REMARK                            x       y       z     vdW  Elec       q    Type
REMARK                         _______ _______ _______ _____ _____    ______ ____
ROOT
ATOM      1  C   UNL     1       2.471   6.308  18.490  0.00  0.00    +0.000 C 
ATOM      2  C   UNL     1       3.166   5.994  19.816  0.00  0.00    +0.000 C 
ATOM      3  C   UNL     1       4.529   5.295  19.748  0.00  0.00    +0.000 C 
ATOM      4  C   UNL     1       4.743   4.347  18.559  0.00  0.00    +0.000 C 
ATOM      5  C   UNL     1       4.245   4.928  17.212  0.00  0.00    +0.000 C 
ATOM      6  C   UNL     1       4.343   3.866  16.101  0.00  0.00    +0.000 C 
ATOM      7  C   UNL     1       5.213   4.468  15.050  0.00  0.00    +0.000 C 
ATOM      8  O   UNL     1       5.405   3.990  13.943  0.00  0.00    +0.000 OA
ATOM      9  O   UNL     1       5.811   5.587  15.511  0.00  0.00    +0.000 OA
ATOM     10  C   UNL     1       5.067   6.116  16.610  0.00  0.00    +0.000 C 
ATOM     11  C   UNL     1       2.738   5.272  17.402  0.00  0.00    +0.000 C 
ENDROOT
BRANCH  10  12
ATOM     12  C   UNL     1       6.059   6.910  17.441  0.00  0.00    +0.000 C 
ATOM     13  C   UNL     1       7.279   6.508  17.865  0.00  0.00    +0.000 C 
ATOM     14  C   UNL     1       7.773   5.089  17.704  0.00  0.00    +0.000 C 
BRANCH  13  15
ATOM     15  C   UNL     1       8.298   7.383  18.608  0.00  0.00    +0.000 C 
BRANCH  15  16
ATOM     16  C   UNL     1       8.452   8.848  18.171  0.00  0.00    +0.000 C 
BRANCH  16  17
ATOM     17  C   UNL     1       8.964   9.762  19.261  0.00  0.00    +0.000 C 
ATOM     18  C   UNL     1       9.765  10.838  19.123  0.00  0.00    +0.000 C 
ATOM     19  C   UNL     1      10.196  11.415  17.804  0.00  0.00    +0.000 C 
ATOM     20  C   UNL     1      10.322  11.561  20.326  0.00  0.00    +0.000 C 
ENDBRANCH  16  17
ENDBRANCH  15  16
ENDBRANCH  13  15
ENDBRANCH  10  12
BRANCH   1  21
ATOM     21  O   UNL     1       2.870   7.573  17.931  0.00  0.00    +0.000 OA
BRANCH  21  23
ATOM     22  C   UNL     1       1.496   8.605  19.526  0.00  0.00    +0.000 C 
ATOM     23  C   UNL     1       2.015   8.615  18.122  0.00  0.00    +0.000 C 
ATOM     24  O   UNL     1       1.761   9.480  17.294  0.00  0.00    +0.000 OA
ENDBRANCH  21  23
ENDBRANCH   1  21
BRANCH   4  25
ATOM     25  O   UNL     1       3.981   3.132  18.813  0.00  0.00    +0.000 OA
BRANCH  25  26
ATOM     26  C   UNL     1       4.168   2.516  20.022  0.00  0.00    +0.000 C 
ATOM     27  C   UNL     1       2.916   2.552  20.843  0.00  0.00    +0.000 C 
ATOM     28  O   UNL     1       5.210   1.993  20.384  0.00  0.00    +0.000 OA
ENDBRANCH  25  26
ENDBRANCH   4  25
TORSDOF 8
ENDMDL
MODEL 3
REMARK VINA RESULT:      -7.3      0.971      1.310
REMARK  Name = 
REMARK  13 active torsions:
REMARK  status: ('A' for Active; 'I' for Inactive)
REMARK    1  A    between atoms: C_1  and  C_2
REMARK    2  A    between atoms: C_2  and  O_4
REMARK    3  A    between atoms: O_4  and  C_5
REMARK    4  A    between atoms: C_8  and  O_9
REMARK    5  A    between atoms: O_9  and  C_10
REMARK    6  A    between atoms: C_10  and  C_11
REMARK    7  A    between atoms: C_18  and  C_19
REMARK    8  A    between atoms: C_20  and  C_21
REMARK    9  A    between atoms: C_20  and  C_22
REMARK   10  A    between atoms: C_22  and  C_23
REMARK   11  A    between atoms: C_23  and  C_24
REMARK   12  A    between atoms: C_25  and  C_26
REMARK   13  A    between atoms: C_25  and  C_27
REMARK                            x       y       z     vdW  Elec       q    Type
REMARK                         _______ _______ _______ _____ _____    ______ ____
ROOT
ATOM      1  C   UNL     1       4.886   4.912  19.687  0.00  0.00    +0.000 C 
ATOM      2  C   UNL     1       4.440   3.640  18.964  0.00  0.00    +0.000 C 
ATOM      3  C   UNL     1       3.384   3.790  17.861  0.00  0.00    +0.000 C 
ATOM      4  C   UNL     1       2.370   4.928  18.049  0.00  0.00    +0.000 C 
ATOM      5  C   UNL     1       3.017   6.258  18.513  0.00  0.00    +0.000 C 
ATOM      6  C   UNL     1       1.929   7.300  18.833  0.00  0.00    +0.000 C 
ATOM      7  C   UNL     1       2.223   8.466  17.951  0.00  0.00    +0.000 C 
ATOM      8  O   UNL     1       1.669   9.552  18.021  0.00  0.00    +0.000 OA
ATOM      9  O   UNL     1       3.146   8.140  17.022  0.00  0.00    +0.000 OA
ATOM     10  C   UNL     1       3.903   7.012  17.467  0.00  0.00    +0.000 C 
ATOM     11  C   UNL     1       3.777   5.949  19.836  0.00  0.00    +0.000 C 
ENDROOT
BRANCH  10  12
ATOM     12  C   UNL     1       4.417   6.335  16.210  0.00  0.00    +0.000 C 
ATOM     13  C   UNL     1       5.698   6.280  15.775  0.00  0.00    +0.000 C 
ATOM     14  C   UNL     1       6.815   7.064  16.423  0.00  0.00    +0.000 C 
BRANCH  13  15
ATOM     15  C   UNL     1       6.192   5.488  14.556  0.00  0.00    +0.000 C 
BRANCH  15  16
ATOM     16  C   UNL     1       5.541   4.128  14.261  0.00  0.00    +0.000 C 
BRANCH  16  17
ATOM     17  C   UNL     1       6.255   3.325  13.197  0.00  0.00    +0.000 C 
ATOM     18  C   UNL     1       5.757   2.895  12.020  0.00  0.00    +0.000 C 
ATOM     19  C   UNL     1       4.402   3.265  11.481  0.00  0.00    +0.000 C 
ATOM     20  C   UNL     1       6.543   1.965  11.128  0.00  0.00    +0.000 C 
ENDBRANCH  16  17
ENDBRANCH  15  16
ENDBRANCH  13  15
ENDBRANCH  10  12
BRANCH   1  21
ATOM     21  O   UNL     1       5.967   5.589  19.019  0.00  0.00    +0.000 OA
BRANCH  21  23
ATOM     22  C   UNL     1       7.922   4.612  18.172  0.00  0.00    +0.000 C 
ATOM     23  C   UNL     1       7.226   5.200  19.360  0.00  0.00    +0.000 C 
ATOM     24  O   UNL     1       7.745   5.373  20.455  0.00  0.00    +0.000 OA
ENDBRANCH  21  23
ENDBRANCH   1  21
BRANCH   4  25
ATOM     25  O   UNL     1       1.428   4.523  19.083  0.00  0.00    +0.000 OA
BRANCH  25  26
ATOM     26  C   UNL     1       1.101   3.195  19.146  0.00  0.00    +0.000 C 
ATOM     27  C   UNL     1       1.305   2.656  20.529  0.00  0.00    +0.000 C 
ATOM     28  O   UNL     1       0.684   2.533  18.209  0.00  0.00    +0.000 OA
ENDBRANCH  25  26
ENDBRANCH   4  25
TORSDOF 8
ENDMDL
MODEL 4
REMARK VINA RESULT:      -7.2      2.674      7.443
REMARK  Name = 
REMARK  13 active torsions:
REMARK  status: ('A' for Active; 'I' for Inactive)
REMARK    1  A    between atoms: C_1  and  C_2
REMARK    2  A    between atoms: C_2  and  O_4
REMARK    3  A    between atoms: O_4  and  C_5
REMARK    4  A    between atoms: C_8  and  O_9
REMARK    5  A    between atoms: O_9  and  C_10
REMARK    6  A    between atoms: C_10  and  C_11
REMARK    7  A    between atoms: C_18  and  C_19
REMARK    8  A    between atoms: C_20  and  C_21
REMARK    9  A    between atoms: C_20  and  C_22
REMARK   10  A    between atoms: C_22  and  C_23
REMARK   11  A    between atoms: C_23  and  C_24
REMARK   12  A    between atoms: C_25  and  C_26
REMARK   13  A    between atoms: C_25  and  C_27
REMARK                            x       y       z     vdW  Elec       q    Type
REMARK                         _______ _______ _______ _____ _____    ______ ____
ROOT
ATOM      1  C   UNL     1       3.139   2.919  18.322  0.00  0.00    +0.000 C 
ATOM      2  C   UNL     1       3.826   2.901  19.689  0.00  0.00    +0.000 C 
ATOM      3  C   UNL     1       4.707   4.103  20.050  0.00  0.00    +0.000 C 
ATOM      4  C   UNL     1       5.413   4.798  18.876  0.00  0.00    +0.000 C 
ATOM      5  C   UNL     1       4.496   5.013  17.646  0.00  0.00    +0.000 C 
ATOM      6  C   UNL     1       5.309   5.563  16.460  0.00  0.00    +0.000 C 
ATOM      7  C   UNL     1       4.653   6.851  16.091  0.00  0.00    +0.000 C 
ATOM      8  O   UNL     1       4.919   7.512  15.099  0.00  0.00    +0.000 OA
ATOM      9  O   UNL     1       3.763   7.221  17.037  0.00  0.00    +0.000 OA
ATOM     10  C   UNL     1       3.359   6.077  17.793  0.00  0.00    +0.000 C 
ATOM     11  C   UNL     1       3.959   3.609  17.237  0.00  0.00    +0.000 C 
ENDROOT
BRANCH  10  12
ATOM     12  C   UNL     1       2.922   6.607  19.147  0.00  0.00    +0.000 C 
ATOM     13  C   UNL     1       2.167   7.704  19.393  0.00  0.00    +0.000 C 
ATOM     14  C   UNL     1       1.780   8.687  18.314  0.00  0.00    +0.000 C 
BRANCH  13  15
ATOM     15  C   UNL     1       1.655   8.141  20.772  0.00  0.00    +0.000 C 
BRANCH  15  16
ATOM     16  C   UNL     1       0.168   7.930  21.094  0.00  0.00    +0.000 C 
BRANCH  16  17
ATOM     17  C   UNL     1      -0.394   8.933  22.077  0.00  0.00    +0.000 C 
ATOM     18  C   UNL     1      -0.619  10.247  21.873  0.00  0.00    +0.000 C 
ATOM     19  C   UNL     1      -0.472  10.940  20.547  0.00  0.00    +0.000 C 
ATOM     20  C   UNL     1      -1.036  11.156  23.003  0.00  0.00    +0.000 C 
ENDBRANCH  16  17
ENDBRANCH  15  16
ENDBRANCH  13  15
ENDBRANCH  10  12
BRANCH   1  21
ATOM     21  O   UNL     1       1.868   3.593  18.340  0.00  0.00    +0.000 OA
BRANCH  21  23
ATOM     22  C   UNL     1       0.746   3.919  20.372  0.00  0.00    +0.000 C 
ATOM     23  C   UNL     1       0.914   3.064  19.155  0.00  0.00    +0.000 C 
ATOM     24  O   UNL     1       0.237   2.076  18.900  0.00  0.00    +0.000 OA
ENDBRANCH  21  23
ENDBRANCH   1  21
BRANCH   4  25
ATOM     25  O   UNL     1       6.515   3.947  18.449  0.00  0.00    +0.000 OA
BRANCH  25  26
ATOM     26  C   UNL     1       7.695   4.565  18.128  0.00  0.00    +0.000 C 
ATOM     27  C   UNL     1       7.965   5.718  19.046  0.00  0.00    +0.000 C 
ATOM     28  O   UNL     1       8.441   4.220  17.225  0.00  0.00    +0.000 OA
ENDBRANCH  25  26
ENDBRANCH   4  25
TORSDOF 8
ENDMDL
MODEL 5
REMARK VINA RESULT:      -7.0      0.723      1.105
REMARK  Name = 
REMARK  13 active torsions:
REMARK  status: ('A' for Active; 'I' for Inactive)
REMARK    1  A    between atoms: C_1  and  C_2
REMARK    2  A    between atoms: C_2  and  O_4
REMARK    3  A    between atoms: O_4  and  C_5
REMARK    4  A    between atoms: C_8  and  O_9
REMARK    5  A    between atoms: O_9  and  C_10
REMARK    6  A    between atoms: C_10  and  C_11
REMARK    7  A    between atoms: C_18  and  C_19
REMARK    8  A    between atoms: C_20  and  C_21
REMARK    9  A    between atoms: C_20  and  C_22
REMARK   10  A    between atoms: C_22  and  C_23
REMARK   11  A    between atoms: C_23  and  C_24
REMARK   12  A    between atoms: C_25  and  C_26
REMARK   13  A    between atoms: C_25  and  C_27
REMARK                            x       y       z     vdW  Elec       q    Type
REMARK                         _______ _______ _______ _____ _____    ______ ____
ROOT
ATOM      1  C   UNL     1       5.471   4.446  19.658  0.00  0.00    +0.000 C 
ATOM      2  C   UNL     1       4.759   3.130  19.339  0.00  0.00    +0.000 C 
ATOM      3  C   UNL     1       3.528   3.198  18.426  0.00  0.00    +0.000 C 
ATOM      4  C   UNL     1       2.697   4.487  18.510  0.00  0.00    +0.000 C 
ATOM      5  C   UNL     1       3.560   5.775  18.533  0.00  0.00    +0.000 C 
ATOM      6  C   UNL     1       2.673   7.010  18.779  0.00  0.00    +0.000 C 
ATOM      7  C   UNL     1       2.909   7.907  17.612  0.00  0.00    +0.000 C 
ATOM      8  O   UNL     1       2.497   9.054  17.517  0.00  0.00    +0.000 OA
ATOM      9  O   UNL     1       3.590   7.261  16.642  0.00  0.00    +0.000 OA
ATOM     10  C   UNL     1       4.296   6.153  17.205  0.00  0.00    +0.000 C 
ATOM     11  C   UNL     1       4.529   5.643  19.745  0.00  0.00    +0.000 C 
ENDROOT
BRANCH  10  12
ATOM     12  C   UNL     1       4.478   5.157  16.074  0.00  0.00    +0.000 C 
ATOM     13  C   UNL     1       5.598   4.940  15.346  0.00  0.00    +0.000 C 
ATOM     14  C   UNL     1       6.824   5.816  15.453  0.00  0.00    +0.000 C 
BRANCH  13  15
ATOM     15  C   UNL     1       5.773   3.844  14.285  0.00  0.00    +0.000 C 
BRANCH  15  16
ATOM     16  C   UNL     1       6.604   4.170  13.035  0.00  0.00    +0.000 C 
BRANCH  16  17
ATOM     17  C   UNL     1       6.833   2.983  12.126  0.00  0.00    +0.000 C 
ATOM     18  C   UNL     1       5.910   2.300  11.419  0.00  0.00    +0.000 C 
ATOM     19  C   UNL     1       4.464   2.693  11.300  0.00  0.00    +0.000 C 
ATOM     20  C   UNL     1       6.269   1.034  10.677  0.00  0.00    +0.000 C 
ENDBRANCH  16  17
ENDBRANCH  15  16
ENDBRANCH  13  15
ENDBRANCH  10  12
BRANCH   1  21
ATOM     21  O   UNL     1       6.464   4.800  18.678  0.00  0.00    +0.000 OA
BRANCH  21  23
ATOM     22  C   UNL     1       8.136   5.261  20.255  0.00  0.00    +0.000 C 
ATOM     23  C   UNL     1       7.379   5.735  19.054  0.00  0.00    +0.000 C 
ATOM     24  O   UNL     1       7.606   6.779  18.456  0.00  0.00    +0.000 OA
ENDBRANCH  21  23
ENDBRANCH   1  21
BRANCH   4  25
ATOM     25  O   UNL     1       1.941   4.453  19.754  0.00  0.00    +0.000 OA
BRANCH  25  26
ATOM     26  C   UNL     1       1.181   3.340  19.994  0.00  0.00    +0.000 C 
ATOM     27  C   UNL     1       1.403   2.825  21.383  0.00  0.00    +0.000 C 
ATOM     28  O   UNL     1       0.410   2.835  19.192  0.00  0.00    +0.000 OA
ENDBRANCH  25  26
ENDBRANCH   4  25
TORSDOF 8
ENDMDL
MODEL 6
REMARK VINA RESULT:      -6.9      3.535      7.033
REMARK  Name = 
REMARK  13 active torsions:
REMARK  status: ('A' for Active; 'I' for Inactive)
REMARK    1  A    between atoms: C_1  and  C_2
REMARK    2  A    between atoms: C_2  and  O_4
REMARK    3  A    between atoms: O_4  and  C_5
REMARK    4  A    between atoms: C_8  and  O_9
REMARK    5  A    between atoms: O_9  and  C_10
REMARK    6  A    between atoms: C_10  and  C_11
REMARK    7  A    between atoms: C_18  and  C_19
REMARK    8  A    between atoms: C_20  and  C_21
REMARK    9  A    between atoms: C_20  and  C_22
REMARK   10  A    between atoms: C_22  and  C_23
REMARK   11  A    between atoms: C_23  and  C_24
REMARK   12  A    between atoms: C_25  and  C_26
REMARK   13  A    between atoms: C_25  and  C_27
REMARK                            x       y       z     vdW  Elec       q    Type
REMARK                         _______ _______ _______ _____ _____    ______ ____
ROOT
ATOM      1  C   UNL     1       6.053   5.148  15.471  0.00  0.00    +0.000 C 
ATOM      2  C   UNL     1       4.908   6.156  15.357  0.00  0.00    +0.000 C 
ATOM      3  C   UNL     1       4.651   7.069  16.563  0.00  0.00    +0.000 C 
ATOM      4  C   UNL     1       4.979   6.474  17.941  0.00  0.00    +0.000 C 
ATOM      5  C   UNL     1       6.330   5.715  17.978  0.00  0.00    +0.000 C 
ATOM      6  C   UNL     1       6.513   5.014  19.336  0.00  0.00    +0.000 C 
ATOM      7  C   UNL     1       7.787   5.553  19.893  0.00  0.00    +0.000 C 
ATOM      8  O   UNL     1       8.349   5.128  20.891  0.00  0.00    +0.000 OA
ATOM      9  O   UNL     1       8.207   6.619  19.179  0.00  0.00    +0.000 OA
ATOM     10  C   UNL     1       7.627   6.583  17.873  0.00  0.00    +0.000 C 
ATOM     11  C   UNL     1       6.253   4.609  16.883  0.00  0.00    +0.000 C 
ENDROOT
BRANCH  10  12
ATOM     12  C   UNL     1       7.596   8.022  17.392  0.00  0.00    +0.000 C 
ATOM     13  C   UNL     1       8.237   9.082  17.938  0.00  0.00    +0.000 C 
ATOM     14  C   UNL     1       8.968   9.003  19.257  0.00  0.00    +0.000 C 
BRANCH  13  15
ATOM     15  C   UNL     1       8.269  10.502  17.354  0.00  0.00    +0.000 C 
BRANCH  15  16
ATOM     16  C   UNL     1       8.875  11.625  18.208  0.00  0.00    +0.000 C 
BRANCH  16  17
ATOM     17  C   UNL     1      10.003  12.369  17.531  0.00  0.00    +0.000 C 
ATOM     18  C   UNL     1      11.307  12.374  17.874  0.00  0.00    +0.000 C 
ATOM     19  C   UNL     1      11.910  11.506  18.944  0.00  0.00    +0.000 C 
ATOM     20  C   UNL     1      12.294  13.294  17.196  0.00  0.00    +0.000 C 
ENDBRANCH  16  17
ENDBRANCH  15  16
ENDBRANCH  13  15
ENDBRANCH  10  12
BRANCH   1  21
ATOM     21  O   UNL     1       7.325   5.695  15.077  0.00  0.00    +0.000 OA
BRANCH  21  23
ATOM     22  C   UNL     1       6.915   4.280  13.254  0.00  0.00    +0.000 C 
ATOM     23  C   UNL     1       7.762   5.371  13.830  0.00  0.00    +0.000 C 
ATOM     24  O   UNL     1       8.668   5.938  13.230  0.00  0.00    +0.000 OA
ENDBRANCH  21  23
ENDBRANCH   1  21
BRANCH   4  25
ATOM     25  O   UNL     1       3.936   5.513  18.274  0.00  0.00    +0.000 OA
BRANCH  25  26
ATOM     26  C   UNL     1       3.016   5.889  19.216  0.00  0.00    +0.000 C 
ATOM     27  C   UNL     1       2.731   4.768  20.167  0.00  0.00    +0.000 C 
ATOM     28  O   UNL     1       2.503   6.995  19.288  0.00  0.00    +0.000 OA
ENDBRANCH  25  26
ENDBRANCH   4  25
TORSDOF 8
ENDMDL
MODEL 7
REMARK VINA RESULT:      -6.7      6.286      9.385
REMARK  Name = 
REMARK  13 active torsions:
REMARK  status: ('A' for Active; 'I' for Inactive)
REMARK    1  A    between atoms: C_1  and  C_2
REMARK    2  A    between atoms: C_2  and  O_4
REMARK    3  A    between atoms: O_4  and  C_5
REMARK    4  A    between atoms: C_8  and  O_9
REMARK    5  A    between atoms: O_9  and  C_10
REMARK    6  A    between atoms: C_10  and  C_11
REMARK    7  A    between atoms: C_18  and  C_19
REMARK    8  A    between atoms: C_20  and  C_21
REMARK    9  A    between atoms: C_20  and  C_22
REMARK   10  A    between atoms: C_22  and  C_23
REMARK   11  A    between atoms: C_23  and  C_24
REMARK   12  A    between atoms: C_25  and  C_26
REMARK   13  A    between atoms: C_25  and  C_27
REMARK                            x       y       z     vdW  Elec       q    Type
REMARK                         _______ _______ _______ _____ _____    ______ ____
ROOT
ATOM      1  C   UNL     1       0.154  13.657  20.765  0.00  0.00    +0.000 C 
ATOM      2  C   UNL     1      -0.010  13.188  22.212  0.00  0.00    +0.000 C 
ATOM      3  C   UNL     1      -1.004  12.051  22.475  0.00  0.00    +0.000 C 
ATOM      4  C   UNL     1      -2.216  11.983  21.534  0.00  0.00    +0.000 C 
ATOM      5  C   UNL     1      -1.850  12.192  20.043  0.00  0.00    +0.000 C 
ATOM      6  C   UNL     1      -3.125  12.271  19.184  0.00  0.00    +0.000 C 
ATOM      7  C   UNL     1      -2.991  11.184  18.171  0.00  0.00    +0.000 C 
ATOM      8  O   UNL     1      -3.735  11.023  17.216  0.00  0.00    +0.000 OA
ATOM      9  O   UNL     1      -1.969  10.361  18.487  0.00  0.00    +0.000 OA
ATOM     10  C   UNL     1      -1.051  11.040  19.347  0.00  0.00    +0.000 C 
ATOM     11  C   UNL     1      -1.131  13.570  19.947  0.00  0.00    +0.000 C 
ENDROOT
BRANCH  10  12
ATOM     12  C   UNL     1      -0.345   9.956  20.141  0.00  0.00    +0.000 C 
ATOM     13  C   UNL     1       0.750   9.252  19.771  0.00  0.00    +0.000 C 
ATOM     14  C   UNL     1       1.346   9.336  18.386  0.00  0.00    +0.000 C 
BRANCH  13  15
ATOM     15  C   UNL     1       1.499   8.242  20.652  0.00  0.00    +0.000 C 
BRANCH  15  16
ATOM     16  C   UNL     1       2.216   7.070  19.965  0.00  0.00    +0.000 C 
BRANCH  16  17
ATOM     17  C   UNL     1       1.855   5.715  20.532  0.00  0.00    +0.000 C 
ATOM     18  C   UNL     1       1.596   4.581  19.849  0.00  0.00    +0.000 C 
ATOM     19  C   UNL     1       1.756   4.427  18.362  0.00  0.00    +0.000 C 
ATOM     20  C   UNL     1       1.093   3.341  20.549  0.00  0.00    +0.000 C 
ENDBRANCH  16  17
ENDBRANCH  15  16
ENDBRANCH  13  15
ENDBRANCH  10  12
BRANCH   1  21
ATOM     21  O   UNL     1       1.135  12.897  20.035  0.00  0.00    +0.000 OA
BRANCH  21  23
ATOM     22  C   UNL     1       2.479  12.800  18.117  0.00  0.00    +0.000 C 
ATOM     23  C   UNL     1       2.020  13.611  19.288  0.00  0.00    +0.000 C 
ATOM     24  O   UNL     1       2.340  14.775  19.495  0.00  0.00    +0.000 OA
ENDBRANCH  21  23
ENDBRANCH   1  21
BRANCH   4  25
ATOM     25  O   UNL     1      -3.133  13.052  21.906  0.00  0.00    +0.000 OA
BRANCH  25  26
ATOM     26  C   UNL     1      -4.244  12.701  22.625  0.00  0.00    +0.000 C 
ATOM     27  C   UNL     1      -4.017  12.891  24.094  0.00  0.00    +0.000 C 
ATOM     28  O   UNL     1      -5.291  12.299  22.141  0.00  0.00    +0.000 OA
ENDBRANCH  25  26
ENDBRANCH   4  25
TORSDOF 8
ENDMDL
MODEL 8
REMARK VINA RESULT:      -6.4      0.732      1.043
REMARK  Name = 
REMARK  13 active torsions:
REMARK  status: ('A' for Active; 'I' for Inactive)
REMARK    1  A    between atoms: C_1  and  C_2
REMARK    2  A    between atoms: C_2  and  O_4
REMARK    3  A    between atoms: O_4  and  C_5
REMARK    4  A    between atoms: C_8  and  O_9
REMARK    5  A    between atoms: O_9  and  C_10
REMARK    6  A    between atoms: C_10  and  C_11
REMARK    7  A    between atoms: C_18  and  C_19
REMARK    8  A    between atoms: C_20  and  C_21
REMARK    9  A    between atoms: C_20  and  C_22
REMARK   10  A    between atoms: C_22  and  C_23
REMARK   11  A    between atoms: C_23  and  C_24
REMARK   12  A    between atoms: C_25  and  C_26
REMARK   13  A    between atoms: C_25  and  C_27
REMARK                            x       y       z     vdW  Elec       q    Type
REMARK                         _______ _______ _______ _____ _____    ______ ____
ROOT
ATOM      1  C   UNL     1       5.611   4.287  19.564  0.00  0.00    +0.000 C 
ATOM      2  C   UNL     1       4.918   2.959  19.250  0.00  0.00    +0.000 C 
ATOM      3  C   UNL     1       3.699   3.004  18.321  0.00  0.00    +0.000 C 
ATOM      4  C   UNL     1       2.852   4.283  18.381  0.00  0.00    +0.000 C 
ATOM      5  C   UNL     1       3.699   5.581  18.401  0.00  0.00    +0.000 C 
ATOM      6  C   UNL     1       2.794   6.808  18.623  0.00  0.00    +0.000 C 
ATOM      7  C   UNL     1       3.035   7.696  17.449  0.00  0.00    +0.000 C 
ATOM      8  O   UNL     1       2.611   8.836  17.337  0.00  0.00    +0.000 OA
ATOM      9  O   UNL     1       3.736   7.048  16.495  0.00  0.00    +0.000 OA
ATOM     10  C   UNL     1       4.448   5.954  17.079  0.00  0.00    +0.000 C 
ATOM     11  C   UNL     1       4.654   5.473  19.626  0.00  0.00    +0.000 C 
ENDROOT
BRANCH  10  12
ATOM     12  C   UNL     1       4.655   4.949  15.961  0.00  0.00    +0.000 C 
ATOM     13  C   UNL     1       5.742   4.823  15.163  0.00  0.00    +0.000 C 
ATOM     14  C   UNL     1       6.878   5.819  15.169  0.00  0.00    +0.000 C 
BRANCH  13  15
ATOM     15  C   UNL     1       5.958   3.720  14.118  0.00  0.00    +0.000 C 
BRANCH  15  16
ATOM     16  C   UNL     1       5.548   4.006  12.665  0.00  0.00    +0.000 C 
BRANCH  16  17
ATOM     17  C   UNL     1       4.576   2.998  12.094  0.00  0.00    +0.000 C 
ATOM     18  C   UNL     1       3.734   3.167  11.054  0.00  0.00    +0.000 C 
ATOM     19  C   UNL     1       3.707   4.381  10.168  0.00  0.00    +0.000 C 
ATOM     20  C   UNL     1       2.707   2.119  10.698  0.00  0.00    +0.000 C 
ENDBRANCH  16  17
ENDBRANCH  15  16
ENDBRANCH  13  15
ENDBRANCH  10  12
BRANCH   1  21
ATOM     21  O   UNL     1       6.612   4.642  18.593  0.00  0.00    +0.000 OA
BRANCH  21  23
ATOM     22  C   UNL     1       7.757   6.657  18.239  0.00  0.00    +0.000 C 
ATOM     23  C   UNL     1       7.650   5.399  19.043  0.00  0.00    +0.000 C 
ATOM     24  O   UNL     1       8.350   5.131  20.012  0.00  0.00    +0.000 OA
ENDBRANCH  21  23
ENDBRANCH   1  21
BRANCH   4  25
ATOM     25  O   UNL     1       2.080   4.253  19.615  0.00  0.00    +0.000 OA
BRANCH  25  26
ATOM     26  C   UNL     1       1.362   3.117  19.876  0.00  0.00    +0.000 C 
ATOM     27  C   UNL     1       0.556   2.704  18.683  0.00  0.00    +0.000 C 
ATOM     28  O   UNL     1       1.381   2.506  20.934  0.00  0.00    +0.000 OA
ENDBRANCH  25  26
ENDBRANCH   4  25
TORSDOF 8
ENDMDL
MODEL 9
REMARK VINA RESULT:      -6.4      2.518      6.360
REMARK  Name = 
REMARK  13 active torsions:
REMARK  status: ('A' for Active; 'I' for Inactive)
REMARK    1  A    between atoms: C_1  and  C_2
REMARK    2  A    between atoms: C_2  and  O_4
REMARK    3  A    between atoms: O_4  and  C_5
REMARK    4  A    between atoms: C_8  and  O_9
REMARK    5  A    between atoms: O_9  and  C_10
REMARK    6  A    between atoms: C_10  and  C_11
REMARK    7  A    between atoms: C_18  and  C_19
REMARK    8  A    between atoms: C_20  and  C_21
REMARK    9  A    between atoms: C_20  and  C_22
REMARK   10  A    between atoms: C_22  and  C_23
REMARK   11  A    between atoms: C_23  and  C_24
REMARK   12  A    between atoms: C_25  and  C_26
REMARK   13  A    between atoms: C_25  and  C_27
REMARK                            x       y       z     vdW  Elec       q    Type
REMARK                         _______ _______ _______ _____ _____    ______ ____
ROOT
ATOM      1  C   UNL     1       2.261   6.860  18.223  0.00  0.00    +0.000 C 
ATOM      2  C   UNL     1       2.863   6.685  19.618  0.00  0.00    +0.000 C 
ATOM      3  C   UNL     1       4.194   5.929  19.721  0.00  0.00    +0.000 C 
ATOM      4  C   UNL     1       4.430   4.834  18.670  0.00  0.00    +0.000 C 
ATOM      5  C   UNL     1       4.037   5.263  17.234  0.00  0.00    +0.000 C 
ATOM      6  C   UNL     1       4.148   4.070  16.268  0.00  0.00    +0.000 C 
ATOM      7  C   UNL     1       5.104   4.503  15.208  0.00  0.00    +0.000 C 
ATOM      8  O   UNL     1       5.337   3.884  14.181  0.00  0.00    +0.000 OA
ATOM      9  O   UNL     1       5.728   5.645  15.567  0.00  0.00    +0.000 OA
ATOM     10  C   UNL     1       4.947   6.334  16.546  0.00  0.00    +0.000 C 
ATOM     11  C   UNL     1       2.540   5.688  17.287  0.00  0.00    +0.000 C 
ENDROOT
BRANCH  10  12
ATOM     12  C   UNL     1       5.926   7.185  17.335  0.00  0.00    +0.000 C 
ATOM     13  C   UNL     1       7.169   6.837  17.744  0.00  0.00    +0.000 C 
ATOM     14  C   UNL     1       7.709   5.433  17.610  0.00  0.00    +0.000 C 
BRANCH  13  15
ATOM     15  C   UNL     1       8.170   7.767  18.443  0.00  0.00    +0.000 C 
BRANCH  15  16
ATOM     16  C   UNL     1       8.064   9.277  18.180  0.00  0.00    +0.000 C 
BRANCH  16  17
ATOM     17  C   UNL     1       9.388  10.004  18.244  0.00  0.00    +0.000 C 
ATOM     18  C   UNL     1       9.867  10.752  19.260  0.00  0.00    +0.000 C 
ATOM     19  C   UNL     1       9.205  10.888  20.603  0.00  0.00    +0.000 C 
ATOM     20  C   UNL     1      11.141  11.549  19.115  0.00  0.00    +0.000 C 
ENDBRANCH  16  17
ENDBRANCH  15  16
ENDBRANCH  13  15
ENDBRANCH  10  12
BRANCH   1  21
ATOM     21  O   UNL     1       2.749   8.030  17.542  0.00  0.00    +0.000 OA
BRANCH  21  23
ATOM     22  C   UNL     1       0.599   8.922  17.812  0.00  0.00    +0.000 C 
ATOM     23  C   UNL     1       2.071   9.188  17.766  0.00  0.00    +0.000 C 
ATOM     24  O   UNL     1       2.587  10.279  17.975  0.00  0.00    +0.000 OA
ENDBRANCH  21  23
ENDBRANCH   1  21
BRANCH   4  25
ATOM     25  O   UNL     1       3.598   3.690  19.020  0.00  0.00    +0.000 OA
BRANCH  25  26
ATOM     26  C   UNL     1       4.241   2.531  19.364  0.00  0.00    +0.000 C 
ATOM     27  C   UNL     1       3.689   1.364  18.603  0.00  0.00    +0.000 C 
ATOM     28  O   UNL     1       5.153   2.451  20.171  0.00  0.00    +0.000 OA
ENDBRANCH  25  26
ENDBRANCH   4  25
TORSDOF 8
ENDMDL
