MODEL 1
REMARK VINA RESULT:      -8.2      0.000      0.000
REMARK  Name = 
REMARK  1 active torsions:
REMARK  status: ('A' for Active; 'I' for Inactive)
REMARK    1  A    between atoms: C_2  and  C_3
REMARK                            x       y       z     vdW  Elec       q    Type
REMARK                         _______ _______ _______ _____ _____    ______ ____
ROOT
ATOM      1  C   UNL     1       2.728   7.266  18.134  0.00  0.00    +0.000 A 
ATOM      2  N   UNL     1       2.645   8.413  17.370  0.00  0.00    +0.000 NA
ATOM      3  N   UNL     1       1.966   9.328  18.050  0.00  0.00    +0.000 NA
ATOM      4  N   UNL     1       1.666   8.793  19.246  0.00  0.00    +0.000 N 
ATOM      5  C   UNL     1       2.166   7.527  19.369  0.00  0.00    +0.000 A 
ATOM      6  C   UNL     1       1.983   6.768  20.561  0.00  0.00    +0.000 A 
ATOM      7  O   UNL     1       2.369   5.619  20.740  0.00  0.00    +0.000 OA
ATOM      8  N   UNL     1       1.284   7.419  21.557  0.00  0.00    +0.000 N 
ATOM      9  C   UNL     1       0.731   8.705  21.426  0.00  0.00    +0.000 A 
ATOM     10  C   UNL     1      -0.006   9.268  22.466  0.00  0.00    +0.000 A 
ATOM     11  C   UNL     1      -0.572  10.529  22.286  0.00  0.00    +0.000 A 
ATOM     12  F   UNL     1      -1.276  11.077  23.285  0.00  0.00    +0.000 F 
ATOM     13  C   UNL     1      -0.419  11.235  21.092  0.00  0.00    +0.000 A 
ATOM     14  C   UNL     1       0.325  10.681  20.049  0.00  0.00    +0.000 A 
ATOM     15  C   UNL     1       0.901   9.422  20.235  0.00  0.00    +0.000 A 
ATOM     16  H   UNL     1       1.152   6.888  22.414  0.00  0.00    +0.000 HD
ENDROOT
BRANCH   1  18
ATOM     17  O   UNL     1       2.595   5.024  17.488  0.00  0.00    +0.000 OA
ATOM     18  C   UNL     1       3.303   6.015  17.645  0.00  0.00    +0.000 C 
ATOM     19  N   UNL     1       4.686   6.018  17.341  0.00  0.00    +0.000 N 
ATOM     20  C   UNL     1       5.254   4.829  16.702  0.00  0.00    +0.000 C 
ATOM     21  C   UNL     1       6.236   4.070  17.597  0.00  0.00    +0.000 C 
ATOM     22  C   UNL     1       7.588   4.748  17.814  0.00  0.00    +0.000 C 
ATOM     23  C   UNL     1       7.509   6.171  18.353  0.00  0.00    +0.000 C 
ATOM     24  C   UNL     1       6.979   7.141  17.303  0.00  0.00    +0.000 C 
ATOM     25  C   UNL     1       5.461   7.261  17.301  0.00  0.00    +0.000 C 
ENDBRANCH   1  18
TORSDOF 1
ENDMDL
MODEL 2
REMARK VINA RESULT:      -7.7      3.315      7.293
REMARK  Name = 
REMARK  1 active torsions:
REMARK  status: ('A' for Active; 'I' for Inactive)
REMARK    1  A    between atoms: C_2  and  C_3
REMARK                            x       y       z     vdW  Elec       q    Type
REMARK                         _______ _______ _______ _____ _____    ______ ____
ROOT
ATOM      1  C   UNL     1       1.349   9.819  18.857  0.00  0.00    +0.000 A 
ATOM      2  N   UNL     1       1.858   9.801  17.574  0.00  0.00    +0.000 NA
ATOM      3  N   UNL     1       2.468   8.639  17.375  0.00  0.00    +0.000 NA
ATOM      4  N   UNL     1       2.306   7.909  18.492  0.00  0.00    +0.000 N 
ATOM      5  C   UNL     1       1.568   8.580  19.427  0.00  0.00    +0.000 A 
ATOM      6  C   UNL     1       1.256   7.993  20.688  0.00  0.00    +0.000 A 
ATOM      7  O   UNL     1       0.631   8.536  21.591  0.00  0.00    +0.000 OA
ATOM      8  N   UNL     1       1.746   6.715  20.866  0.00  0.00    +0.000 N 
ATOM      9  C   UNL     1       2.540   6.033  19.927  0.00  0.00    +0.000 A 
ATOM     10  C   UNL     1       3.036   4.762  20.210  0.00  0.00    +0.000 A 
ATOM     11  C   UNL     1       3.852   4.132  19.271  0.00  0.00    +0.000 A 
ATOM     12  F   UNL     1       4.326   2.907  19.536  0.00  0.00    +0.000 F 
ATOM     13  C   UNL     1       4.182   4.745  18.062  0.00  0.00    +0.000 A 
ATOM     14  C   UNL     1       3.681   6.014  17.768  0.00  0.00    +0.000 A 
ATOM     15  C   UNL     1       2.855   6.640  18.705  0.00  0.00    +0.000 A 
ATOM     16  H   UNL     1       1.525   6.286  21.760  0.00  0.00    +0.000 HD
ENDROOT
BRANCH   1  18
ATOM     17  O   UNL     1       1.256  11.577  20.392  0.00  0.00    +0.000 OA
ATOM     18  C   UNL     1       0.719  10.993  19.455  0.00  0.00    +0.000 C 
ATOM     19  N   UNL     1      -0.503  11.429  18.887  0.00  0.00    +0.000 N 
ATOM     20  C   UNL     1      -1.073  12.691  19.361  0.00  0.00    +0.000 C 
ATOM     21  C   UNL     1      -2.382  12.514  20.132  0.00  0.00    +0.000 C 
ATOM     22  C   UNL     1      -3.600  12.143  19.287  0.00  0.00    +0.000 C 
ATOM     23  C   UNL     1      -3.422  10.897  18.426  0.00  0.00    +0.000 C 
ATOM     24  C   UNL     1      -2.460  11.147  17.270  0.00  0.00    +0.000 C 
ATOM     25  C   UNL     1      -1.004  10.875  17.626  0.00  0.00    +0.000 C 
ENDBRANCH   1  18
TORSDOF 1
ENDMDL
MODEL 3
REMARK VINA RESULT:      -7.7      4.163      5.344
REMARK  Name = 
REMARK  1 active torsions:
REMARK  status: ('A' for Active; 'I' for Inactive)
REMARK    1  A    between atoms: C_2  and  C_3
REMARK                            x       y       z     vdW  Elec       q    Type
REMARK                         _______ _______ _______ _____ _____    ______ ____
ROOT
ATOM      1  C   UNL     1       5.213   6.057  16.991  0.00  0.00    +0.000 A 
ATOM      2  N   UNL     1       4.088   6.820  16.748  0.00  0.00    +0.000 NA
ATOM      3  N   UNL     1       3.113   6.405  17.548  0.00  0.00    +0.000 NA
ATOM      4  N   UNL     1       3.622   5.432  18.322  0.00  0.00    +0.000 N 
ATOM      5  C   UNL     1       4.943   5.213  18.051  0.00  0.00    +0.000 A 
ATOM      6  C   UNL     1       5.696   4.234  18.762  0.00  0.00    +0.000 A 
ATOM      7  O   UNL     1       6.871   3.954  18.559  0.00  0.00    +0.000 OA
ATOM      8  N   UNL     1       4.987   3.555  19.731  0.00  0.00    +0.000 N 
ATOM      9  C   UNL     1       3.617   3.743  19.990  0.00  0.00    +0.000 A 
ATOM     10  C   UNL     1       2.967   2.975  20.954  0.00  0.00    +0.000 A 
ATOM     11  C   UNL     1       1.601   3.163  21.156  0.00  0.00    +0.000 A 
ATOM     12  F   UNL     1       0.973   2.432  22.087  0.00  0.00    +0.000 F 
ATOM     13  C   UNL     1       0.874   4.096  20.416  0.00  0.00    +0.000 A 
ATOM     14  C   UNL     1       1.520   4.874  19.455  0.00  0.00    +0.000 A 
ATOM     15  C   UNL     1       2.892   4.693  19.260  0.00  0.00    +0.000 A 
ATOM     16  H   UNL     1       5.515   2.857  20.248  0.00  0.00    +0.000 HD
ENDROOT
BRANCH   1  18
ATOM     17  O   UNL     1       7.255   7.048  16.436  0.00  0.00    +0.000 OA
ATOM     18  C   UNL     1       6.439   6.160  16.203  0.00  0.00    +0.000 C 
ATOM     19  N   UNL     1       6.643   5.183  15.198  0.00  0.00    +0.000 N 
ATOM     20  C   UNL     1       7.931   5.167  14.503  0.00  0.00    +0.000 C 
ATOM     21  C   UNL     1       7.828   5.555  13.026  0.00  0.00    +0.000 C 
ATOM     22  C   UNL     1       7.187   4.510  12.114  0.00  0.00    +0.000 C 
ATOM     23  C   UNL     1       5.800   4.051  12.548  0.00  0.00    +0.000 C 
ATOM     24  C   UNL     1       5.860   3.191  13.805  0.00  0.00    +0.000 C 
ATOM     25  C   UNL     1       5.787   3.998  15.095  0.00  0.00    +0.000 C 
ENDBRANCH   1  18
TORSDOF 1
ENDMDL
MODEL 4
REMARK VINA RESULT:      -7.6      2.609      4.054
REMARK  Name = 
REMARK  1 active torsions:
REMARK  status: ('A' for Active; 'I' for Inactive)
REMARK    1  A    between atoms: C_2  and  C_3
REMARK                            x       y       z     vdW  Elec       q    Type
REMARK                         _______ _______ _______ _____ _____    ______ ____
ROOT
ATOM      1  C   UNL     1       2.155   7.242  19.851  0.00  0.00    +0.000 A 
ATOM      2  N   UNL     1       1.592   7.171  21.110  0.00  0.00    +0.000 NA
ATOM      3  N   UNL     1       0.929   8.296  21.343  0.00  0.00    +0.000 NA
ATOM      4  N   UNL     1       1.022   9.049  20.233  0.00  0.00    +0.000 N 
ATOM      5  C   UNL     1       1.732   8.414  19.254  0.00  0.00    +0.000 A 
ATOM      6  C   UNL     1       1.947   9.018  17.981  0.00  0.00    +0.000 A 
ATOM      7  O   UNL     1       2.597   8.533  17.063  0.00  0.00    +0.000 OA
ATOM      8  N   UNL     1       1.377  10.265  17.832  0.00  0.00    +0.000 N 
ATOM      9  C   UNL     1       0.680  10.945  18.847  0.00  0.00    +0.000 A 
ATOM     10  C   UNL     1       0.179  12.227  18.626  0.00  0.00    +0.000 A 
ATOM     11  C   UNL     1      -0.472  12.885  19.667  0.00  0.00    +0.000 A 
ATOM     12  F   UNL     1      -0.961  14.114  19.458  0.00  0.00    +0.000 F 
ATOM     13  C   UNL     1      -0.632  12.292  20.921  0.00  0.00    +0.000 A 
ATOM     14  C   UNL     1      -0.141  11.005  21.146  0.00  0.00    +0.000 A 
ATOM     15  C   UNL     1       0.503  10.342  20.098  0.00  0.00    +0.000 A 
ATOM     16  H   UNL     1       1.520  10.704  16.926  0.00  0.00    +0.000 HD
ENDROOT
BRANCH   1  18
ATOM     17  O   UNL     1       4.108   6.552  18.771  0.00  0.00    +0.000 OA
ATOM     18  C   UNL     1       3.057   6.226  19.316  0.00  0.00    +0.000 C 
ATOM     19  N   UNL     1       2.675   4.872  19.484  0.00  0.00    +0.000 N 
ATOM     20  C   UNL     1       3.631   3.832  19.100  0.00  0.00    +0.000 C 
ATOM     21  C   UNL     1       3.180   3.009  17.892  0.00  0.00    +0.000 C 
ATOM     22  C   UNL     1       2.037   2.030  18.153  0.00  0.00    +0.000 C 
ATOM     23  C   UNL     1       0.784   2.657  18.752  0.00  0.00    +0.000 C 
ATOM     24  C   UNL     1       1.004   3.078  20.201  0.00  0.00    +0.000 C 
ATOM     25  C   UNL     1       1.550   4.494  20.343  0.00  0.00    +0.000 C 
ENDBRANCH   1  18
TORSDOF 1
ENDMDL
MODEL 5
REMARK VINA RESULT:      -7.6      3.615      7.521
REMARK  Name = 
REMARK  1 active torsions:
REMARK  status: ('A' for Active; 'I' for Inactive)
REMARK    1  A    between atoms: C_2  and  C_3
REMARK                            x       y       z     vdW  Elec       q    Type
REMARK                         _______ _______ _______ _____ _____    ______ ____
ROOT
ATOM      1  C   UNL     1       0.753   9.443  20.110  0.00  0.00    +0.000 A 
ATOM      2  N   UNL     1       0.487   8.654  21.212  0.00  0.00    +0.000 NA
ATOM      3  N   UNL     1       1.117   7.495  21.065  0.00  0.00    +0.000 NA
ATOM      4  N   UNL     1       1.813   7.563  19.918  0.00  0.00    +0.000 N 
ATOM      5  C   UNL     1       1.663   8.779  19.311  0.00  0.00    +0.000 A 
ATOM      6  C   UNL     1       2.323   9.084  18.085  0.00  0.00    +0.000 A 
ATOM      7  O   UNL     1       2.217  10.133  17.461  0.00  0.00    +0.000 OA
ATOM      8  N   UNL     1       3.116   8.069  17.589  0.00  0.00    +0.000 N 
ATOM      9  C   UNL     1       3.245   6.801  18.184  0.00  0.00    +0.000 A 
ATOM     10  C   UNL     1       4.028   5.815  17.588  0.00  0.00    +0.000 A 
ATOM     11  C   UNL     1       4.101   4.559  18.185  0.00  0.00    +0.000 A 
ATOM     12  F   UNL     1       4.859   3.610  17.619  0.00  0.00    +0.000 F 
ATOM     13  C   UNL     1       3.409   4.267  19.362  0.00  0.00    +0.000 A 
ATOM     14  C   UNL     1       2.630   5.253  19.970  0.00  0.00    +0.000 A 
ATOM     15  C   UNL     1       2.566   6.515  19.375  0.00  0.00    +0.000 A 
ATOM     16  H   UNL     1       3.595   8.278  16.718  0.00  0.00    +0.000 HD
ENDROOT
BRANCH   1  18
ATOM     17  O   UNL     1       0.453  11.719  20.548  0.00  0.00    +0.000 OA
ATOM     18  C   UNL     1       0.124  10.741  19.881  0.00  0.00    +0.000 C 
ATOM     19  N   UNL     1      -0.845  10.814  18.850  0.00  0.00    +0.000 N 
ATOM     20  C   UNL     1      -1.374  12.132  18.493  0.00  0.00    +0.000 C 
ATOM     21  C   UNL     1      -2.854  12.306  18.844  0.00  0.00    +0.000 C 
ATOM     22  C   UNL     1      -3.834  11.539  17.958  0.00  0.00    +0.000 C 
ATOM     23  C   UNL     1      -3.575  10.039  17.870  0.00  0.00    +0.000 C 
ATOM     24  C   UNL     1      -2.317   9.734  17.065  0.00  0.00    +0.000 C 
ATOM     25  C   UNL     1      -1.049   9.710  17.910  0.00  0.00    +0.000 C 
ENDBRANCH   1  18
TORSDOF 1
ENDMDL
MODEL 6
REMARK VINA RESULT:      -7.4      3.713      7.956
REMARK  Name = 
REMARK  1 active torsions:
REMARK  status: ('A' for Active; 'I' for Inactive)
REMARK    1  A    between atoms: C_2  and  C_3
REMARK                            x       y       z     vdW  Elec       q    Type
REMARK                         _______ _______ _______ _____ _____    ______ ____
ROOT
ATOM      1  C   UNL     1       0.993  11.642  20.258  0.00  0.00    +0.000 A 
ATOM      2  N   UNL     1       1.145  11.762  18.891  0.00  0.00    +0.000 NA
ATOM      3  N   UNL     1       1.453  10.572  18.392  0.00  0.00    +0.000 NA
ATOM      4  N   UNL     1       1.446   9.698  19.414  0.00  0.00    +0.000 N 
ATOM      5  C   UNL     1       1.112  10.306  20.591  0.00  0.00    +0.000 A 
ATOM      6  C   UNL     1       1.026   9.571  21.809  0.00  0.00    +0.000 A 
ATOM      7  O   UNL     1       0.766  10.042  22.909  0.00  0.00    +0.000 OA
ATOM      8  N   UNL     1       1.294   8.222  21.688  0.00  0.00    +0.000 N 
ATOM      9  C   UNL     1       1.679   7.595  20.489  0.00  0.00    +0.000 A 
ATOM     10  C   UNL     1       1.981   6.235  20.467  0.00  0.00    +0.000 A 
ATOM     11  C   UNL     1       2.396   5.656  19.270  0.00  0.00    +0.000 A 
ATOM     12  F   UNL     1       2.681   4.347  19.242  0.00  0.00    +0.000 F 
ATOM     13  C   UNL     1       2.517   6.405  18.098  0.00  0.00    +0.000 A 
ATOM     14  C   UNL     1       2.208   7.766  18.111  0.00  0.00    +0.000 A 
ATOM     15  C   UNL     1       1.781   8.343  19.310  0.00  0.00    +0.000 A 
ATOM     16  H   UNL     1       1.231   7.688  22.550  0.00  0.00    +0.000 HD
ENDROOT
BRANCH   1  18
ATOM     17  O   UNL     1       1.718  13.447  21.551  0.00  0.00    +0.000 OA
ATOM     18  C   UNL     1       0.770  12.781  21.145  0.00  0.00    +0.000 C 
ATOM     19  N   UNL     1      -0.572  13.085  21.478  0.00  0.00    +0.000 N 
ATOM     20  C   UNL     1      -0.834  14.312  22.233  0.00  0.00    +0.000 C 
ATOM     21  C   UNL     1      -1.349  14.053  23.651  0.00  0.00    +0.000 C 
ATOM     22  C   UNL     1      -2.786  13.544  23.747  0.00  0.00    +0.000 C 
ATOM     23  C   UNL     1      -3.071  12.284  22.937  0.00  0.00    +0.000 C 
ATOM     24  C   UNL     1      -3.073  12.568  21.440  0.00  0.00    +0.000 C 
ATOM     25  C   UNL     1      -1.697  12.439  20.798  0.00  0.00    +0.000 C 
ENDBRANCH   1  18
TORSDOF 1
ENDMDL
MODEL 7
REMARK VINA RESULT:      -7.3      2.781      4.283
REMARK  Name = 
REMARK  1 active torsions:
REMARK  status: ('A' for Active; 'I' for Inactive)
REMARK    1  A    between atoms: C_2  and  C_3
REMARK                            x       y       z     vdW  Elec       q    Type
REMARK                         _______ _______ _______ _____ _____    ______ ____
ROOT
ATOM      1  C   UNL     1       1.380   8.481  20.293  0.00  0.00    +0.000 A 
ATOM      2  N   UNL     1       1.548   8.352  21.658  0.00  0.00    +0.000 NA
ATOM      3  N   UNL     1       0.816   9.279  22.264  0.00  0.00    +0.000 NA
ATOM      4  N   UNL     1       0.153   9.951  21.308  0.00  0.00    +0.000 N 
ATOM      5  C   UNL     1       0.429   9.456  20.064  0.00  0.00    +0.000 A 
ATOM      6  C   UNL     1      -0.174  10.006  18.895  0.00  0.00    +0.000 A 
ATOM      7  O   UNL     1       0.043   9.644  17.745  0.00  0.00    +0.000 OA
ATOM      8  N   UNL     1      -1.047  11.047  19.133  0.00  0.00    +0.000 N 
ATOM      9  C   UNL     1      -1.306  11.590  20.404  0.00  0.00    +0.000 A 
ATOM     10  C   UNL     1      -2.165  12.678  20.548  0.00  0.00    +0.000 A 
ATOM     11  C   UNL     1      -2.368  13.214  21.818  0.00  0.00    +0.000 A 
ATOM     12  F   UNL     1      -3.199  14.255  21.962  0.00  0.00    +0.000 F 
ATOM     13  C   UNL     1      -1.731  12.689  22.943  0.00  0.00    +0.000 A 
ATOM     14  C   UNL     1      -0.877  11.594  22.808  0.00  0.00    +0.000 A 
ATOM     15  C   UNL     1      -0.682  11.051  21.535  0.00  0.00    +0.000 A 
ATOM     16  H   UNL     1      -1.486  11.443  18.306  0.00  0.00    +0.000 HD
ENDROOT
BRANCH   1  18
ATOM     17  O   UNL     1       2.684   8.255  18.368  0.00  0.00    +0.000 OA
ATOM     18  C   UNL     1       2.132   7.700  19.315  0.00  0.00    +0.000 C 
ATOM     19  N   UNL     1       2.214   6.303  19.530  0.00  0.00    +0.000 N 
ATOM     20  C   UNL     1       3.091   5.520  18.657  0.00  0.00    +0.000 C 
ATOM     21  C   UNL     1       2.333   4.558  17.741  0.00  0.00    +0.000 C 
ATOM     22  C   UNL     1       1.725   3.336  18.427  0.00  0.00    +0.000 C 
ATOM     23  C   UNL     1       0.799   3.655  19.595  0.00  0.00    +0.000 C 
ATOM     24  C   UNL     1       1.573   4.180  20.798  0.00  0.00    +0.000 C 
ATOM     25  C   UNL     1       1.763   5.692  20.783  0.00  0.00    +0.000 C 
ENDBRANCH   1  18
TORSDOF 1
ENDMDL
MODEL 8
REMARK VINA RESULT:      -7.3      3.543      7.165
REMARK  Name = 
REMARK  1 active torsions:
REMARK  status: ('A' for Active; 'I' for Inactive)
REMARK    1  A    between atoms: C_2  and  C_3
REMARK                            x       y       z     vdW  Elec       q    Type
REMARK                         _______ _______ _______ _____ _____    ______ ____
ROOT
ATOM      1  C   UNL     1       0.400   9.708  20.110  0.00  0.00    +0.000 A 
ATOM      2  N   UNL     1       0.212   9.022  21.294  0.00  0.00    +0.000 NA
ATOM      3  N   UNL     1       0.913   7.896  21.248  0.00  0.00    +0.000 NA
ATOM      4  N   UNL     1       1.577   7.889  20.079  0.00  0.00    +0.000 N 
ATOM      5  C   UNL     1       1.333   9.023  19.356  0.00  0.00    +0.000 A 
ATOM      6  C   UNL     1       1.943   9.240  18.087  0.00  0.00    +0.000 A 
ATOM      7  O   UNL     1       1.754  10.209  17.362  0.00  0.00    +0.000 OA
ATOM      8  N   UNL     1       2.789   8.231  17.674  0.00  0.00    +0.000 N 
ATOM      9  C   UNL     1       3.015   7.042  18.391  0.00  0.00    +0.000 A 
ATOM     10  C   UNL     1       3.847   6.051  17.875  0.00  0.00    +0.000 A 
ATOM     11  C   UNL     1       4.017   4.871  18.595  0.00  0.00    +0.000 A 
ATOM     12  F   UNL     1       4.821   3.918  18.106  0.00  0.00    +0.000 F 
ATOM     13  C   UNL     1       3.373   4.660  19.816  0.00  0.00    +0.000 A 
ATOM     14  C   UNL     1       2.545   5.652  20.343  0.00  0.00    +0.000 A 
ATOM     15  C   UNL     1       2.384   6.840  19.624  0.00  0.00    +0.000 A 
ATOM     16  H   UNL     1       3.233   8.378  16.772  0.00  0.00    +0.000 HD
ENDROOT
BRANCH   1  18
ATOM     17  O   UNL     1      -1.463  10.880  19.327  0.00  0.00    +0.000 OA
ATOM     18  C   UNL     1      -0.318  10.933  19.768  0.00  0.00    +0.000 C 
ATOM     19  N   UNL     1       0.353  12.159  19.998  0.00  0.00    +0.000 N 
ATOM     20  C   UNL     1      -0.399  13.402  19.815  0.00  0.00    +0.000 C 
ATOM     21  C   UNL     1       0.091  14.239  18.633  0.00  0.00    +0.000 C 
ATOM     22  C   UNL     1       1.434  14.940  18.834  0.00  0.00    +0.000 C 
ATOM     23  C   UNL     1       2.582  14.018  19.228  0.00  0.00    +0.000 C 
ATOM     24  C   UNL     1       2.423  13.502  20.654  0.00  0.00    +0.000 C 
ATOM     25  C   UNL     1       1.611  12.217  20.746  0.00  0.00    +0.000 C 
ENDBRANCH   1  18
TORSDOF 1
ENDMDL
MODEL 9
REMARK VINA RESULT:      -7.1      4.170      8.909
REMARK  Name = 
REMARK  1 active torsions:
REMARK  status: ('A' for Active; 'I' for Inactive)
REMARK    1  A    between atoms: C_2  and  C_3
REMARK                            x       y       z     vdW  Elec       q    Type
REMARK                         _______ _______ _______ _____ _____    ______ ____
ROOT
ATOM      1  C   UNL     1      -0.554  12.258  21.180  0.00  0.00    +0.000 A 
ATOM      2  N   UNL     1      -0.556  12.686  19.867  0.00  0.00    +0.000 NA
ATOM      3  N   UNL     1       0.035  11.762  19.119  0.00  0.00    +0.000 NA
ATOM      4  N   UNL     1       0.360  10.742  19.931  0.00  0.00    +0.000 N 
ATOM      5  C   UNL     1      -0.034  10.979  21.218  0.00  0.00    +0.000 A 
ATOM      6  C   UNL     1       0.193  10.026  22.253  0.00  0.00    +0.000 A 
ATOM      7  O   UNL     1      -0.098  10.173  23.433  0.00  0.00    +0.000 OA
ATOM      8  N   UNL     1       0.821   8.868  21.842  0.00  0.00    +0.000 N 
ATOM      9  C   UNL     1       1.268   8.632  20.529  0.00  0.00    +0.000 A 
ATOM     10  C   UNL     1       1.941   7.454  20.212  0.00  0.00    +0.000 A 
ATOM     11  C   UNL     1       2.403   7.271  18.910  0.00  0.00    +0.000 A 
ATOM     12  F   UNL     1       3.044   6.136  18.598  0.00  0.00    +0.000 F 
ATOM     13  C   UNL     1       2.209   8.238  17.923  0.00  0.00    +0.000 A 
ATOM     14  C   UNL     1       1.528   9.417  18.231  0.00  0.00    +0.000 A 
ATOM     15  C   UNL     1       1.056   9.594  19.535  0.00  0.00    +0.000 A 
ATOM     16  H   UNL     1       0.984   8.179  22.571  0.00  0.00    +0.000 HD
ENDROOT
BRANCH   1  18
ATOM     17  O   UNL     1      -0.243  13.409  23.189  0.00  0.00    +0.000 OA
ATOM     18  C   UNL     1      -1.017  13.083  22.294  0.00  0.00    +0.000 C 
ATOM     19  N   UNL     1      -2.370  13.501  22.267  0.00  0.00    +0.000 N 
ATOM     20  C   UNL     1      -2.817  14.455  23.284  0.00  0.00    +0.000 C 
ATOM     21  C   UNL     1      -3.821  13.861  24.274  0.00  0.00    +0.000 C 
ATOM     22  C   UNL     1      -5.222  13.611  23.720  0.00  0.00    +0.000 C 
ATOM     23  C   UNL     1      -5.268  12.740  22.469  0.00  0.00    +0.000 C 
ATOM     24  C   UNL     1      -4.714  13.475  21.254  0.00  0.00    +0.000 C 
ATOM     25  C   UNL     1      -3.209  13.311  21.081  0.00  0.00    +0.000 C 
ENDBRANCH   1  18
TORSDOF 1
ENDMDL
