MODEL 1
REMARK VINA RESULT:      -8.4      0.000      0.000
REMARK  Name = 
REMARK  6 active torsions:
REMARK  status: ('A' for Active; 'I' for Inactive)
REMARK    1  A    between atoms: C_2  and  C_22
REMARK    2  A    between atoms: N_3  and  C_4
REMARK    3  A    between atoms: C_4  and  C_5
REMARK    4  A    between atoms: C_5  and  C_6
REMARK    5  A    between atoms: C_9  and  C_10
REMARK    6  A    between atoms: C_13  and  C_14
REMARK                            x       y       z     vdW  Elec       q    Type
REMARK                         _______ _______ _______ _____ _____    ______ ____
ROOT
ATOM      1  C   UNL     1       5.097   5.276  17.668  0.00  0.00    +0.000 A 
ATOM      2  C   UNL     1       4.860   6.420  16.884  0.00  0.00    +0.000 A 
ATOM      3  C   UNL     1       3.883   7.339  17.239  0.00  0.00    +0.000 A 
ATOM      4  C   UNL     1       3.112   7.165  18.401  0.00  0.00    +0.000 A 
ATOM      5  C   UNL     1       3.335   6.013  19.183  0.00  0.00    +0.000 A 
ATOM      6  C   UNL     1       4.308   5.075  18.813  0.00  0.00    +0.000 A 
ENDROOT
BRANCH   4   7
ATOM      7  C   UNL     1       2.125   8.219  18.801  0.00  0.00    +0.000 A 
ATOM      8  C   UNL     1       1.643   8.289  20.122  0.00  0.00    +0.000 A 
ATOM      9  C   UNL     1       0.673   9.225  20.480  0.00  0.00    +0.000 A 
ATOM     10  C   UNL     1       0.146  10.102  19.524  0.00  0.00    +0.000 A 
ATOM     11  C   UNL     1       0.627  10.044  18.207  0.00  0.00    +0.000 A 
ATOM     12  C   UNL     1       1.613   9.121  17.850  0.00  0.00    +0.000 A 
BRANCH  10  13
ATOM     13  C   UNL     1      -0.938  11.090  19.875  0.00  0.00    +0.000 C 
ATOM     14  F   UNL     1      -0.526  12.396  19.662  0.00  0.00    +0.000 F 
ATOM     15  F   UNL     1      -2.055  10.848  19.098  0.00  0.00    +0.000 F 
ATOM     16  F   UNL     1      -1.271  10.947  21.207  0.00  0.00    +0.000 F 
ENDBRANCH  10  13
ENDBRANCH   4   7
BRANCH   1  17
ATOM     17  C   UNL     1       6.192   4.272  17.347  0.00  0.00    +0.000 C 
BRANCH  17  18
ATOM     18  C   UNL     1       7.035   4.651  16.121  0.00  0.00    +0.000 C 
BRANCH  18  21
ATOM     19  O   UNL     1       7.636   5.420  13.531  0.00  0.00    +0.000 OA
ATOM     20  C   UNL     1       6.844   4.502  13.668  0.00  0.00    +0.000 C 
ATOM     21  N   UNL     1       6.505   4.052  14.912  0.00  0.00    +0.000 N 
ATOM     22  H   UNL     1       5.833   3.278  15.008  0.00  0.00    +0.000 HD
BRANCH  20  23
ATOM     23  C   UNL     1       6.239   3.895  12.429  0.00  0.00    +0.000 C 
ATOM     24  C   UNL     1       4.729   3.725  12.492  0.00  0.00    +0.000 C 
ATOM     25  C   UNL     1       4.538   2.878  11.261  0.00  0.00    +0.000 C 
ATOM     26  C   UNL     1       5.678   1.871  11.415  0.00  0.00    +0.000 C 
ATOM     27  N   UNL     1       6.760   2.558  12.142  0.00  0.00    +0.000 NA
ATOM     28  H   UNL     1       7.635   2.621  11.570  0.00  0.00    +0.000 HD
ENDBRANCH  20  23
ENDBRANCH  18  21
ENDBRANCH  17  18
ENDBRANCH   1  17
TORSDOF 6
ENDMDL
MODEL 2
REMARK VINA RESULT:      -8.4      6.186      9.581
REMARK  Name = 
REMARK  6 active torsions:
REMARK  status: ('A' for Active; 'I' for Inactive)
REMARK    1  A    between atoms: C_2  and  C_22
REMARK    2  A    between atoms: N_3  and  C_4
REMARK    3  A    between atoms: C_4  and  C_5
REMARK    4  A    between atoms: C_5  and  C_6
REMARK    5  A    between atoms: C_9  and  C_10
REMARK    6  A    between atoms: C_13  and  C_14
REMARK                            x       y       z     vdW  Elec       q    Type
REMARK                         _______ _______ _______ _____ _____    ______ ____
ROOT
ATOM      1  C   UNL     1       1.018   9.043  20.137  0.00  0.00    +0.000 A 
ATOM      2  C   UNL     1       1.531   7.820  20.609  0.00  0.00    +0.000 A 
ATOM      3  C   UNL     1       2.328   7.021  19.802  0.00  0.00    +0.000 A 
ATOM      4  C   UNL     1       2.662   7.416  18.495  0.00  0.00    +0.000 A 
ATOM      5  C   UNL     1       2.140   8.633  18.012  0.00  0.00    +0.000 A 
ATOM      6  C   UNL     1       1.318   9.430  18.821  0.00  0.00    +0.000 A 
ENDROOT
BRANCH   4   7
ATOM      7  C   UNL     1       3.595   6.572  17.681  0.00  0.00    +0.000 A 
ATOM      8  C   UNL     1       4.407   7.151  16.687  0.00  0.00    +0.000 A 
ATOM      9  C   UNL     1       5.224   6.358  15.881  0.00  0.00    +0.000 A 
ATOM     10  C   UNL     1       5.236   4.966  16.034  0.00  0.00    +0.000 A 
ATOM     11  C   UNL     1       4.435   4.382  17.027  0.00  0.00    +0.000 A 
ATOM     12  C   UNL     1       3.631   5.176  17.850  0.00  0.00    +0.000 A 
BRANCH  10  13
ATOM     13  C   UNL     1       6.074   4.084  15.143  0.00  0.00    +0.000 C 
ATOM     14  F   UNL     1       5.647   4.136  13.826  0.00  0.00    +0.000 F 
ATOM     15  F   UNL     1       7.394   4.494  15.195  0.00  0.00    +0.000 F 
ATOM     16  F   UNL     1       5.987   2.777  15.581  0.00  0.00    +0.000 F 
ENDBRANCH  10  13
ENDBRANCH   4   7
BRANCH   1  17
ATOM     17  C   UNL     1       0.187   9.974  21.004  0.00  0.00    +0.000 C 
BRANCH  17  18
ATOM     18  C   UNL     1       0.064  11.397  20.440  0.00  0.00    +0.000 C 
BRANCH  18  21
ATOM     19  O   UNL     1      -2.571  12.201  20.172  0.00  0.00    +0.000 OA
ATOM     20  C   UNL     1      -2.005  11.809  19.164  0.00  0.00    +0.000 C 
ATOM     21  N   UNL     1      -0.700  11.409  19.207  0.00  0.00    +0.000 N 
ATOM     22  H   UNL     1      -0.240  11.079  18.348  0.00  0.00    +0.000 HD
BRANCH  20  23
ATOM     23  C   UNL     1      -2.791  11.764  17.880  0.00  0.00    +0.000 C 
ATOM     24  C   UNL     1      -3.786  10.616  17.799  0.00  0.00    +0.000 C 
ATOM     25  C   UNL     1      -4.155  10.730  16.343  0.00  0.00    +0.000 C 
ATOM     26  C   UNL     1      -2.780  10.926  15.704  0.00  0.00    +0.000 C 
ATOM     27  N   UNL     1      -1.939  11.613  16.700  0.00  0.00    +0.000 NA
ATOM     28  H   UNL     1      -1.617  12.549  16.359  0.00  0.00    +0.000 HD
ENDBRANCH  20  23
ENDBRANCH  18  21
ENDBRANCH  17  18
ENDBRANCH   1  17
TORSDOF 6
ENDMDL
MODEL 3
REMARK VINA RESULT:      -8.3      6.112      9.578
REMARK  Name = 
REMARK  6 active torsions:
REMARK  status: ('A' for Active; 'I' for Inactive)
REMARK    1  A    between atoms: C_2  and  C_22
REMARK    2  A    between atoms: N_3  and  C_4
REMARK    3  A    between atoms: C_4  and  C_5
REMARK    4  A    between atoms: C_5  and  C_6
REMARK    5  A    between atoms: C_9  and  C_10
REMARK    6  A    between atoms: C_13  and  C_14
REMARK                            x       y       z     vdW  Elec       q    Type
REMARK                         _______ _______ _______ _____ _____    ______ ____
ROOT
ATOM      1  C   UNL     1       1.081   8.990  20.380  0.00  0.00    +0.000 A 
ATOM      2  C   UNL     1       1.543   7.718  20.768  0.00  0.00    +0.000 A 
ATOM      3  C   UNL     1       2.269   6.925  19.892  0.00  0.00    +0.000 A 
ATOM      4  C   UNL     1       2.581   7.372  18.596  0.00  0.00    +0.000 A 
ATOM      5  C   UNL     1       2.108   8.639  18.198  0.00  0.00    +0.000 A 
ATOM      6  C   UNL     1       1.358   9.432  19.076  0.00  0.00    +0.000 A 
ENDROOT
BRANCH   4   7
ATOM      7  C   UNL     1       3.439   6.526  17.706  0.00  0.00    +0.000 A 
ATOM      8  C   UNL     1       3.401   5.121  17.795  0.00  0.00    +0.000 A 
ATOM      9  C   UNL     1       4.249   4.333  17.017  0.00  0.00    +0.000 A 
ATOM     10  C   UNL     1       5.170   4.929  16.145  0.00  0.00    +0.000 A 
ATOM     11  C   UNL     1       5.209   6.327  16.046  0.00  0.00    +0.000 A 
ATOM     12  C   UNL     1       4.346   7.119  16.810  0.00  0.00    +0.000 A 
BRANCH  10  13
ATOM     13  C   UNL     1       6.130   4.100  15.330  0.00  0.00    +0.000 C 
ATOM     14  F   UNL     1       6.039   4.396  13.979  0.00  0.00    +0.000 F 
ATOM     15  F   UNL     1       7.425   4.345  15.748  0.00  0.00    +0.000 F 
ATOM     16  F   UNL     1       5.841   2.761  15.506  0.00  0.00    +0.000 F 
ENDBRANCH  10  13
ENDBRANCH   4   7
BRANCH   1  17
ATOM     17  C   UNL     1       0.331   9.914  21.324  0.00  0.00    +0.000 C 
BRANCH  17  18
ATOM     18  C   UNL     1      -0.303  11.126  20.627  0.00  0.00    +0.000 C 
BRANCH  18  21
ATOM     19  O   UNL     1      -1.022  12.304  18.227  0.00  0.00    +0.000 OA
ATOM     20  C   UNL     1      -1.708  11.373  18.617  0.00  0.00    +0.000 C 
ATOM     21  N   UNL     1      -1.412  10.727  19.783  0.00  0.00    +0.000 N 
ATOM     22  H   UNL     1      -2.005   9.946  20.097  0.00  0.00    +0.000 HD
BRANCH  20  23
ATOM     23  C   UNL     1      -2.897  10.971  17.784  0.00  0.00    +0.000 C 
ATOM     24  C   UNL     1      -2.634  10.961  16.286  0.00  0.00    +0.000 C 
ATOM     25  C   UNL     1      -4.051  10.797  15.802  0.00  0.00    +0.000 C 
ATOM     26  C   UNL     1      -4.787  11.796  16.694  0.00  0.00    +0.000 C 
ATOM     27  N   UNL     1      -4.041  11.867  17.963  0.00  0.00    +0.000 NA
ATOM     28  H   UNL     1      -4.625  11.557  18.775  0.00  0.00    +0.000 HD
ENDBRANCH  20  23
ENDBRANCH  18  21
ENDBRANCH  17  18
ENDBRANCH   1  17
TORSDOF 6
ENDMDL
MODEL 4
REMARK VINA RESULT:      -8.3      6.081      9.268
REMARK  Name = 
REMARK  6 active torsions:
REMARK  status: ('A' for Active; 'I' for Inactive)
REMARK    1  A    between atoms: C_2  and  C_22
REMARK    2  A    between atoms: N_3  and  C_4
REMARK    3  A    between atoms: C_4  and  C_5
REMARK    4  A    between atoms: C_5  and  C_6
REMARK    5  A    between atoms: C_9  and  C_10
REMARK    6  A    between atoms: C_13  and  C_14
REMARK                            x       y       z     vdW  Elec       q    Type
REMARK                         _______ _______ _______ _____ _____    ______ ____
ROOT
ATOM      1  C   UNL     1       1.218   8.545  20.411  0.00  0.00    +0.000 A 
ATOM      2  C   UNL     1       1.559   9.088  19.159  0.00  0.00    +0.000 A 
ATOM      3  C   UNL     1       2.355   8.382  18.267  0.00  0.00    +0.000 A 
ATOM      4  C   UNL     1       2.830   7.097  18.580  0.00  0.00    +0.000 A 
ATOM      5  C   UNL     1       2.503   6.554  19.840  0.00  0.00    +0.000 A 
ATOM      6  C   UNL     1       1.717   7.275  20.748  0.00  0.00    +0.000 A 
ENDROOT
BRANCH   4   7
ATOM      7  C   UNL     1       3.615   6.328  17.562  0.00  0.00    +0.000 A 
ATOM      8  C   UNL     1       3.545   4.922  17.511  0.00  0.00    +0.000 A 
ATOM      9  C   UNL     1       4.326   4.200  16.610  0.00  0.00    +0.000 A 
ATOM     10  C   UNL     1       5.212   4.862  15.750  0.00  0.00    +0.000 A 
ATOM     11  C   UNL     1       5.283   6.262  15.790  0.00  0.00    +0.000 A 
ATOM     12  C   UNL     1       4.485   6.990  16.677  0.00  0.00    +0.000 A 
BRANCH  10  13
ATOM     13  C   UNL     1       6.103   4.101  14.801  0.00  0.00    +0.000 C 
ATOM     14  F   UNL     1       6.372   2.823  15.267  0.00  0.00    +0.000 F 
ATOM     15  F   UNL     1       5.486   3.998  13.568  0.00  0.00    +0.000 F 
ATOM     16  F   UNL     1       7.299   4.776  14.656  0.00  0.00    +0.000 F 
ENDBRANCH  10  13
ENDBRANCH   4   7
BRANCH   1  17
ATOM     17  C   UNL     1       0.306   9.259  21.395  0.00  0.00    +0.000 C 
BRANCH  17  18
ATOM     18  C   UNL     1      -0.401  10.486  20.801  0.00  0.00    +0.000 C 
BRANCH  18  21
ATOM     19  O   UNL     1      -1.650  12.253  19.076  0.00  0.00    +0.000 OA
ATOM     20  C   UNL     1      -1.794  11.063  18.851  0.00  0.00    +0.000 C 
ATOM     21  N   UNL     1      -1.199  10.125  19.645  0.00  0.00    +0.000 N 
ATOM     22  H   UNL     1      -1.334   9.125  19.441  0.00  0.00    +0.000 HD
BRANCH  20  23
ATOM     23  C   UNL     1      -2.660  10.660  17.686  0.00  0.00    +0.000 C 
ATOM     24  C   UNL     1      -1.989   9.703  16.713  0.00  0.00    +0.000 C 
ATOM     25  C   UNL     1      -3.004   9.753  15.600  0.00  0.00    +0.000 C 
ATOM     26  C   UNL     1      -3.278  11.255  15.517  0.00  0.00    +0.000 C 
ATOM     27  N   UNL     1      -3.076  11.802  16.870  0.00  0.00    +0.000 NA
ATOM     28  H   UNL     1      -3.953  12.225  17.253  0.00  0.00    +0.000 HD
ENDBRANCH  20  23
ENDBRANCH  18  21
ENDBRANCH  17  18
ENDBRANCH   1  17
TORSDOF 6
ENDMDL
MODEL 5
REMARK VINA RESULT:      -8.3      6.629      9.411
REMARK  Name = 
REMARK  6 active torsions:
REMARK  status: ('A' for Active; 'I' for Inactive)
REMARK    1  A    between atoms: C_2  and  C_22
REMARK    2  A    between atoms: N_3  and  C_4
REMARK    3  A    between atoms: C_4  and  C_5
REMARK    4  A    between atoms: C_5  and  C_6
REMARK    5  A    between atoms: C_9  and  C_10
REMARK    6  A    between atoms: C_13  and  C_14
REMARK                            x       y       z     vdW  Elec       q    Type
REMARK                         _______ _______ _______ _____ _____    ______ ____
ROOT
ATOM      1  C   UNL     1       1.054  10.545  20.026  0.00  0.00    +0.000 A 
ATOM      2  C   UNL     1       0.952   9.608  21.071  0.00  0.00    +0.000 A 
ATOM      3  C   UNL     1       1.312   8.282  20.879  0.00  0.00    +0.000 A 
ATOM      4  C   UNL     1       1.808   7.837  19.641  0.00  0.00    +0.000 A 
ATOM      5  C   UNL     1       1.899   8.769  18.586  0.00  0.00    +0.000 A 
ATOM      6  C   UNL     1       1.515  10.103  18.774  0.00  0.00    +0.000 A 
ENDROOT
BRANCH   4   7
ATOM      7  C   UNL     1       2.268   6.420  19.493  0.00  0.00    +0.000 A 
ATOM      8  C   UNL     1       3.029   6.024  18.376  0.00  0.00    +0.000 A 
ATOM      9  C   UNL     1       3.401   4.691  18.201  0.00  0.00    +0.000 A 
ATOM     10  C   UNL     1       3.004   3.716  19.126  0.00  0.00    +0.000 A 
ATOM     11  C   UNL     1       2.252   4.104  20.244  0.00  0.00    +0.000 A 
ATOM     12  C   UNL     1       1.896   5.442  20.433  0.00  0.00    +0.000 A 
BRANCH  10  13
ATOM     13  C   UNL     1       3.352   2.261  18.933  0.00  0.00    +0.000 C 
ATOM     14  F   UNL     1       4.361   1.860  19.794  0.00  0.00    +0.000 F 
ATOM     15  F   UNL     1       2.234   1.483  19.170  0.00  0.00    +0.000 F 
ATOM     16  F   UNL     1       3.777   2.062  17.635  0.00  0.00    +0.000 F 
ENDBRANCH  10  13
ENDBRANCH   4   7
BRANCH   1  17
ATOM     17  C   UNL     1       0.722  12.017  20.207  0.00  0.00    +0.000 C 
BRANCH  17  18
ATOM     18  C   UNL     1      -0.772  12.335  20.056  0.00  0.00    +0.000 C 
BRANCH  18  21
ATOM     19  O   UNL     1      -3.466  12.139  19.451  0.00  0.00    +0.000 OA
ATOM     20  C   UNL     1      -2.683  11.610  18.678  0.00  0.00    +0.000 C 
ATOM     21  N   UNL     1      -1.337  11.674  18.896  0.00  0.00    +0.000 N 
ATOM     22  H   UNL     1      -0.692  11.219  18.235  0.00  0.00    +0.000 HD
BRANCH  20  23
ATOM     23  C   UNL     1      -3.246  10.873  17.492  0.00  0.00    +0.000 C 
ATOM     24  C   UNL     1      -2.249   9.963  16.793  0.00  0.00    +0.000 C 
ATOM     25  C   UNL     1      -3.053   9.636  15.562  0.00  0.00    +0.000 C 
ATOM     26  C   UNL     1      -3.599  11.016  15.191  0.00  0.00    +0.000 C 
ATOM     27  N   UNL     1      -3.736  11.773  16.448  0.00  0.00    +0.000 NA
ATOM     28  H   UNL     1      -4.731  12.042  16.633  0.00  0.00    +0.000 HD
ENDBRANCH  20  23
ENDBRANCH  18  21
ENDBRANCH  17  18
ENDBRANCH   1  17
TORSDOF 6
ENDMDL
MODEL 6
REMARK VINA RESULT:      -8.2      6.058      9.333
REMARK  Name = 
REMARK  6 active torsions:
REMARK  status: ('A' for Active; 'I' for Inactive)
REMARK    1  A    between atoms: C_2  and  C_22
REMARK    2  A    between atoms: N_3  and  C_4
REMARK    3  A    between atoms: C_4  and  C_5
REMARK    4  A    between atoms: C_5  and  C_6
REMARK    5  A    between atoms: C_9  and  C_10
REMARK    6  A    between atoms: C_13  and  C_14
REMARK                            x       y       z     vdW  Elec       q    Type
REMARK                         _______ _______ _______ _____ _____    ______ ____
ROOT
ATOM      1  C   UNL     1       1.172   8.351  20.544  0.00  0.00    +0.000 A 
ATOM      2  C   UNL     1       1.564   7.010  20.713  0.00  0.00    +0.000 A 
ATOM      3  C   UNL     1       2.330   6.363  19.754  0.00  0.00    +0.000 A 
ATOM      4  C   UNL     1       2.752   7.031  18.591  0.00  0.00    +0.000 A 
ATOM      5  C   UNL     1       2.350   8.371  18.410  0.00  0.00    +0.000 A 
ATOM      6  C   UNL     1       1.560   9.017  19.369  0.00  0.00    +0.000 A 
ENDROOT
BRANCH   4   7
ATOM      7  C   UNL     1       3.649   6.330  17.618  0.00  0.00    +0.000 A 
ATOM      8  C   UNL     1       3.687   4.924  17.560  0.00  0.00    +0.000 A 
ATOM      9  C   UNL     1       4.571   4.268  16.703  0.00  0.00    +0.000 A 
ATOM     10  C   UNL     1       5.453   5.000  15.897  0.00  0.00    +0.000 A 
ATOM     11  C   UNL     1       5.416   6.401  15.944  0.00  0.00    +0.000 A 
ATOM     12  C   UNL     1       4.517   7.061  16.786  0.00  0.00    +0.000 A 
BRANCH  10  13
ATOM     13  C   UNL     1       6.451   4.313  14.999  0.00  0.00    +0.000 C 
ATOM     14  F   UNL     1       7.424   3.651  15.730  0.00  0.00    +0.000 F 
ATOM     15  F   UNL     1       5.798   3.393  14.199  0.00  0.00    +0.000 F 
ATOM     16  F   UNL     1       7.068   5.254  14.199  0.00  0.00    +0.000 F 
ENDBRANCH  10  13
ENDBRANCH   4   7
BRANCH   1  17
ATOM     17  C   UNL     1       0.381   9.114  21.593  0.00  0.00    +0.000 C 
BRANCH  17  18
ATOM     18  C   UNL     1      -0.005  10.535  21.161  0.00  0.00    +0.000 C 
BRANCH  18  21
ATOM     19  O   UNL     1      -0.164  12.042  18.844  0.00  0.00    +0.000 OA
ATOM     20  C   UNL     1      -1.104  11.305  19.093  0.00  0.00    +0.000 C 
ATOM     21  N   UNL     1      -1.098  10.517  20.208  0.00  0.00    +0.000 N 
ATOM     22  H   UNL     1      -1.902   9.904  20.403  0.00  0.00    +0.000 HD
BRANCH  20  23
ATOM     23  C   UNL     1      -2.275  11.304  18.145  0.00  0.00    +0.000 C 
ATOM     24  C   UNL     1      -2.783   9.918  17.784  0.00  0.00    +0.000 C 
ATOM     25  C   UNL     1      -3.718  10.296  16.664  0.00  0.00    +0.000 C 
ATOM     26  C   UNL     1      -2.859  11.295  15.887  0.00  0.00    +0.000 C 
ATOM     27  N   UNL     1      -1.966  11.942  16.865  0.00  0.00    +0.000 NA
ATOM     28  H   UNL     1      -2.133  12.974  16.920  0.00  0.00    +0.000 HD
ENDBRANCH  20  23
ENDBRANCH  18  21
ENDBRANCH  17  18
ENDBRANCH   1  17
TORSDOF 6
ENDMDL
MODEL 7
REMARK VINA RESULT:      -8.2      3.186      4.258
REMARK  Name = 
REMARK  6 active torsions:
REMARK  status: ('A' for Active; 'I' for Inactive)
REMARK    1  A    between atoms: C_2  and  C_22
REMARK    2  A    between atoms: N_3  and  C_4
REMARK    3  A    between atoms: C_4  and  C_5
REMARK    4  A    between atoms: C_5  and  C_6
REMARK    5  A    between atoms: C_9  and  C_10
REMARK    6  A    between atoms: C_13  and  C_14
REMARK                            x       y       z     vdW  Elec       q    Type
REMARK                         _______ _______ _______ _____ _____    ______ ____
ROOT
ATOM      1  C   UNL     1       2.858   4.748  18.728  0.00  0.00    +0.000 A 
ATOM      2  C   UNL     1       2.329   4.769  20.032  0.00  0.00    +0.000 A 
ATOM      3  C   UNL     1       1.852   5.947  20.590  0.00  0.00    +0.000 A 
ATOM      4  C   UNL     1       1.866   7.151  19.865  0.00  0.00    +0.000 A 
ATOM      5  C   UNL     1       2.409   7.138  18.563  0.00  0.00    +0.000 A 
ATOM      6  C   UNL     1       2.909   5.953  18.008  0.00  0.00    +0.000 A 
ENDROOT
BRANCH   4   7
ATOM      7  C   UNL     1       1.265   8.385  20.465  0.00  0.00    +0.000 A 
ATOM      8  C   UNL     1       0.812   8.389  21.799  0.00  0.00    +0.000 A 
ATOM      9  C   UNL     1       0.189   9.514  22.338  0.00  0.00    +0.000 A 
ATOM     10  C   UNL     1      -0.016  10.656  21.554  0.00  0.00    +0.000 A 
ATOM     11  C   UNL     1       0.439  10.662  20.227  0.00  0.00    +0.000 A 
ATOM     12  C   UNL     1       1.081   9.544  19.690  0.00  0.00    +0.000 A 
BRANCH  10  13
ATOM     13  C   UNL     1      -0.730  11.867  22.100  0.00  0.00    +0.000 C 
ATOM     14  F   UNL     1      -1.854  12.177  21.351  0.00  0.00    +0.000 F 
ATOM     15  F   UNL     1      -1.122  11.625  23.404  0.00  0.00    +0.000 F 
ATOM     16  F   UNL     1       0.125  12.951  22.077  0.00  0.00    +0.000 F 
ENDBRANCH  10  13
ENDBRANCH   4   7
BRANCH   1  17
ATOM     17  C   UNL     1       3.342   3.473  18.059  0.00  0.00    +0.000 C 
BRANCH  17  18
ATOM     18  C   UNL     1       4.736   3.025  18.519  0.00  0.00    +0.000 C 
BRANCH  18  21
ATOM     19  O   UNL     1       6.125   4.053  16.357  0.00  0.00    +0.000 OA
ATOM     20  C   UNL     1       6.318   4.578  17.442  0.00  0.00    +0.000 C 
ATOM     21  N   UNL     1       5.661   4.140  18.556  0.00  0.00    +0.000 N 
ATOM     22  H   UNL     1       5.839   4.594  19.463  0.00  0.00    +0.000 HD
BRANCH  20  23
ATOM     23  C   UNL     1       7.313   5.706  17.517  0.00  0.00    +0.000 C 
ATOM     24  C   UNL     1       7.627   6.167  18.932  0.00  0.00    +0.000 C 
ATOM     25  C   UNL     1       8.396   7.420  18.604  0.00  0.00    +0.000 C 
ATOM     26  C   UNL     1       7.516   8.030  17.512  0.00  0.00    +0.000 C 
ATOM     27  N   UNL     1       6.858   6.908  16.818  0.00  0.00    +0.000 NA
ATOM     28  H   UNL     1       7.125   6.867  15.806  0.00  0.00    +0.000 HD
ENDBRANCH  20  23
ENDBRANCH  18  21
ENDBRANCH  17  18
ENDBRANCH   1  17
TORSDOF 6
ENDMDL
MODEL 8
REMARK VINA RESULT:      -8.2      0.676      1.290
REMARK  Name = 
REMARK  6 active torsions:
REMARK  status: ('A' for Active; 'I' for Inactive)
REMARK    1  A    between atoms: C_2  and  C_22
REMARK    2  A    between atoms: N_3  and  C_4
REMARK    3  A    between atoms: C_4  and  C_5
REMARK    4  A    between atoms: C_5  and  C_6
REMARK    5  A    between atoms: C_9  and  C_10
REMARK    6  A    between atoms: C_13  and  C_14
REMARK                            x       y       z     vdW  Elec       q    Type
REMARK                         _______ _______ _______ _____ _____    ______ ____
ROOT
ATOM      1  C   UNL     1       4.414   4.950  17.647  0.00  0.00    +0.000 A 
ATOM      2  C   UNL     1       4.555   6.237  17.096  0.00  0.00    +0.000 A 
ATOM      3  C   UNL     1       3.723   7.277  17.486  0.00  0.00    +0.000 A 
ATOM      4  C   UNL     1       2.723   7.081  18.455  0.00  0.00    +0.000 A 
ATOM      5  C   UNL     1       2.567   5.790  18.999  0.00  0.00    +0.000 A 
ATOM      6  C   UNL     1       3.395   4.736  18.590  0.00  0.00    +0.000 A 
ENDROOT
BRANCH   4   7
ATOM      7  C   UNL     1       1.899   8.244  18.915  0.00  0.00    +0.000 A 
ATOM      8  C   UNL     1       1.624   9.318  18.047  0.00  0.00    +0.000 A 
ATOM      9  C   UNL     1       0.915  10.434  18.493  0.00  0.00    +0.000 A 
ATOM     10  C   UNL     1       0.481  10.514  19.822  0.00  0.00    +0.000 A 
ATOM     11  C   UNL     1       0.745   9.444  20.691  0.00  0.00    +0.000 A 
ATOM     12  C   UNL     1       1.437   8.316  20.241  0.00  0.00    +0.000 A 
BRANCH  10  13
ATOM     13  C   UNL     1      -0.244  11.730  20.341  0.00  0.00    +0.000 C 
ATOM     14  F   UNL     1      -0.887  12.414  19.321  0.00  0.00    +0.000 F 
ATOM     15  F   UNL     1      -1.187  11.344  21.275  0.00  0.00    +0.000 F 
ATOM     16  F   UNL     1       0.664  12.583  20.937  0.00  0.00    +0.000 F 
ENDBRANCH  10  13
ENDBRANCH   4   7
BRANCH   1  17
ATOM     17  C   UNL     1       5.337   3.798  17.290  0.00  0.00    +0.000 C 
BRANCH  17  18
ATOM     18  C   UNL     1       6.416   4.167  16.262  0.00  0.00    +0.000 C 
BRANCH  18  21
ATOM     19  O   UNL     1       7.142   5.299  13.843  0.00  0.00    +0.000 OA
ATOM     20  C   UNL     1       6.478   4.276  13.800  0.00  0.00    +0.000 C 
ATOM     21  N   UNL     1       6.091   3.646  14.948  0.00  0.00    +0.000 N 
ATOM     22  H   UNL     1       5.530   2.786  14.893  0.00  0.00    +0.000 HD
BRANCH  20  23
ATOM     23  C   UNL     1       6.085   3.741  12.448  0.00  0.00    +0.000 C 
ATOM     24  C   UNL     1       4.594   3.489  12.288  0.00  0.00    +0.000 C 
ATOM     25  C   UNL     1       4.624   2.735  10.984  0.00  0.00    +0.000 C 
ATOM     26  C   UNL     1       5.793   1.779  11.221  0.00  0.00    +0.000 C 
ATOM     27  N   UNL     1       6.722   2.460  12.140  0.00  0.00    +0.000 NA
ATOM     28  H   UNL     1       7.660   2.614  11.700  0.00  0.00    +0.000 HD
ENDBRANCH  20  23
ENDBRANCH  18  21
ENDBRANCH  17  18
ENDBRANCH   1  17
TORSDOF 6
ENDMDL
MODEL 9
REMARK VINA RESULT:      -8.2      6.595     11.053
REMARK  Name = 
REMARK  6 active torsions:
REMARK  status: ('A' for Active; 'I' for Inactive)
REMARK    1  A    between atoms: C_2  and  C_22
REMARK    2  A    between atoms: N_3  and  C_4
REMARK    3  A    between atoms: C_4  and  C_5
REMARK    4  A    between atoms: C_5  and  C_6
REMARK    5  A    between atoms: C_9  and  C_10
REMARK    6  A    between atoms: C_13  and  C_14
REMARK                            x       y       z     vdW  Elec       q    Type
REMARK                         _______ _______ _______ _____ _____    ______ ____
ROOT
ATOM      1  C   UNL     1       0.942   9.023  20.282  0.00  0.00    +0.000 A 
ATOM      2  C   UNL     1       1.456   7.795  20.737  0.00  0.00    +0.000 A 
ATOM      3  C   UNL     1       2.240   7.000  19.913  0.00  0.00    +0.000 A 
ATOM      4  C   UNL     1       2.559   7.404  18.605  0.00  0.00    +0.000 A 
ATOM      5  C   UNL     1       2.034   8.627  18.139  0.00  0.00    +0.000 A 
ATOM      6  C   UNL     1       1.226   9.420  18.965  0.00  0.00    +0.000 A 
ENDROOT
BRANCH   4   7
ATOM      7  C   UNL     1       3.477   6.563  17.772  0.00  0.00    +0.000 A 
ATOM      8  C   UNL     1       4.449   7.161  16.947  0.00  0.00    +0.000 A 
ATOM      9  C   UNL     1       5.258   6.384  16.118  0.00  0.00    +0.000 A 
ATOM     10  C   UNL     1       5.104   4.992  16.079  0.00  0.00    +0.000 A 
ATOM     11  C   UNL     1       4.143   4.389  16.903  0.00  0.00    +0.000 A 
ATOM     12  C   UNL     1       3.345   5.163  17.750  0.00  0.00    +0.000 A 
BRANCH  10  13
ATOM     13  C   UNL     1       5.934   4.135  15.156  0.00  0.00    +0.000 C 
ATOM     14  F   UNL     1       7.241   4.590  15.075  0.00  0.00    +0.000 F 
ATOM     15  F   UNL     1       5.949   2.833  15.621  0.00  0.00    +0.000 F 
ATOM     16  F   UNL     1       5.382   4.160  13.891  0.00  0.00    +0.000 F 
ENDBRANCH  10  13
ENDBRANCH   4   7
BRANCH   1  17
ATOM     17  C   UNL     1       0.126   9.950  21.168  0.00  0.00    +0.000 C 
BRANCH  17  18
ATOM     18  C   UNL     1       0.093  11.403  20.675  0.00  0.00    +0.000 C 
BRANCH  18  21
ATOM     19  O   UNL     1      -0.703  12.283  23.175  0.00  0.00    +0.000 OA
ATOM     20  C   UNL     1      -1.494  12.431  22.257  0.00  0.00    +0.000 C 
ATOM     21  N   UNL     1      -1.173  12.037  20.989  0.00  0.00    +0.000 N 
ATOM     22  H   UNL     1      -1.853  12.167  20.229  0.00  0.00    +0.000 HD
BRANCH  20  23
ATOM     23  C   UNL     1      -2.836  13.040  22.567  0.00  0.00    +0.000 C 
ATOM     24  C   UNL     1      -3.521  12.449  23.789  0.00  0.00    +0.000 C 
ATOM     25  C   UNL     1      -4.880  13.077  23.621  0.00  0.00    +0.000 C 
ATOM     26  C   UNL     1      -5.119  12.869  22.125  0.00  0.00    +0.000 C 
ATOM     27  N   UNL     1      -3.796  12.877  21.476  0.00  0.00    +0.000 NA
ATOM     28  H   UNL     1      -3.705  13.661  20.787  0.00  0.00    +0.000 HD
ENDBRANCH  20  23
ENDBRANCH  18  21
ENDBRANCH  17  18
ENDBRANCH   1  17
TORSDOF 6
ENDMDL
