MODEL 1
REMARK VINA RESULT:      -8.7      0.000      0.000
REMARK  Name = 
REMARK  5 active torsions:
REMARK  status: ('A' for Active; 'I' for Inactive)
REMARK    1  A    between atoms: C_1  and  C_2
REMARK    2  A    between atoms: C_2  and  C_3
REMARK    3  A    between atoms: C_3  and  N_4
REMARK    4  A    between atoms: C_7  and  N_8
REMARK    5  A    between atoms: C_18  and  C_19
REMARK                            x       y       z     vdW  Elec       q    Type
REMARK                         _______ _______ _______ _____ _____    ______ ____
ROOT
ATOM      1  N   UNL     1       4.530   4.391  17.965  0.00  0.00    +0.000 N 
ATOM      2  C   UNL     1       5.199   3.977  19.100  0.00  0.00    +0.000 C 
ATOM      3  O   UNL     1       4.965   2.975  19.765  0.00  0.00    +0.000 OA
ATOM      4  N   UNL     1       6.283   4.710  19.480  0.00  0.00    +0.000 N 
ATOM      5  C   UNL     1       6.765   5.827  18.811  0.00  0.00    +0.000 A 
ATOM      6  C   UNL     1       8.009   6.351  19.144  0.00  0.00    +0.000 A 
ATOM      7  C   UNL     1       8.477   7.469  18.462  0.00  0.00    +0.000 A 
ATOM      8  C   UNL     1       7.695   8.054  17.462  0.00  0.00    +0.000 A 
ATOM      9  C   UNL     1       6.438   7.528  17.150  0.00  0.00    +0.000 A 
ATOM     10  C   UNL     1       5.967   6.397  17.826  0.00  0.00    +0.000 A 
ATOM     11  C   UNL     1       4.588   5.818  17.604  0.00  0.00    +0.000 C 
ATOM     12  H   UNL     1       6.808   4.305  20.244  0.00  0.00    +0.000 HD
ENDROOT
BRANCH   1  16
ATOM     13  N   UNL     1       1.431   2.236  18.643  0.00  0.00    +0.000 NA
ATOM     14  C   UNL     1       1.270   3.569  18.030  0.00  0.00    +0.000 C 
ATOM     15  C   UNL     1       2.228   3.920  16.896  0.00  0.00    +0.000 C 
ATOM     16  C   UNL     1       3.678   3.502  17.130  0.00  0.00    +0.000 C 
ATOM     17  C   UNL     1       3.707   2.040  17.579  0.00  0.00    +0.000 C 
ATOM     18  C   UNL     1       2.825   1.786  18.793  0.00  0.00    +0.000 C 
BRANCH  13  19
ATOM     19  C   UNL     1       0.806   2.225  19.989  0.00  0.00    +0.000 C 
BRANCH  19  21
ATOM     20  C   UNL     1       2.113   3.285  21.884  0.00  0.00    +0.000 C 
ATOM     21  C   UNL     1       1.044   3.486  20.825  0.00  0.00    +0.000 C 
ENDBRANCH  19  21
ENDBRANCH  13  19
ENDBRANCH   1  16
BRANCH  11  22
ATOM     22  C   UNL     1       3.499   6.616  18.328  0.00  0.00    +0.000 A 
ATOM     23  C   UNL     1       2.949   7.764  17.739  0.00  0.00    +0.000 A 
ATOM     24  C   UNL     1       1.978   8.516  18.410  0.00  0.00    +0.000 A 
ATOM     25  C   UNL     1       1.539   8.129  19.675  0.00  0.00    +0.000 A 
ATOM     26  C   UNL     1       2.062   6.984  20.268  0.00  0.00    +0.000 A 
ATOM     27  C   UNL     1       3.029   6.235  19.600  0.00  0.00    +0.000 A 
ENDBRANCH  11  22
TORSDOF 4
ENDMDL
MODEL 2
REMARK VINA RESULT:      -8.6      2.101      5.600
REMARK  Name = 
REMARK  5 active torsions:
REMARK  status: ('A' for Active; 'I' for Inactive)
REMARK    1  A    between atoms: C_1  and  C_2
REMARK    2  A    between atoms: C_2  and  C_3
REMARK    3  A    between atoms: C_3  and  N_4
REMARK    4  A    between atoms: C_7  and  N_8
REMARK    5  A    between atoms: C_18  and  C_19
REMARK                            x       y       z     vdW  Elec       q    Type
REMARK                         _______ _______ _______ _____ _____    ______ ____
ROOT
ATOM      1  N   UNL     1       4.475   5.336  18.262  0.00  0.00    +0.000 N 
ATOM      2  C   UNL     1       3.946   4.673  17.173  0.00  0.00    +0.000 C 
ATOM      3  O   UNL     1       4.364   4.706  16.022  0.00  0.00    +0.000 OA
ATOM      4  N   UNL     1       2.902   3.831  17.409  0.00  0.00    +0.000 N 
ATOM      5  C   UNL     1       2.342   3.586  18.656  0.00  0.00    +0.000 A 
ATOM      6  C   UNL     1       1.447   2.534  18.819  0.00  0.00    +0.000 A 
ATOM      7  C   UNL     1       0.896   2.302  20.075  0.00  0.00    +0.000 A 
ATOM      8  C   UNL     1       1.241   3.126  21.150  0.00  0.00    +0.000 A 
ATOM      9  C   UNL     1       2.128   4.190  20.969  0.00  0.00    +0.000 A 
ATOM     10  C   UNL     1       2.692   4.422  19.709  0.00  0.00    +0.000 A 
ATOM     11  C   UNL     1       3.594   5.599  19.413  0.00  0.00    +0.000 C 
ATOM     12  H   UNL     1       2.624   3.281  16.607  0.00  0.00    +0.000 HD
ENDROOT
BRANCH   1  16
ATOM     13  N   UNL     1       7.369   5.551  15.755  0.00  0.00    +0.000 NA
ATOM     14  C   UNL     1       6.508   6.730  15.974  0.00  0.00    +0.000 C 
ATOM     15  C   UNL     1       6.185   7.079  17.424  0.00  0.00    +0.000 C 
ATOM     16  C   UNL     1       5.859   5.882  18.314  0.00  0.00    +0.000 C 
ATOM     17  C   UNL     1       6.938   4.815  18.125  0.00  0.00    +0.000 C 
ATOM     18  C   UNL     1       7.121   4.422  16.667  0.00  0.00    +0.000 C 
BRANCH  13  19
ATOM     19  C   UNL     1       7.195   5.055  14.366  0.00  0.00    +0.000 C 
BRANCH  19  21
ATOM     20  C   UNL     1       5.947   3.514  12.789  0.00  0.00    +0.000 C 
ATOM     21  C   UNL     1       6.334   3.796  14.229  0.00  0.00    +0.000 C 
ENDBRANCH  19  21
ENDBRANCH  13  19
ENDBRANCH   1  16
BRANCH  11  22
ATOM     22  C   UNL     1       2.808   6.900  19.220  0.00  0.00    +0.000 A 
ATOM     23  C   UNL     1       2.061   7.442  20.277  0.00  0.00    +0.000 A 
ATOM     24  C   UNL     1       1.315   8.612  20.097  0.00  0.00    +0.000 A 
ATOM     25  C   UNL     1       1.308   9.259  18.864  0.00  0.00    +0.000 A 
ATOM     26  C   UNL     1       2.055   8.745  17.808  0.00  0.00    +0.000 A 
ATOM     27  C   UNL     1       2.799   7.580  17.986  0.00  0.00    +0.000 A 
ENDBRANCH  11  22
TORSDOF 4
ENDMDL
MODEL 3
REMARK VINA RESULT:      -8.0      2.920      6.243
REMARK  Name = 
REMARK  5 active torsions:
REMARK  status: ('A' for Active; 'I' for Inactive)
REMARK    1  A    between atoms: C_1  and  C_2
REMARK    2  A    between atoms: C_2  and  C_3
REMARK    3  A    between atoms: C_3  and  N_4
REMARK    4  A    between atoms: C_7  and  N_8
REMARK    5  A    between atoms: C_18  and  C_19
REMARK                            x       y       z     vdW  Elec       q    Type
REMARK                         _______ _______ _______ _____ _____    ______ ____
ROOT
ATOM      1  N   UNL     1       2.134   7.579  18.719  0.00  0.00    +0.000 N 
ATOM      2  C   UNL     1       1.971   7.556  20.090  0.00  0.00    +0.000 C 
ATOM      3  O   UNL     1       1.964   8.522  20.844  0.00  0.00    +0.000 OA
ATOM      4  N   UNL     1       1.710   6.347  20.661  0.00  0.00    +0.000 N 
ATOM      5  C   UNL     1       1.588   5.149  19.971  0.00  0.00    +0.000 A 
ATOM      6  C   UNL     1       1.084   4.026  20.616  0.00  0.00    +0.000 A 
ATOM      7  C   UNL     1       0.967   2.833  19.909  0.00  0.00    +0.000 A 
ATOM      8  C   UNL     1       1.361   2.776  18.569  0.00  0.00    +0.000 A 
ATOM      9  C   UNL     1       1.882   3.908  17.937  0.00  0.00    +0.000 A 
ATOM     10  C   UNL     1       1.992   5.113  18.642  0.00  0.00    +0.000 A 
ATOM     11  C   UNL     1       2.620   6.357  18.056  0.00  0.00    +0.000 C 
ATOM     12  H   UNL     1       1.483   6.396  21.646  0.00  0.00    +0.000 HD
ENDROOT
BRANCH   1  16
ATOM     13  N   UNL     1       0.018  10.760  19.052  0.00  0.00    +0.000 NA
ATOM     14  C   UNL     1       1.451  10.799  19.407  0.00  0.00    +0.000 C 
ATOM     15  C   UNL     1       2.414  10.129  18.432  0.00  0.00    +0.000 C 
ATOM     16  C   UNL     1       1.935   8.790  17.877  0.00  0.00    +0.000 C 
ATOM     17  C   UNL     1       0.500   8.946  17.372  0.00  0.00    +0.000 C 
ATOM     18  C   UNL     1      -0.435   9.502  18.436  0.00  0.00    +0.000 C 
BRANCH  13  19
ATOM     19  C   UNL     1      -0.804  10.989  20.267  0.00  0.00    +0.000 C 
BRANCH  19  21
ATOM     20  C   UNL     1      -0.539  10.273  22.684  0.00  0.00    +0.000 C 
ATOM     21  C   UNL     1      -0.011  11.155  21.566  0.00  0.00    +0.000 C 
ENDBRANCH  19  21
ENDBRANCH  13  19
ENDBRANCH   1  16
BRANCH  11  22
ATOM     22  C   UNL     1       4.151   6.295  18.063  0.00  0.00    +0.000 A 
ATOM     23  C   UNL     1       4.896   6.992  17.099  0.00  0.00    +0.000 A 
ATOM     24  C   UNL     1       6.292   6.911  17.082  0.00  0.00    +0.000 A 
ATOM     25  C   UNL     1       6.965   6.140  18.027  0.00  0.00    +0.000 A 
ATOM     26  C   UNL     1       6.244   5.455  19.001  0.00  0.00    +0.000 A 
ATOM     27  C   UNL     1       4.852   5.535  19.020  0.00  0.00    +0.000 A 
ENDBRANCH  11  22
TORSDOF 4
ENDMDL
MODEL 4
REMARK VINA RESULT:      -7.7      6.572      9.551
REMARK  Name = 
REMARK  5 active torsions:
REMARK  status: ('A' for Active; 'I' for Inactive)
REMARK    1  A    between atoms: C_1  and  C_2
REMARK    2  A    between atoms: C_2  and  C_3
REMARK    3  A    between atoms: C_3  and  N_4
REMARK    4  A    between atoms: C_7  and  N_8
REMARK    5  A    between atoms: C_18  and  C_19
REMARK                            x       y       z     vdW  Elec       q    Type
REMARK                         _______ _______ _______ _____ _____    ______ ____
ROOT
ATOM      1  N   UNL     1       0.614  11.854  18.953  0.00  0.00    +0.000 N 
ATOM      2  C   UNL     1       1.325  10.677  18.825  0.00  0.00    +0.000 C 
ATOM      3  O   UNL     1       2.087  10.377  17.914  0.00  0.00    +0.000 OA
ATOM      4  N   UNL     1       1.238   9.788  19.853  0.00  0.00    +0.000 N 
ATOM      5  C   UNL     1       0.501   9.981  21.014  0.00  0.00    +0.000 A 
ATOM      6  C   UNL     1       0.675   9.125  22.095  0.00  0.00    +0.000 A 
ATOM      7  C   UNL     1      -0.071   9.333  23.251  0.00  0.00    +0.000 A 
ATOM      8  C   UNL     1      -0.985  10.389  23.310  0.00  0.00    +0.000 A 
ATOM      9  C   UNL     1      -1.162  11.232  22.209  0.00  0.00    +0.000 A 
ATOM     10  C   UNL     1      -0.407  11.032  21.048  0.00  0.00    +0.000 A 
ATOM     11  C   UNL     1      -0.598  11.848  19.789  0.00  0.00    +0.000 C 
ATOM     12  H   UNL     1       1.864   8.998  19.770  0.00  0.00    +0.000 HD
ENDROOT
BRANCH   1  16
ATOM     13  N   UNL     1       2.414  15.106  19.899  0.00  0.00    +0.000 NA
ATOM     14  C   UNL     1       3.145  14.058  19.159  0.00  0.00    +0.000 C 
ATOM     15  C   UNL     1       2.418  13.422  17.978  0.00  0.00    +0.000 C 
ATOM     16  C   UNL     1       0.945  13.111  18.226  0.00  0.00    +0.000 C 
ATOM     17  C   UNL     1       0.268  14.347  18.819  0.00  0.00    +0.000 C 
ATOM     18  C   UNL     1       0.973  14.855  20.068  0.00  0.00    +0.000 C 
BRANCH  13  19
ATOM     19  C   UNL     1       3.005  15.268  21.251  0.00  0.00    +0.000 C 
BRANCH  19  21
ATOM     20  C   UNL     1       5.190  14.753  22.428  0.00  0.00    +0.000 C 
ATOM     21  C   UNL     1       4.013  14.187  21.653  0.00  0.00    +0.000 C 
ENDBRANCH  19  21
ENDBRANCH  13  19
ENDBRANCH   1  16
BRANCH  11  22
ATOM     22  C   UNL     1      -1.822  11.397  18.984  0.00  0.00    +0.000 A 
ATOM     23  C   UNL     1      -3.047  12.068  19.119  0.00  0.00    +0.000 A 
ATOM     24  C   UNL     1      -4.177  11.639  18.412  0.00  0.00    +0.000 A 
ATOM     25  C   UNL     1      -4.098  10.541  17.559  0.00  0.00    +0.000 A 
ATOM     26  C   UNL     1      -2.887   9.873  17.401  0.00  0.00    +0.000 A 
ATOM     27  C   UNL     1      -1.762  10.299  18.104  0.00  0.00    +0.000 A 
ENDBRANCH  11  22
TORSDOF 4
ENDMDL
MODEL 5
REMARK VINA RESULT:      -7.6      3.108      6.550
REMARK  Name = 
REMARK  5 active torsions:
REMARK  status: ('A' for Active; 'I' for Inactive)
REMARK    1  A    between atoms: C_1  and  C_2
REMARK    2  A    between atoms: C_2  and  C_3
REMARK    3  A    between atoms: C_3  and  N_4
REMARK    4  A    between atoms: C_7  and  N_8
REMARK    5  A    between atoms: C_18  and  C_19
REMARK                            x       y       z     vdW  Elec       q    Type
REMARK                         _______ _______ _______ _____ _____    ______ ____
ROOT
ATOM      1  N   UNL     1       2.134   7.545  18.665  0.00  0.00    +0.000 N 
ATOM      2  C   UNL     1       1.973   7.557  20.036  0.00  0.00    +0.000 C 
ATOM      3  O   UNL     1       1.960   8.541  20.765  0.00  0.00    +0.000 OA
ATOM      4  N   UNL     1       1.722   6.361  20.639  0.00  0.00    +0.000 N 
ATOM      5  C   UNL     1       1.608   5.144  19.980  0.00  0.00    +0.000 A 
ATOM      6  C   UNL     1       1.114   4.034  20.655  0.00  0.00    +0.000 A 
ATOM      7  C   UNL     1       1.006   2.823  19.979  0.00  0.00    +0.000 A 
ATOM      8  C   UNL     1       1.398   2.735  18.640  0.00  0.00    +0.000 A 
ATOM      9  C   UNL     1       1.909   3.854  17.978  0.00  0.00    +0.000 A 
ATOM     10  C   UNL     1       2.011   5.077  18.651  0.00  0.00    +0.000 A 
ATOM     11  C   UNL     1       2.628   6.311  18.032  0.00  0.00    +0.000 C 
ATOM     12  H   UNL     1       1.497   6.433  21.622  0.00  0.00    +0.000 HD
ENDROOT
BRANCH   1  16
ATOM     13  N   UNL     1       0.127  10.797  18.995  0.00  0.00    +0.000 NA
ATOM     14  C   UNL     1       1.578  10.806  19.273  0.00  0.00    +0.000 C 
ATOM     15  C   UNL     1       2.469  10.075  18.273  0.00  0.00    +0.000 C 
ATOM     16  C   UNL     1       1.924   8.733  17.791  0.00  0.00    +0.000 C 
ATOM     17  C   UNL     1       0.469   8.914  17.357  0.00  0.00    +0.000 C 
ATOM     18  C   UNL     1      -0.393   9.533  18.448  0.00  0.00    +0.000 C 
BRANCH  13  19
ATOM     19  C   UNL     1      -0.623  11.091  20.242  0.00  0.00    +0.000 C 
BRANCH  19  21
ATOM     20  C   UNL     1      -2.738  12.458  19.963  0.00  0.00    +0.000 C 
ATOM     21  C   UNL     1      -1.259  12.482  20.305  0.00  0.00    +0.000 C 
ENDBRANCH  19  21
ENDBRANCH  13  19
ENDBRANCH   1  16
BRANCH  11  22
ATOM     22  C   UNL     1       4.159   6.261  18.038  0.00  0.00    +0.000 A 
ATOM     23  C   UNL     1       4.842   5.499  18.999  0.00  0.00    +0.000 A 
ATOM     24  C   UNL     1       6.240   5.477  19.031  0.00  0.00    +0.000 A 
ATOM     25  C   UNL     1       6.977   6.209  18.102  0.00  0.00    +0.000 A 
ATOM     26  C   UNL     1       6.317   6.958  17.132  0.00  0.00    +0.000 A 
ATOM     27  C   UNL     1       4.924   6.981  17.099  0.00  0.00    +0.000 A 
ENDBRANCH  11  22
TORSDOF 4
ENDMDL
MODEL 6
REMARK VINA RESULT:      -7.5      6.518      9.631
REMARK  Name = 
REMARK  5 active torsions:
REMARK  status: ('A' for Active; 'I' for Inactive)
REMARK    1  A    between atoms: C_1  and  C_2
REMARK    2  A    between atoms: C_2  and  C_3
REMARK    3  A    between atoms: C_3  and  N_4
REMARK    4  A    between atoms: C_7  and  N_8
REMARK    5  A    between atoms: C_18  and  C_19
REMARK                            x       y       z     vdW  Elec       q    Type
REMARK                         _______ _______ _______ _____ _____    ______ ____
ROOT
ATOM      1  N   UNL     1       0.646  11.766  18.894  0.00  0.00    +0.000 N 
ATOM      2  C   UNL     1       1.330  10.571  18.791  0.00  0.00    +0.000 C 
ATOM      3  O   UNL     1       2.084  10.234  17.887  0.00  0.00    +0.000 OA
ATOM      4  N   UNL     1       1.222   9.705  19.837  0.00  0.00    +0.000 N 
ATOM      5  C   UNL     1       0.489   9.938  20.993  0.00  0.00    +0.000 A 
ATOM      6  C   UNL     1       0.642   9.100  22.091  0.00  0.00    +0.000 A 
ATOM      7  C   UNL     1      -0.100   9.349  23.242  0.00  0.00    +0.000 A 
ATOM      8  C   UNL     1      -0.989  10.427  23.279  0.00  0.00    +0.000 A 
ATOM      9  C   UNL     1      -1.146  11.251  22.162  0.00  0.00    +0.000 A 
ATOM     10  C   UNL     1      -0.395  11.011  21.005  0.00  0.00    +0.000 A 
ATOM     11  C   UNL     1      -0.567  11.805  19.729  0.00  0.00    +0.000 C 
ATOM     12  H   UNL     1       1.828   8.898  19.770  0.00  0.00    +0.000 HD
ENDROOT
BRANCH   1  16
ATOM     13  N   UNL     1       1.102  15.452  19.850  0.00  0.00    +0.000 NA
ATOM     14  C   UNL     1       2.288  14.585  19.710  0.00  0.00    +0.000 C 
ATOM     15  C   UNL     1       2.330  13.678  18.483  0.00  0.00    +0.000 C 
ATOM     16  C   UNL     1       1.006  13.000  18.143  0.00  0.00    +0.000 C 
ATOM     17  C   UNL     1      -0.105  14.051  18.140  0.00  0.00    +0.000 C 
ATOM     18  C   UNL     1      -0.171  14.834  19.442  0.00  0.00    +0.000 C 
BRANCH  13  19
ATOM     19  C   UNL     1       0.961  15.882  21.265  0.00  0.00    +0.000 C 
BRANCH  19  21
ATOM     20  C   UNL     1      -0.601  15.239  23.154  0.00  0.00    +0.000 C 
ATOM     21  C   UNL     1       0.519  14.783  22.236  0.00  0.00    +0.000 C 
ENDBRANCH  19  21
ENDBRANCH  13  19
ENDBRANCH   1  16
BRANCH  11  22
ATOM     22  C   UNL     1      -1.801  11.367  18.933  0.00  0.00    +0.000 A 
ATOM     23  C   UNL     1      -3.028  12.023  19.107  0.00  0.00    +0.000 A 
ATOM     24  C   UNL     1      -4.166  11.605  18.407  0.00  0.00    +0.000 A 
ATOM     25  C   UNL     1      -4.093  10.532  17.523  0.00  0.00    +0.000 A 
ATOM     26  C   UNL     1      -2.880   9.878  17.326  0.00  0.00    +0.000 A 
ATOM     27  C   UNL     1      -1.746  10.294  18.022  0.00  0.00    +0.000 A 
ENDBRANCH  11  22
TORSDOF 4
ENDMDL
MODEL 7
REMARK VINA RESULT:      -7.2      7.986     11.719
REMARK  Name = 
REMARK  5 active torsions:
REMARK  status: ('A' for Active; 'I' for Inactive)
REMARK    1  A    between atoms: C_1  and  C_2
REMARK    2  A    between atoms: C_2  and  C_3
REMARK    3  A    between atoms: C_3  and  N_4
REMARK    4  A    between atoms: C_7  and  N_8
REMARK    5  A    between atoms: C_18  and  C_19
REMARK                            x       y       z     vdW  Elec       q    Type
REMARK                         _______ _______ _______ _____ _____    ______ ____
ROOT
ATOM      1  N   UNL     1      -2.012  13.497  20.816  0.00  0.00    +0.000 N 
ATOM      2  C   UNL     1      -3.373  13.397  21.027  0.00  0.00    +0.000 C 
ATOM      3  O   UNL     1      -4.018  13.936  21.918  0.00  0.00    +0.000 OA
ATOM      4  N   UNL     1      -4.090  12.693  20.108  0.00  0.00    +0.000 N 
ATOM      5  C   UNL     1      -3.559  12.083  18.979  0.00  0.00    +0.000 A 
ATOM      6  C   UNL     1      -4.407  11.602  17.988  0.00  0.00    +0.000 A 
ATOM      7  C   UNL     1      -3.859  10.994  16.863  0.00  0.00    +0.000 A 
ATOM      8  C   UNL     1      -2.471  10.869  16.746  0.00  0.00    +0.000 A 
ATOM      9  C   UNL     1      -1.631  11.342  17.757  0.00  0.00    +0.000 A 
ATOM     10  C   UNL     1      -2.178  11.962  18.886  0.00  0.00    +0.000 A 
ATOM     11  C   UNL     1      -1.344  12.426  20.059  0.00  0.00    +0.000 C 
ATOM     12  H   UNL     1      -5.092  12.744  20.238  0.00  0.00    +0.000 HD
ENDROOT
BRANCH   1  16
ATOM     13  N   UNL     1      -0.401  16.670  19.384  0.00  0.00    +0.000 NA
ATOM     14  C   UNL     1      -1.664  16.774  20.142  0.00  0.00    +0.000 C 
ATOM     15  C   UNL     1      -1.744  15.986  21.446  0.00  0.00    +0.000 C 
ATOM     16  C   UNL     1      -1.159  14.578  21.382  0.00  0.00    +0.000 C 
ATOM     17  C   UNL     1       0.231  14.646  20.746  0.00  0.00    +0.000 C 
ATOM     18  C   UNL     1       0.218  15.334  19.388  0.00  0.00    +0.000 C 
BRANCH  13  19
ATOM     19  C   UNL     1      -0.634  17.055  17.969  0.00  0.00    +0.000 C 
BRANCH  19  21
ATOM     20  C   UNL     1       0.574  18.521  16.292  0.00  0.00    +0.000 C 
ATOM     21  C   UNL     1      -0.193  18.474  17.601  0.00  0.00    +0.000 C 
ENDBRANCH  19  21
ENDBRANCH  13  19
ENDBRANCH   1  16
BRANCH  11  22
ATOM     22  C   UNL     1      -0.941  11.268  20.979  0.00  0.00    +0.000 A 
ATOM     23  C   UNL     1      -0.366  10.104  20.447  0.00  0.00    +0.000 A 
ATOM     24  C   UNL     1      -0.027   9.031  21.279  0.00  0.00    +0.000 A 
ATOM     25  C   UNL     1      -0.252   9.106  22.651  0.00  0.00    +0.000 A 
ATOM     26  C   UNL     1      -0.807  10.259  23.199  0.00  0.00    +0.000 A 
ATOM     27  C   UNL     1      -1.144  11.329  22.372  0.00  0.00    +0.000 A 
ENDBRANCH  11  22
TORSDOF 4
ENDMDL
MODEL 8
REMARK VINA RESULT:      -7.2      5.917      9.062
REMARK  Name = 
REMARK  5 active torsions:
REMARK  status: ('A' for Active; 'I' for Inactive)
REMARK    1  A    between atoms: C_1  and  C_2
REMARK    2  A    between atoms: C_2  and  C_3
REMARK    3  A    between atoms: C_3  and  N_4
REMARK    4  A    between atoms: C_7  and  N_8
REMARK    5  A    between atoms: C_18  and  C_19
REMARK                            x       y       z     vdW  Elec       q    Type
REMARK                         _______ _______ _______ _____ _____    ______ ____
ROOT
ATOM      1  N   UNL     1      -0.347  10.913  20.887  0.00  0.00    +0.000 N 
ATOM      2  C   UNL     1       0.224  10.220  21.936  0.00  0.00    +0.000 C 
ATOM      3  O   UNL     1      -0.009  10.372  23.129  0.00  0.00    +0.000 OA
ATOM      4  N   UNL     1       1.077   9.208  21.616  0.00  0.00    +0.000 N 
ATOM      5  C   UNL     1       1.403   8.818  20.323  0.00  0.00    +0.000 A 
ATOM      6  C   UNL     1       2.088   7.627  20.110  0.00  0.00    +0.000 A 
ATOM      7  C   UNL     1       2.406   7.252  18.809  0.00  0.00    +0.000 A 
ATOM      8  C   UNL     1       2.042   8.073  17.738  0.00  0.00    +0.000 A 
ATOM      9  C   UNL     1       1.369   9.277  17.967  0.00  0.00    +0.000 A 
ATOM     10  C   UNL     1       1.039   9.654  19.274  0.00  0.00    +0.000 A 
ATOM     11  C   UNL     1       0.386  10.976  19.612  0.00  0.00    +0.000 C 
ATOM     12  H   UNL     1       1.380   8.656  22.408  0.00  0.00    +0.000 HD
ENDROOT
BRANCH   1  16
ATOM     13  N   UNL     1      -1.270  14.628  20.651  0.00  0.00    +0.000 NA
ATOM     14  C   UNL     1      -1.468  13.753  19.479  0.00  0.00    +0.000 C 
ATOM     15  C   UNL     1      -2.119  12.398  19.739  0.00  0.00    +0.000 C 
ATOM     16  C   UNL     1      -1.620  11.678  20.989  0.00  0.00    +0.000 C 
ATOM     17  C   UNL     1      -1.647  12.652  22.168  0.00  0.00    +0.000 C 
ATOM     18  C   UNL     1      -0.873  13.931  21.886  0.00  0.00    +0.000 C 
BRANCH  13  19
ATOM     19  C   UNL     1      -0.228  15.641  20.350  0.00  0.00    +0.000 C 
BRANCH  19  21
ATOM     20  C   UNL     1       0.994  17.046  18.630  0.00  0.00    +0.000 C 
ATOM     21  C   UNL     1      -0.080  15.999  18.868  0.00  0.00    +0.000 C 
ENDBRANCH  19  21
ENDBRANCH  13  19
ENDBRANCH   1  16
BRANCH  11  22
ATOM     22  C   UNL     1       1.387  12.136  19.606  0.00  0.00    +0.000 A 
ATOM     23  C   UNL     1       1.821  12.695  18.394  0.00  0.00    +0.000 A 
ATOM     24  C   UNL     1       2.760  13.732  18.383  0.00  0.00    +0.000 A 
ATOM     25  C   UNL     1       3.274  14.229  19.578  0.00  0.00    +0.000 A 
ATOM     26  C   UNL     1       2.844  13.698  20.790  0.00  0.00    +0.000 A 
ATOM     27  C   UNL     1       1.908  12.665  20.803  0.00  0.00    +0.000 A 
ENDBRANCH  11  22
TORSDOF 4
ENDMDL
MODEL 9
REMARK VINA RESULT:      -7.1      6.651     10.474
REMARK  Name = 
REMARK  5 active torsions:
REMARK  status: ('A' for Active; 'I' for Inactive)
REMARK    1  A    between atoms: C_1  and  C_2
REMARK    2  A    between atoms: C_2  and  C_3
REMARK    3  A    between atoms: C_3  and  N_4
REMARK    4  A    between atoms: C_7  and  N_8
REMARK    5  A    between atoms: C_18  and  C_19
REMARK                            x       y       z     vdW  Elec       q    Type
REMARK                         _______ _______ _______ _____ _____    ______ ____
ROOT
ATOM      1  N   UNL     1       0.775  12.508  20.199  0.00  0.00    +0.000 N 
ATOM      2  C   UNL     1      -0.144  12.568  21.229  0.00  0.00    +0.000 C 
ATOM      3  O   UNL     1       0.071  12.918  22.383  0.00  0.00    +0.000 OA
ATOM      4  N   UNL     1      -1.440  12.288  20.918  0.00  0.00    +0.000 N 
ATOM      5  C   UNL     1      -1.902  11.958  19.651  0.00  0.00    +0.000 A 
ATOM      6  C   UNL     1      -3.269  11.930  19.398  0.00  0.00    +0.000 A 
ATOM      7  C   UNL     1      -3.715  11.599  18.123  0.00  0.00    +0.000 A 
ATOM      8  C   UNL     1      -2.792  11.295  17.119  0.00  0.00    +0.000 A 
ATOM      9  C   UNL     1      -1.421  11.311  17.390  0.00  0.00    +0.000 A 
ATOM     10  C   UNL     1      -0.967  11.652  18.670  0.00  0.00    +0.000 A 
ATOM     11  C   UNL     1       0.492  11.613  19.065  0.00  0.00    +0.000 C 
ATOM     12  H   UNL     1      -2.092  12.457  21.673  0.00  0.00    +0.000 HD
ENDROOT
BRANCH   1  16
ATOM     13  N   UNL     1       1.878  16.072  19.308  0.00  0.00    +0.000 NA
ATOM     14  C   UNL     1       1.661  15.710  20.723  0.00  0.00    +0.000 C 
ATOM     15  C   UNL     1       2.252  14.381  21.186  0.00  0.00    +0.000 C 
ATOM     16  C   UNL     1       2.079  13.226  20.203  0.00  0.00    +0.000 C 
ATOM     17  C   UNL     1       2.519  13.686  18.813  0.00  0.00    +0.000 C 
ATOM     18  C   UNL     1       1.799  14.948  18.361  0.00  0.00    +0.000 C 
BRANCH  13  19
ATOM     19  C   UNL     1       0.875  17.084  18.892  0.00  0.00    +0.000 C 
BRANCH  19  21
ATOM     20  C   UNL     1      -0.043  18.259  16.842  0.00  0.00    +0.000 C 
ATOM     21  C   UNL     1       1.204  17.829  17.595  0.00  0.00    +0.000 C 
ENDBRANCH  19  21
ENDBRANCH  13  19
ENDBRANCH   1  16
BRANCH  11  22
ATOM     22  C   UNL     1       0.979  10.188  19.351  0.00  0.00    +0.000 A 
ATOM     23  C   UNL     1       0.798   9.616  20.619  0.00  0.00    +0.000 A 
ATOM     24  C   UNL     1       1.271   8.329  20.895  0.00  0.00    +0.000 A 
ATOM     25  C   UNL     1       1.925   7.593  19.909  0.00  0.00    +0.000 A 
ATOM     26  C   UNL     1       2.099   8.138  18.641  0.00  0.00    +0.000 A 
ATOM     27  C   UNL     1       1.628   9.420  18.364  0.00  0.00    +0.000 A 
ENDBRANCH  11  22
TORSDOF 4
ENDMDL
