MODEL 1
REMARK VINA RESULT:      -8.6      0.000      0.000
REMARK  Name = 
REMARK  8 active torsions:
REMARK  status: ('A' for Active; 'I' for Inactive)
REMARK    1  A    between atoms: C_1  and  C_2
REMARK    2  A    between atoms: C_2  and  C_3
REMARK    3  A    between atoms: C_2  and  C_4
REMARK    4  A    between atoms: C_4  and  N_5
REMARK    5  A    between atoms: C_8  and  O_9
REMARK    6  A    between atoms: C_8  and  C_10
REMARK    7  A    between atoms: C_15  and  C_16
REMARK    8  A    between atoms: N_18  and  C_19
REMARK                            x       y       z     vdW  Elec       q    Type
REMARK                         _______ _______ _______ _____ _____    ______ ____
ROOT
ATOM      1  C   UNL     1       3.738   6.050  18.166  0.00  0.00    +0.000 A 
ATOM      2  C   UNL     1       3.411   5.485  19.420  0.00  0.00    +0.000 A 
ATOM      3  C   UNL     1       2.524   6.102  20.332  0.00  0.00    +0.000 A 
ATOM      4  C   UNL     1       1.982   7.326  19.947  0.00  0.00    +0.000 A 
ATOM      5  O   UNL     1       1.137   8.128  20.678  0.00  0.00    +0.000 OA
ATOM      6  C   UNL     1       0.884   9.230  19.896  0.00  0.00    +0.000 A 
ATOM      7  C   UNL     1       1.552   9.121  18.695  0.00  0.00    +0.000 A 
ATOM      8  C   UNL     1       2.256   7.908  18.720  0.00  0.00    +0.000 A 
ATOM      9  C   UNL     1       3.115   7.262  17.817  0.00  0.00    +0.000 A 
ENDROOT
BRANCH   1  13
ATOM     10  N   UNL     1       5.559   4.437  14.536  0.00  0.00    +0.000 NA
ATOM     11  C   UNL     1       6.002   5.760  15.011  0.00  0.00    +0.000 C 
ATOM     12  C   UNL     1       5.059   6.365  16.054  0.00  0.00    +0.000 C 
ATOM     13  C   UNL     1       4.804   5.423  17.241  0.00  0.00    +0.000 C 
ATOM     14  C   UNL     1       4.425   4.036  16.686  0.00  0.00    +0.000 C 
ATOM     15  C   UNL     1       5.440   3.512  15.673  0.00  0.00    +0.000 C 
BRANCH  13  16
ATOM     16  O   UNL     1       6.029   5.249  17.972  0.00  0.00    +0.000 OA
ATOM     17  H   UNL     1       6.694   4.874  17.375  0.00  0.00    +0.000 HD
ENDBRANCH  13  16
BRANCH  10  18
ATOM     18  C   UNL     1       6.505   3.940  13.514  0.00  0.00    +0.000 C 
BRANCH  18  20
ATOM     19  C   UNL     1       4.676   3.470  11.791  0.00  0.00    +0.000 C 
ATOM     20  C   UNL     1       5.930   2.938  12.485  0.00  0.00    +0.000 C 
ATOM     21  C   UNL     1       6.996   2.594  11.439  0.00  0.00    +0.000 C 
ENDBRANCH  18  20
ENDBRANCH  10  18
ENDBRANCH   1  13
BRANCH   6  22
ATOM     22  C   UNL     1       0.031  10.329  20.295  0.00  0.00    +0.000 C 
ATOM     23  O   UNL     1      -0.807  10.748  19.503  0.00  0.00    +0.000 OA
ATOM     24  N   UNL     1       0.255  10.870  21.551  0.00  0.00    +0.000 N 
ATOM     25  H   UNL     1       1.099  10.578  22.029  0.00  0.00    +0.000 HD
BRANCH  24  26
ATOM     26  C   UNL     1      -0.508  11.932  22.097  0.00  0.00    +0.000 A 
ATOM     27  C   UNL     1      -0.086  13.280  22.013  0.00  0.00    +0.000 A 
ATOM     28  C   UNL     1      -0.787  14.314  22.636  0.00  0.00    +0.000 A 
ATOM     29  C   UNL     1      -1.921  13.977  23.328  0.00  0.00    +0.000 A 
ATOM     30  C   UNL     1      -2.375  12.679  23.378  0.00  0.00    +0.000 A 
ATOM     31  C   UNL     1      -1.707  11.636  22.758  0.00  0.00    +0.000 A 
ATOM     32  O   UNL     1      -3.512  12.569  24.120  0.00  0.00    +0.000 OA
ATOM     33  C   UNL     1      -3.669  13.929  24.584  0.00  0.00    +0.000 C 
ATOM     34  O   UNL     1      -2.703  14.839  24.026  0.00  0.00    +0.000 OA
ENDBRANCH  24  26
ENDBRANCH   6  22
TORSDOF 6
ENDMDL
MODEL 2
REMARK VINA RESULT:      -8.4      2.576     12.061
REMARK  Name = 
REMARK  8 active torsions:
REMARK  status: ('A' for Active; 'I' for Inactive)
REMARK    1  A    between atoms: C_1  and  C_2
REMARK    2  A    between atoms: C_2  and  C_3
REMARK    3  A    between atoms: C_2  and  C_4
REMARK    4  A    between atoms: C_4  and  N_5
REMARK    5  A    between atoms: C_8  and  O_9
REMARK    6  A    between atoms: C_8  and  C_10
REMARK    7  A    between atoms: C_15  and  C_16
REMARK    8  A    between atoms: N_18  and  C_19
REMARK                            x       y       z     vdW  Elec       q    Type
REMARK                         _______ _______ _______ _____ _____    ______ ____
ROOT
ATOM      1  C   UNL     1      -1.051  11.330  21.909  0.00  0.00    +0.000 A 
ATOM      2  C   UNL     1      -0.763  10.636  23.106  0.00  0.00    +0.000 A 
ATOM      3  C   UNL     1       0.059   9.486  23.150  0.00  0.00    +0.000 A 
ATOM      4  C   UNL     1       0.576   9.041  21.935  0.00  0.00    +0.000 A 
ATOM      5  O   UNL     1       1.359   7.930  21.721  0.00  0.00    +0.000 OA
ATOM      6  C   UNL     1       1.610   7.894  20.370  0.00  0.00    +0.000 A 
ATOM      7  C   UNL     1       1.002   8.963  19.747  0.00  0.00    +0.000 A 
ATOM      8  C   UNL     1       0.339   9.700  20.740  0.00  0.00    +0.000 A 
ATOM      9  C   UNL     1      -0.454  10.858  20.726  0.00  0.00    +0.000 A 
ENDROOT
BRANCH   1  13
ATOM     10  N   UNL     1      -4.877  13.437  21.817  0.00  0.00    +0.000 NA
ATOM     11  C   UNL     1      -4.088  13.475  23.062  0.00  0.00    +0.000 C 
ATOM     12  C   UNL     1      -2.974  12.427  23.093  0.00  0.00    +0.000 C 
ATOM     13  C   UNL     1      -2.050  12.506  21.867  0.00  0.00    +0.000 C 
ATOM     14  C   UNL     1      -2.929  12.546  20.601  0.00  0.00    +0.000 C 
ATOM     15  C   UNL     1      -3.994  13.639  20.659  0.00  0.00    +0.000 C 
BRANCH  13  16
ATOM     16  O   UNL     1      -1.330  13.748  21.903  0.00  0.00    +0.000 OA
ATOM     17  H   UNL     1      -1.120  13.957  22.825  0.00  0.00    +0.000 HD
ENDBRANCH  13  16
BRANCH  10  18
ATOM     18  C   UNL     1      -5.947  14.456  21.883  0.00  0.00    +0.000 C 
BRANCH  18  20
ATOM     19  C   UNL     1      -7.577  12.488  21.942  0.00  0.00    +0.000 C 
ATOM     20  C   UNL     1      -7.342  13.950  22.321  0.00  0.00    +0.000 C 
ATOM     21  C   UNL     1      -7.509  14.126  23.836  0.00  0.00    +0.000 C 
ENDBRANCH  18  20
ENDBRANCH  10  18
ENDBRANCH   1  13
BRANCH   6  22
ATOM     22  C   UNL     1       2.405   6.874  19.721  0.00  0.00    +0.000 C 
ATOM     23  O   UNL     1       2.729   5.877  20.359  0.00  0.00    +0.000 OA
ATOM     24  N   UNL     1       2.790   7.120  18.412  0.00  0.00    +0.000 N 
ATOM     25  H   UNL     1       2.637   8.058  18.061  0.00  0.00    +0.000 HD
BRANCH  24  26
ATOM     26  C   UNL     1       3.548   6.213  17.632  0.00  0.00    +0.000 A 
ATOM     27  C   UNL     1       3.250   4.831  17.586  0.00  0.00    +0.000 A 
ATOM     28  C   UNL     1       4.056   3.923  16.897  0.00  0.00    +0.000 A 
ATOM     29  C   UNL     1       5.153   4.425  16.246  0.00  0.00    +0.000 A 
ATOM     30  C   UNL     1       5.431   5.772  16.237  0.00  0.00    +0.000 A 
ATOM     31  C   UNL     1       4.640   6.696  16.900  0.00  0.00    +0.000 A 
ATOM     32  O   UNL     1       6.565   6.050  15.537  0.00  0.00    +0.000 OA
ATOM     33  C   UNL     1       6.998   4.719  15.176  0.00  0.00    +0.000 C 
ATOM     34  O   UNL     1       6.067   3.691  15.563  0.00  0.00    +0.000 OA
ENDBRANCH  24  26
ENDBRANCH   6  22
TORSDOF 6
ENDMDL
MODEL 3
REMARK VINA RESULT:      -8.3      2.415     12.176
REMARK  Name = 
REMARK  8 active torsions:
REMARK  status: ('A' for Active; 'I' for Inactive)
REMARK    1  A    between atoms: C_1  and  C_2
REMARK    2  A    between atoms: C_2  and  C_3
REMARK    3  A    between atoms: C_2  and  C_4
REMARK    4  A    between atoms: C_4  and  N_5
REMARK    5  A    between atoms: C_8  and  O_9
REMARK    6  A    between atoms: C_8  and  C_10
REMARK    7  A    between atoms: C_15  and  C_16
REMARK    8  A    between atoms: N_18  and  C_19
REMARK                            x       y       z     vdW  Elec       q    Type
REMARK                         _______ _______ _______ _____ _____    ______ ____
ROOT
ATOM      1  C   UNL     1      -1.184  11.307  22.301  0.00  0.00    +0.000 A 
ATOM      2  C   UNL     1      -0.750  10.280  23.171  0.00  0.00    +0.000 A 
ATOM      3  C   UNL     1       0.116   9.240  22.760  0.00  0.00    +0.000 A 
ATOM      4  C   UNL     1       0.522   9.255  21.428  0.00  0.00    +0.000 A 
ATOM      5  O   UNL     1       1.320   8.333  20.792  0.00  0.00    +0.000 OA
ATOM      6  C   UNL     1       1.434   8.758  19.489  0.00  0.00    +0.000 A 
ATOM      7  C   UNL     1       0.725   9.928  19.311  0.00  0.00    +0.000 A 
ATOM      8  C   UNL     1       0.140  10.251  20.544  0.00  0.00    +0.000 A 
ATOM      9  C   UNL     1      -0.694  11.291  20.983  0.00  0.00    +0.000 A 
ENDROOT
BRANCH   1  13
ATOM     10  N   UNL     1      -3.295  15.127  22.502  0.00  0.00    +0.000 NA
ATOM     11  C   UNL     1      -3.954  14.000  21.818  0.00  0.00    +0.000 C 
ATOM     12  C   UNL     1      -2.993  12.853  21.499  0.00  0.00    +0.000 C 
ATOM     13  C   UNL     1      -2.227  12.359  22.737  0.00  0.00    +0.000 C 
ATOM     14  C   UNL     1      -1.629  13.584  23.458  0.00  0.00    +0.000 C 
ATOM     15  C   UNL     1      -2.673  14.660  23.750  0.00  0.00    +0.000 C 
BRANCH  13  16
ATOM     16  O   UNL     1      -3.157  11.760  23.654  0.00  0.00    +0.000 OA
ATOM     17  H   UNL     1      -2.658  11.255  24.314  0.00  0.00    +0.000 HD
ENDBRANCH  13  16
BRANCH  10  18
ATOM     18  C   UNL     1      -4.283  16.200  22.744  0.00  0.00    +0.000 C 
BRANCH  18  20
ATOM     19  C   UNL     1      -3.304  18.268  23.884  0.00  0.00    +0.000 C 
ATOM     20  C   UNL     1      -3.770  17.649  22.566  0.00  0.00    +0.000 C 
ATOM     21  C   UNL     1      -2.626  17.677  21.546  0.00  0.00    +0.000 C 
ENDBRANCH  18  20
ENDBRANCH  10  18
ENDBRANCH   1  13
BRANCH   6  22
ATOM     22  C   UNL     1       2.196   8.066  18.473  0.00  0.00    +0.000 C 
ATOM     23  O   UNL     1       2.341   8.595  17.375  0.00  0.00    +0.000 OA
ATOM     24  N   UNL     1       2.683   6.811  18.803  0.00  0.00    +0.000 N 
ATOM     25  H   UNL     1       2.331   6.397  19.658  0.00  0.00    +0.000 HD
BRANCH  24  26
ATOM     26  C   UNL     1       3.466   6.017  17.928  0.00  0.00    +0.000 A 
ATOM     27  C   UNL     1       3.155   4.661  17.665  0.00  0.00    +0.000 A 
ATOM     28  C   UNL     1       3.981   3.853  16.883  0.00  0.00    +0.000 A 
ATOM     29  C   UNL     1       5.110   4.428  16.360  0.00  0.00    +0.000 A 
ATOM     30  C   UNL     1       5.402   5.756  16.563  0.00  0.00    +0.000 A 
ATOM     31  C   UNL     1       4.593   6.585  17.323  0.00  0.00    +0.000 A 
ATOM     32  O   UNL     1       6.569   6.117  15.960  0.00  0.00    +0.000 OA
ATOM     33  C   UNL     1       7.003   4.846  15.423  0.00  0.00    +0.000 C 
ATOM     34  O   UNL     1       6.046   3.788  15.614  0.00  0.00    +0.000 OA
ENDBRANCH  24  26
ENDBRANCH   6  22
TORSDOF 6
ENDMDL
MODEL 4
REMARK VINA RESULT:      -8.2      1.623      2.841
REMARK  Name = 
REMARK  8 active torsions:
REMARK  status: ('A' for Active; 'I' for Inactive)
REMARK    1  A    between atoms: C_1  and  C_2
REMARK    2  A    between atoms: C_2  and  C_3
REMARK    3  A    between atoms: C_2  and  C_4
REMARK    4  A    between atoms: C_4  and  N_5
REMARK    5  A    between atoms: C_8  and  O_9
REMARK    6  A    between atoms: C_8  and  C_10
REMARK    7  A    between atoms: C_15  and  C_16
REMARK    8  A    between atoms: N_18  and  C_19
REMARK                            x       y       z     vdW  Elec       q    Type
REMARK                         _______ _______ _______ _____ _____    ______ ____
ROOT
ATOM      1  C   UNL     1       2.497   7.567  18.876  0.00  0.00    +0.000 A 
ATOM      2  C   UNL     1       2.024   8.448  17.876  0.00  0.00    +0.000 A 
ATOM      3  C   UNL     1       1.131   9.510  18.149  0.00  0.00    +0.000 A 
ATOM      4  C   UNL     1       0.711   9.651  19.469  0.00  0.00    +0.000 A 
ATOM      5  O   UNL     1      -0.181  10.573  19.965  0.00  0.00    +0.000 OA
ATOM      6  C   UNL     1      -0.289  10.316  21.311  0.00  0.00    +0.000 A 
ATOM      7  C   UNL     1       0.522   9.255  21.657  0.00  0.00    +0.000 A 
ATOM      8  C   UNL     1       1.164   8.825  20.486  0.00  0.00    +0.000 A 
ATOM      9  C   UNL     1       2.075   7.797  20.197  0.00  0.00    +0.000 A 
ENDROOT
BRANCH   1  13
ATOM     10  N   UNL     1       4.709   4.669  16.467  0.00  0.00    +0.000 NA
ATOM     11  C   UNL     1       5.475   5.640  17.270  0.00  0.00    +0.000 C 
ATOM     12  C   UNL     1       4.620   6.806  17.770  0.00  0.00    +0.000 C 
ATOM     13  C   UNL     1       3.370   6.340  18.535  0.00  0.00    +0.000 C 
ATOM     14  C   UNL     1       2.655   5.269  17.688  0.00  0.00    +0.000 C 
ATOM     15  C   UNL     1       3.589   4.139  17.258  0.00  0.00    +0.000 C 
BRANCH  13  16
ATOM     16  O   UNL     1       3.780   5.691  19.749  0.00  0.00    +0.000 OA
ATOM     17  H   UNL     1       3.180   5.960  20.462  0.00  0.00    +0.000 HD
ENDBRANCH  13  16
BRANCH  10  18
ATOM     18  C   UNL     1       5.614   3.597  15.999  0.00  0.00    +0.000 C 
BRANCH  18  20
ATOM     19  C   UNL     1       5.113   3.952  13.518  0.00  0.00    +0.000 C 
ATOM     20  C   UNL     1       6.200   3.774  14.578  0.00  0.00    +0.000 C 
ATOM     21  C   UNL     1       7.152   4.975  14.551  0.00  0.00    +0.000 C 
ENDBRANCH  18  20
ENDBRANCH  10  18
ENDBRANCH   1  13
BRANCH   6  22
ATOM     22  C   UNL     1      -1.134  11.067  22.215  0.00  0.00    +0.000 C 
ATOM     23  O   UNL     1      -1.180  10.737  23.396  0.00  0.00    +0.000 OA
ATOM     24  N   UNL     1      -1.879  12.098  21.664  0.00  0.00    +0.000 N 
ATOM     25  H   UNL     1      -1.913  12.144  20.653  0.00  0.00    +0.000 HD
BRANCH  24  26
ATOM     26  C   UNL     1      -2.735  12.939  22.418  0.00  0.00    +0.000 A 
ATOM     27  C   UNL     1      -4.142  12.798  22.388  0.00  0.00    +0.000 A 
ATOM     28  C   UNL     1      -4.987  13.688  23.052  0.00  0.00    +0.000 A 
ATOM     29  C   UNL     1      -4.400  14.709  23.754  0.00  0.00    +0.000 A 
ATOM     30  C   UNL     1      -3.032  14.832  23.835  0.00  0.00    +0.000 A 
ATOM     31  C   UNL     1      -2.170  13.955  23.199  0.00  0.00    +0.000 A 
ATOM     32  O   UNL     1      -2.665  15.914  24.577  0.00  0.00    +0.000 OA
ATOM     33  C   UNL     1      -3.956  16.487  24.882  0.00  0.00    +0.000 C 
ATOM     34  O   UNL     1      -5.061  15.687  24.423  0.00  0.00    +0.000 OA
ENDBRANCH  24  26
ENDBRANCH   6  22
TORSDOF 6
ENDMDL
MODEL 5
REMARK VINA RESULT:      -8.1      1.207      1.395
REMARK  Name = 
REMARK  8 active torsions:
REMARK  status: ('A' for Active; 'I' for Inactive)
REMARK    1  A    between atoms: C_1  and  C_2
REMARK    2  A    between atoms: C_2  and  C_3
REMARK    3  A    between atoms: C_2  and  C_4
REMARK    4  A    between atoms: C_4  and  N_5
REMARK    5  A    between atoms: C_8  and  O_9
REMARK    6  A    between atoms: C_8  and  C_10
REMARK    7  A    between atoms: C_15  and  C_16
REMARK    8  A    between atoms: N_18  and  C_19
REMARK                            x       y       z     vdW  Elec       q    Type
REMARK                         _______ _______ _______ _____ _____    ______ ____
ROOT
ATOM      1  C   UNL     1       3.634   5.743  18.526  0.00  0.00    +0.000 A 
ATOM      2  C   UNL     1       3.204   4.892  19.571  0.00  0.00    +0.000 A 
ATOM      3  C   UNL     1       2.276   5.296  20.558  0.00  0.00    +0.000 A 
ATOM      4  C   UNL     1       1.801   6.603  20.472  0.00  0.00    +0.000 A 
ATOM      5  O   UNL     1       0.934   7.231  21.335  0.00  0.00    +0.000 OA
ATOM      6  C   UNL     1       0.770   8.507  20.852  0.00  0.00    +0.000 A 
ATOM      7  C   UNL     1       1.516   8.678  19.705  0.00  0.00    +0.000 A 
ATOM      8  C   UNL     1       2.178   7.466  19.456  0.00  0.00    +0.000 A 
ATOM      9  C   UNL     1       3.076   7.032  18.468  0.00  0.00    +0.000 A 
ENDROOT
BRANCH   1  13
ATOM     10  N   UNL     1       5.514   4.556  14.765  0.00  0.00    +0.000 NA
ATOM     11  C   UNL     1       5.765   5.917  15.273  0.00  0.00    +0.000 C 
ATOM     12  C   UNL     1       4.789   6.331  16.376  0.00  0.00    +0.000 C 
ATOM     13  C   UNL     1       4.741   5.323  17.535  0.00  0.00    +0.000 C 
ATOM     14  C   UNL     1       4.560   3.912  16.943  0.00  0.00    +0.000 C 
ATOM     15  C   UNL     1       5.596   3.588  15.869  0.00  0.00    +0.000 C 
BRANCH  13  16
ATOM     16  O   UNL     1       6.011   5.323  18.207  0.00  0.00    +0.000 OA
ATOM     17  H   UNL     1       6.705   5.507  17.556  0.00  0.00    +0.000 HD
ENDBRANCH  13  16
BRANCH  10  18
ATOM     18  C   UNL     1       6.477   4.249  13.686  0.00  0.00    +0.000 C 
BRANCH  18  20
ATOM     19  C   UNL     1       4.699   3.541  11.991  0.00  0.00    +0.000 C 
ATOM     20  C   UNL     1       6.029   3.185  12.657  0.00  0.00    +0.000 C 
ATOM     21  C   UNL     1       7.112   3.004  11.586  0.00  0.00    +0.000 C 
ENDBRANCH  18  20
ENDBRANCH  10  18
ENDBRANCH   1  13
BRANCH   6  22
ATOM     22  C   UNL     1      -0.073   9.507  21.471  0.00  0.00    +0.000 C 
ATOM     23  O   UNL     1      -0.679   9.219  22.499  0.00  0.00    +0.000 OA
ATOM     24  N   UNL     1      -0.172  10.729  20.825  0.00  0.00    +0.000 N 
ATOM     25  H   UNL     1       0.209  10.780  19.888  0.00  0.00    +0.000 HD
BRANCH  24  26
ATOM     26  C   UNL     1      -0.936  11.818  21.314  0.00  0.00    +0.000 A 
ATOM     27  C   UNL     1      -2.104  12.270  20.656  0.00  0.00    +0.000 A 
ATOM     28  C   UNL     1      -2.800  13.402  21.082  0.00  0.00    +0.000 A 
ATOM     29  C   UNL     1      -2.316  14.061  22.182  0.00  0.00    +0.000 A 
ATOM     30  C   UNL     1      -1.211  13.607  22.864  0.00  0.00    +0.000 A 
ATOM     31  C   UNL     1      -0.510  12.479  22.472  0.00  0.00    +0.000 A 
ATOM     32  O   UNL     1      -0.901  14.412  23.919  0.00  0.00    +0.000 OA
ATOM     33  C   UNL     1      -1.893  15.453  23.769  0.00  0.00    +0.000 C 
ATOM     34  O   UNL     1      -2.836  15.198  22.711  0.00  0.00    +0.000 OA
ENDBRANCH  24  26
ENDBRANCH   6  22
TORSDOF 6
ENDMDL
MODEL 6
REMARK VINA RESULT:      -8.1      1.092      1.430
REMARK  Name = 
REMARK  8 active torsions:
REMARK  status: ('A' for Active; 'I' for Inactive)
REMARK    1  A    between atoms: C_1  and  C_2
REMARK    2  A    between atoms: C_2  and  C_3
REMARK    3  A    between atoms: C_2  and  C_4
REMARK    4  A    between atoms: C_4  and  N_5
REMARK    5  A    between atoms: C_8  and  O_9
REMARK    6  A    between atoms: C_8  and  C_10
REMARK    7  A    between atoms: C_15  and  C_16
REMARK    8  A    between atoms: N_18  and  C_19
REMARK                            x       y       z     vdW  Elec       q    Type
REMARK                         _______ _______ _______ _____ _____    ______ ____
ROOT
ATOM      1  C   UNL     1       3.664   6.355  18.072  0.00  0.00    +0.000 A 
ATOM      2  C   UNL     1       3.175   5.866  19.306  0.00  0.00    +0.000 A 
ATOM      3  C   UNL     1       2.277   6.596  20.119  0.00  0.00    +0.000 A 
ATOM      4  C   UNL     1       1.895   7.852  19.657  0.00  0.00    +0.000 A 
ATOM      5  O   UNL     1       1.072   8.756  20.289  0.00  0.00    +0.000 OA
ATOM      6  C   UNL     1       0.998   9.851  19.461  0.00  0.00    +0.000 A 
ATOM      7  C   UNL     1       1.755   9.638  18.327  0.00  0.00    +0.000 A 
ATOM      8  C   UNL     1       2.330   8.364  18.446  0.00  0.00    +0.000 A 
ATOM      9  C   UNL     1       3.196   7.609  17.640  0.00  0.00    +0.000 A 
ENDROOT
BRANCH   1  13
ATOM     10  N   UNL     1       5.569   4.336  14.698  0.00  0.00    +0.000 NA
ATOM     11  C   UNL     1       6.055   5.675  15.076  0.00  0.00    +0.000 C 
ATOM     12  C   UNL     1       5.097   6.415  16.011  0.00  0.00    +0.000 C 
ATOM     13  C   UNL     1       4.739   5.598  17.263  0.00  0.00    +0.000 C 
ATOM     14  C   UNL     1       4.317   4.185  16.814  0.00  0.00    +0.000 C 
ATOM     15  C   UNL     1       5.350   3.524  15.904  0.00  0.00    +0.000 C 
BRANCH  13  16
ATOM     16  O   UNL     1       5.917   5.435  18.067  0.00  0.00    +0.000 OA
ATOM     17  H   UNL     1       5.661   5.463  19.002  0.00  0.00    +0.000 HD
ENDBRANCH  13  16
BRANCH  10  18
ATOM     18  C   UNL     1       6.535   3.705  13.773  0.00  0.00    +0.000 C 
BRANCH  18  20
ATOM     19  C   UNL     1       6.890   2.608  11.492  0.00  0.00    +0.000 C 
ATOM     20  C   UNL     1       6.125   3.671  12.282  0.00  0.00    +0.000 C 
ATOM     21  C   UNL     1       4.617   3.422  12.160  0.00  0.00    +0.000 C 
ENDBRANCH  18  20
ENDBRANCH  10  18
ENDBRANCH   1  13
BRANCH   6  22
ATOM     22  C   UNL     1       0.227  11.039  19.754  0.00  0.00    +0.000 C 
ATOM     23  O   UNL     1       0.367  12.029  19.042  0.00  0.00    +0.000 OA
ATOM     24  N   UNL     1      -0.599  10.990  20.867  0.00  0.00    +0.000 N 
ATOM     25  H   UNL     1      -0.479  10.199  21.488  0.00  0.00    +0.000 HD
BRANCH  24  26
ATOM     26  C   UNL     1      -1.434  12.060  21.273  0.00  0.00    +0.000 A 
ATOM     27  C   UNL     1      -2.553  12.471  20.511  0.00  0.00    +0.000 A 
ATOM     28  C   UNL     1      -3.316  13.586  20.860  0.00  0.00    +0.000 A 
ATOM     29  C   UNL     1      -2.948  14.271  21.989  0.00  0.00    +0.000 A 
ATOM     30  C   UNL     1      -1.894  13.857  22.771  0.00  0.00    +0.000 A 
ATOM     31  C   UNL     1      -1.129  12.746  22.455  0.00  0.00    +0.000 A 
ATOM     32  O   UNL     1      -1.701  14.681  23.838  0.00  0.00    +0.000 OA
ATOM     33  C   UNL     1      -2.705  15.691  23.589  0.00  0.00    +0.000 C 
ATOM     34  O   UNL     1      -3.544  15.397  22.457  0.00  0.00    +0.000 OA
ENDBRANCH  24  26
ENDBRANCH   6  22
TORSDOF 6
ENDMDL
MODEL 7
REMARK VINA RESULT:      -8.0      1.689      1.705
REMARK  Name = 
REMARK  8 active torsions:
REMARK  status: ('A' for Active; 'I' for Inactive)
REMARK    1  A    between atoms: C_1  and  C_2
REMARK    2  A    between atoms: C_2  and  C_3
REMARK    3  A    between atoms: C_2  and  C_4
REMARK    4  A    between atoms: C_4  and  N_5
REMARK    5  A    between atoms: C_8  and  O_9
REMARK    6  A    between atoms: C_8  and  C_10
REMARK    7  A    between atoms: C_15  and  C_16
REMARK    8  A    between atoms: N_18  and  C_19
REMARK                            x       y       z     vdW  Elec       q    Type
REMARK                         _______ _______ _______ _____ _____    ______ ____
ROOT
ATOM      1  C   UNL     1       3.601   6.496  17.997  0.00  0.00    +0.000 A 
ATOM      2  C   UNL     1       3.148   6.053  19.261  0.00  0.00    +0.000 A 
ATOM      3  C   UNL     1       2.259   6.804  20.065  0.00  0.00    +0.000 A 
ATOM      4  C   UNL     1       1.847   8.035  19.560  0.00  0.00    +0.000 A 
ATOM      5  O   UNL     1       1.027   8.953  20.173  0.00  0.00    +0.000 OA
ATOM      6  C   UNL     1       0.917  10.011  19.302  0.00  0.00    +0.000 A 
ATOM      7  C   UNL     1       1.651   9.761  18.161  0.00  0.00    +0.000 A 
ATOM      8  C   UNL     1       2.247   8.501  18.318  0.00  0.00    +0.000 A 
ATOM      9  C   UNL     1       3.105   7.724  17.524  0.00  0.00    +0.000 A 
ENDROOT
BRANCH   1  13
ATOM     10  N   UNL     1       5.497   4.454  14.632  0.00  0.00    +0.000 NA
ATOM     11  C   UNL     1       6.008   5.780  15.022  0.00  0.00    +0.000 C 
ATOM     12  C   UNL     1       5.056   6.536  15.951  0.00  0.00    +0.000 C 
ATOM     13  C   UNL     1       4.667   5.720  17.195  0.00  0.00    +0.000 C 
ATOM     14  C   UNL     1       4.220   4.319  16.734  0.00  0.00    +0.000 C 
ATOM     15  C   UNL     1       5.249   3.641  15.831  0.00  0.00    +0.000 C 
BRANCH  13  16
ATOM     16  O   UNL     1       5.834   5.527  18.011  0.00  0.00    +0.000 OA
ATOM     17  H   UNL     1       6.617   5.773  17.494  0.00  0.00    +0.000 HD
ENDBRANCH  13  16
BRANCH  10  18
ATOM     18  C   UNL     1       6.459   3.808  13.714  0.00  0.00    +0.000 C 
BRANCH  18  20
ATOM     19  C   UNL     1       4.657   3.660  11.907  0.00  0.00    +0.000 C 
ATOM     20  C   UNL     1       5.847   2.965  12.570  0.00  0.00    +0.000 C 
ATOM     21  C   UNL     1       6.918   2.656  11.517  0.00  0.00    +0.000 C 
ENDBRANCH  18  20
ENDBRANCH  10  18
ENDBRANCH   1  13
BRANCH   6  22
ATOM     22  C   UNL     1       0.136  11.200  19.564  0.00  0.00    +0.000 C 
ATOM     23  O   UNL     1       0.442  12.247  19.002  0.00  0.00    +0.000 OA
ATOM     24  N   UNL     1      -0.895  11.081  20.482  0.00  0.00    +0.000 N 
ATOM     25  H   UNL     1      -0.923  10.228  21.028  0.00  0.00    +0.000 HD
BRANCH  24  26
ATOM     26  C   UNL     1      -1.765  12.145  20.830  0.00  0.00    +0.000 A 
ATOM     27  C   UNL     1      -1.482  13.026  21.900  0.00  0.00    +0.000 A 
ATOM     28  C   UNL     1      -2.385  14.011  22.304  0.00  0.00    +0.000 A 
ATOM     29  C   UNL     1      -3.564  14.105  21.611  0.00  0.00    +0.000 A 
ATOM     30  C   UNL     1      -3.834  13.290  20.537  0.00  0.00    +0.000 A 
ATOM     31  C   UNL     1      -2.951  12.315  20.105  0.00  0.00    +0.000 A 
ATOM     32  O   UNL     1      -5.059  13.551  19.999  0.00  0.00    +0.000 OA
ATOM     33  C   UNL     1      -5.545  14.566  20.907  0.00  0.00    +0.000 C 
ATOM     34  O   UNL     1      -4.572  14.970  21.888  0.00  0.00    +0.000 OA
ENDBRANCH  24  26
ENDBRANCH   6  22
TORSDOF 6
ENDMDL
MODEL 8
REMARK VINA RESULT:      -8.0      1.381      1.593
REMARK  Name = 
REMARK  8 active torsions:
REMARK  status: ('A' for Active; 'I' for Inactive)
REMARK    1  A    between atoms: C_1  and  C_2
REMARK    2  A    between atoms: C_2  and  C_3
REMARK    3  A    between atoms: C_2  and  C_4
REMARK    4  A    between atoms: C_4  and  N_5
REMARK    5  A    between atoms: C_8  and  O_9
REMARK    6  A    between atoms: C_8  and  C_10
REMARK    7  A    between atoms: C_15  and  C_16
REMARK    8  A    between atoms: N_18  and  C_19
REMARK                            x       y       z     vdW  Elec       q    Type
REMARK                         _______ _______ _______ _____ _____    ______ ____
ROOT
ATOM      1  C   UNL     1       3.918   5.618  18.216  0.00  0.00    +0.000 A 
ATOM      2  C   UNL     1       3.518   4.781  19.284  0.00  0.00    +0.000 A 
ATOM      3  C   UNL     1       2.593   5.187  20.273  0.00  0.00    +0.000 A 
ATOM      4  C   UNL     1       2.090   6.482  20.166  0.00  0.00    +0.000 A 
ATOM      5  O   UNL     1       1.219   7.110  21.025  0.00  0.00    +0.000 OA
ATOM      6  C   UNL     1       1.024   8.372  20.517  0.00  0.00    +0.000 A 
ATOM      7  C   UNL     1       1.753   8.534  19.357  0.00  0.00    +0.000 A 
ATOM      8  C   UNL     1       2.437   7.331  19.127  0.00  0.00    +0.000 A 
ATOM      9  C   UNL     1       3.332   6.894  18.138  0.00  0.00    +0.000 A 
ENDROOT
BRANCH   1  13
ATOM     10  N   UNL     1       5.774   4.363  14.466  0.00  0.00    +0.000 NA
ATOM     11  C   UNL     1       5.989   5.748  14.922  0.00  0.00    +0.000 C 
ATOM     12  C   UNL     1       5.018   6.169  16.027  0.00  0.00    +0.000 C 
ATOM     13  C   UNL     1       5.022   5.200  17.221  0.00  0.00    +0.000 C 
ATOM     14  C   UNL     1       4.877   3.764  16.680  0.00  0.00    +0.000 C 
ATOM     15  C   UNL     1       5.906   3.437  15.600  0.00  0.00    +0.000 C 
BRANCH  13  16
ATOM     16  O   UNL     1       6.301   5.264  17.870  0.00  0.00    +0.000 OA
ATOM     17  H   UNL     1       6.946   5.636  17.249  0.00  0.00    +0.000 HD
ENDBRANCH  13  16
BRANCH  10  18
ATOM     18  C   UNL     1       6.729   4.050  13.381  0.00  0.00    +0.000 C 
BRANCH  18  20
ATOM     19  C   UNL     1       6.692   2.232  11.585  0.00  0.00    +0.000 C 
ATOM     20  C   UNL     1       6.110   3.567  12.048  0.00  0.00    +0.000 C 
ATOM     21  C   UNL     1       4.588   3.447  12.192  0.00  0.00    +0.000 C 
ENDBRANCH  18  20
ENDBRANCH  10  18
ENDBRANCH   1  13
BRANCH   6  22
ATOM     22  C   UNL     1       0.167   9.367  21.125  0.00  0.00    +0.000 C 
ATOM     23  O   UNL     1      -0.436   9.083  22.155  0.00  0.00    +0.000 OA
ATOM     24  N   UNL     1       0.052  10.581  20.466  0.00  0.00    +0.000 N 
ATOM     25  H   UNL     1       0.433  10.627  19.528  0.00  0.00    +0.000 HD
BRANCH  24  26
ATOM     26  C   UNL     1      -0.726  11.665  20.942  0.00  0.00    +0.000 A 
ATOM     27  C   UNL     1      -0.358  12.406  22.090  0.00  0.00    +0.000 A 
ATOM     28  C   UNL     1      -1.175  13.408  22.616  0.00  0.00    +0.000 A 
ATOM     29  C   UNL     1      -2.355  13.662  21.966  0.00  0.00    +0.000 A 
ATOM     30  C   UNL     1      -2.706  12.986  20.821  0.00  0.00    +0.000 A 
ATOM     31  C   UNL     1      -1.908  11.998  20.269  0.00  0.00    +0.000 A 
ATOM     32  O   UNL     1      -3.916  13.392  20.344  0.00  0.00    +0.000 OA
ATOM     33  C   UNL     1      -4.307  14.340  21.363  0.00  0.00    +0.000 C 
ATOM     34  O   UNL     1      -3.289  14.567  22.356  0.00  0.00    +0.000 OA
ENDBRANCH  24  26
ENDBRANCH   6  22
TORSDOF 6
ENDMDL
MODEL 9
REMARK VINA RESULT:      -7.9      1.443      1.662
REMARK  Name = 
REMARK  8 active torsions:
REMARK  status: ('A' for Active; 'I' for Inactive)
REMARK    1  A    between atoms: C_1  and  C_2
REMARK    2  A    between atoms: C_2  and  C_3
REMARK    3  A    between atoms: C_2  and  C_4
REMARK    4  A    between atoms: C_4  and  N_5
REMARK    5  A    between atoms: C_8  and  O_9
REMARK    6  A    between atoms: C_8  and  C_10
REMARK    7  A    between atoms: C_15  and  C_16
REMARK    8  A    between atoms: N_18  and  C_19
REMARK                            x       y       z     vdW  Elec       q    Type
REMARK                         _______ _______ _______ _____ _____    ______ ____
ROOT
ATOM      1  C   UNL     1       3.100   6.636  18.716  0.00  0.00    +0.000 A 
ATOM      2  C   UNL     1       2.583   6.249  19.974  0.00  0.00    +0.000 A 
ATOM      3  C   UNL     1       1.665   7.039  20.703  0.00  0.00    +0.000 A 
ATOM      4  C   UNL     1       1.291   8.252  20.130  0.00  0.00    +0.000 A 
ATOM      5  O   UNL     1       0.452   9.202  20.665  0.00  0.00    +0.000 OA
ATOM      6  C   UNL     1       0.395  10.224  19.748  0.00  0.00    +0.000 A 
ATOM      7  C   UNL     1       1.178   9.921  18.653  0.00  0.00    +0.000 A 
ATOM      8  C   UNL     1       1.754   8.664  18.890  0.00  0.00    +0.000 A 
ATOM      9  C   UNL     1       2.641   7.848  18.170  0.00  0.00    +0.000 A 
ENDROOT
BRANCH   1  13
ATOM     10  N   UNL     1       5.224   4.609  15.480  0.00  0.00    +0.000 NA
ATOM     11  C   UNL     1       5.777   5.875  15.993  0.00  0.00    +0.000 C 
ATOM     12  C   UNL     1       4.780   6.658  16.849  0.00  0.00    +0.000 C 
ATOM     13  C   UNL     1       4.196   5.819  17.997  0.00  0.00    +0.000 C 
ATOM     14  C   UNL     1       3.709   4.477  17.418  0.00  0.00    +0.000 C 
ATOM     15  C   UNL     1       4.784   3.765  16.600  0.00  0.00    +0.000 C 
BRANCH  13  16
ATOM     16  O   UNL     1       5.245   5.505  18.926  0.00  0.00    +0.000 OA
ATOM     17  H   UNL     1       5.119   6.036  19.728  0.00  0.00    +0.000 HD
ENDBRANCH  13  16
BRANCH  10  18
ATOM     18  C   UNL     1       6.238   3.934  14.642  0.00  0.00    +0.000 C 
BRANCH  18  20
ATOM     19  C   UNL     1       7.714   4.967  12.828  0.00  0.00    +0.000 C 
ATOM     20  C   UNL     1       6.333   4.411  13.173  0.00  0.00    +0.000 C 
ATOM     21  C   UNL     1       5.987   3.256  12.225  0.00  0.00    +0.000 C 
ENDBRANCH  18  20
ENDBRANCH  10  18
ENDBRANCH   1  13
BRANCH   6  22
ATOM     22  C   UNL     1      -0.386  11.429  19.923  0.00  0.00    +0.000 C 
ATOM     23  O   UNL     1      -0.481  12.217  18.987  0.00  0.00    +0.000 OA
ATOM     24  N   UNL     1      -0.946  11.635  21.175  0.00  0.00    +0.000 N 
ATOM     25  H   UNL     1      -0.633  11.023  21.919  0.00  0.00    +0.000 HD
BRANCH  24  26
ATOM     26  C   UNL     1      -1.755  12.752  21.500  0.00  0.00    +0.000 A 
ATOM     27  C   UNL     1      -1.200  13.980  21.929  0.00  0.00    +0.000 A 
ATOM     28  C   UNL     1      -1.999  15.047  22.344  0.00  0.00    +0.000 A 
ATOM     29  C   UNL     1      -3.358  14.866  22.306  0.00  0.00    +0.000 A 
ATOM     30  C   UNL     1      -3.916  13.697  21.844  0.00  0.00    +0.000 A 
ATOM     31  C   UNL     1      -3.147  12.629  21.413  0.00  0.00    +0.000 A 
ATOM     32  O   UNL     1      -5.277  13.730  21.896  0.00  0.00    +0.000 OA
ATOM     33  C   UNL     1      -5.495  15.020  22.511  0.00  0.00    +0.000 C 
ATOM     34  O   UNL     1      -4.284  15.773  22.708  0.00  0.00    +0.000 OA
ENDBRANCH  24  26
ENDBRANCH   6  22
TORSDOF 6
ENDMDL
