MODEL 1
REMARK VINA RESULT:      -8.9      0.000      0.000
REMARK  Name = 
REMARK  11 active torsions:
REMARK  status: ('A' for Active; 'I' for Inactive)
REMARK    1  A    between atoms: C_1  and  C_2
REMARK    2  A    between atoms: C_5  and  C_6
REMARK    3  A    between atoms: C_6  and  N_7
REMARK    4  A    between atoms: C_6  and  C_27
REMARK    5  A    between atoms: N_7  and  C_8
REMARK    6  A    between atoms: C_9  and  N_10
REMARK    7  A    between atoms: N_10  and  C_11
REMARK    8  A    between atoms: C_15  and  C_16
REMARK    9  A    between atoms: N_18  and  C_19
REMARK   10  A    between atoms: N_18  and  C_20
REMARK   11  A    between atoms: C_21  and  O_22
REMARK                            x       y       z     vdW  Elec       q    Type
REMARK                         _______ _______ _______ _____ _____    ______ ____
ROOT
ATOM      1  C   UNL     1       3.223   4.029  18.460  0.00  0.00    +0.000 C 
ATOM      2  C   UNL     1       2.636   4.895  19.349  0.00  0.00    +0.000 C 
ATOM      3  C   UNL     1       1.429   4.040  19.469  0.00  0.00    +0.000 C 
ATOM      4  O   UNL     1       0.376   4.022  20.059  0.00  0.00    +0.000 OA
ATOM      5  C   UNL     1       2.004   3.183  18.399  0.00  0.00    +0.000 C 
ATOM      6  O   UNL     1       1.614   2.204  17.814  0.00  0.00    +0.000 OA
ENDROOT
BRANCH   1   7
ATOM      7  N   UNL     1       4.348   3.929  17.772  0.00  0.00    +0.000 N 
ATOM      8  H   UNL     1       5.156   3.563  18.273  0.00  0.00    +0.000 HD
BRANCH   7   9
ATOM      9  C   UNL     1       4.823   5.088  16.960  0.00  0.00    +0.000 C 
BRANCH   9  14
ATOM     10  C   UNL     1       4.984   3.532  12.352  0.00  0.00    +0.000 C 
ATOM     11  C   UNL     1       5.609   3.981  13.612  0.00  0.00    +0.000 A 
ATOM     12  C   UNL     1       6.917   4.190  13.991  0.00  0.00    +0.000 A 
ATOM     13  C   UNL     1       6.879   4.605  15.343  0.00  0.00    +0.000 A 
ATOM     14  C   UNL     1       5.549   4.662  15.706  0.00  0.00    +0.000 A 
ATOM     15  O   UNL     1       4.772   4.252  14.654  0.00  0.00    +0.000 OA
ENDBRANCH   9  14
BRANCH   9  16
ATOM     16  C   UNL     1       5.710   6.029  17.862  0.00  0.00    +0.000 C 
ATOM     17  C   UNL     1       6.344   7.186  17.061  0.00  0.00    +0.000 C 
ATOM     18  C   UNL     1       7.460   7.901  17.809  0.00  0.00    +0.000 C 
ATOM     19  O   UNL     1       8.409   6.964  18.307  0.00  0.00    +0.000 OA
ATOM     20  C   UNL     1       7.831   6.131  19.302  0.00  0.00    +0.000 C 
ATOM     21  C   UNL     1       6.752   5.251  18.697  0.00  0.00    +0.000 C 
ENDBRANCH   9  16
ENDBRANCH   7   9
ENDBRANCH   1   7
BRANCH   2  22
ATOM     22  N   UNL     1       2.885   6.054  19.931  0.00  0.00    +0.000 N 
ATOM     23  H   UNL     1       2.712   6.131  20.941  0.00  0.00    +0.000 HD
BRANCH  22  24
ATOM     24  C   UNL     1       2.415   7.302  19.409  0.00  0.00    +0.000 A 
ATOM     25  C   UNL     1       2.604   7.675  18.074  0.00  0.00    +0.000 A 
ATOM     26  C   UNL     1       2.079   8.873  17.595  0.00  0.00    +0.000 A 
ATOM     27  C   UNL     1       1.314   9.682  18.436  0.00  0.00    +0.000 A 
ATOM     28  C   UNL     1       1.124   9.348  19.789  0.00  0.00    +0.000 A 
ATOM     29  C   UNL     1       1.779   8.213  20.280  0.00  0.00    +0.000 A 
BRANCH  28  30
ATOM     30  C   UNL     1       0.272  10.286  20.581  0.00  0.00    +0.000 C 
ATOM     31  O   UNL     1       0.698  10.579  21.701  0.00  0.00    +0.000 OA
ATOM     32  N   UNL     1      -0.914  10.845  20.086  0.00  0.00    +0.000 N 
ATOM     33  C   UNL     1      -1.555  10.576  18.805  0.00  0.00    +0.000 C 
ATOM     34  C   UNL     1      -1.650  11.754  20.956  0.00  0.00    +0.000 C 
ENDBRANCH  28  30
BRANCH  29  35
ATOM     35  O   UNL     1       1.887   7.946  21.623  0.00  0.00    +0.000 OA
ATOM     36  H   UNL     1       1.012   8.142  22.010  0.00  0.00    +0.000 HD
ENDBRANCH  29  35
ENDBRANCH  22  24
ENDBRANCH   2  22
TORSDOF 8
ENDMDL
MODEL 2
REMARK VINA RESULT:      -8.7      1.469      1.626
REMARK  Name = 
REMARK  11 active torsions:
REMARK  status: ('A' for Active; 'I' for Inactive)
REMARK    1  A    between atoms: C_1  and  C_2
REMARK    2  A    between atoms: C_5  and  C_6
REMARK    3  A    between atoms: C_6  and  N_7
REMARK    4  A    between atoms: C_6  and  C_27
REMARK    5  A    between atoms: N_7  and  C_8
REMARK    6  A    between atoms: C_9  and  N_10
REMARK    7  A    between atoms: N_10  and  C_11
REMARK    8  A    between atoms: C_15  and  C_16
REMARK    9  A    between atoms: N_18  and  C_19
REMARK   10  A    between atoms: N_18  and  C_20
REMARK   11  A    between atoms: C_21  and  O_22
REMARK                            x       y       z     vdW  Elec       q    Type
REMARK                         _______ _______ _______ _____ _____    ______ ____
ROOT
ATOM      1  C   UNL     1       4.361   3.285  18.905  0.00  0.00    +0.000 C 
ATOM      2  C   UNL     1       3.136   3.755  19.306  0.00  0.00    +0.000 C 
ATOM      3  C   UNL     1       3.224   3.039  20.603  0.00  0.00    +0.000 C 
ATOM      4  O   UNL     1       2.578   2.891  21.612  0.00  0.00    +0.000 OA
ATOM      5  C   UNL     1       4.480   2.419  20.106  0.00  0.00    +0.000 C 
ATOM      6  O   UNL     1       5.245   1.604  20.558  0.00  0.00    +0.000 OA
ENDROOT
BRANCH   1   7
ATOM      7  N   UNL     1       5.166   3.383  17.860  0.00  0.00    +0.000 N 
ATOM      8  H   UNL     1       6.136   3.109  18.006  0.00  0.00    +0.000 HD
BRANCH   7   9
ATOM      9  C   UNL     1       5.181   4.641  17.056  0.00  0.00    +0.000 C 
BRANCH   9  14
ATOM     10  C   UNL     1       4.988   3.523  12.323  0.00  0.00    +0.000 C 
ATOM     11  C   UNL     1       5.692   3.966  13.543  0.00  0.00    +0.000 A 
ATOM     12  C   UNL     1       6.988   4.362  13.790  0.00  0.00    +0.000 A 
ATOM     13  C   UNL     1       7.061   4.651  15.173  0.00  0.00    +0.000 A 
ATOM     14  C   UNL     1       5.796   4.450  15.690  0.00  0.00    +0.000 A 
ATOM     15  O   UNL     1       4.965   4.003  14.696  0.00  0.00    +0.000 OA
ENDBRANCH   9  14
BRANCH   9  16
ATOM     16  C   UNL     1       5.907   5.775  17.875  0.00  0.00    +0.000 C 
ATOM     17  C   UNL     1       6.163   7.040  17.028  0.00  0.00    +0.000 C 
ATOM     18  C   UNL     1       7.148   8.008  17.667  0.00  0.00    +0.000 C 
ATOM     19  O   UNL     1       8.338   7.330  18.054  0.00  0.00    +0.000 OA
ATOM     20  C   UNL     1       8.079   6.395  19.092  0.00  0.00    +0.000 C 
ATOM     21  C   UNL     1       7.184   5.277  18.589  0.00  0.00    +0.000 C 
ENDBRANCH   9  16
ENDBRANCH   7   9
ENDBRANCH   1   7
BRANCH   2  22
ATOM     22  N   UNL     1       2.151   4.506  18.847  0.00  0.00    +0.000 N 
ATOM     23  H   UNL     1       1.757   4.271  17.928  0.00  0.00    +0.000 HD
BRANCH  22  24
ATOM     24  C   UNL     1       2.204   5.937  18.839  0.00  0.00    +0.000 A 
ATOM     25  C   UNL     1       2.643   6.665  17.727  0.00  0.00    +0.000 A 
ATOM     26  C   UNL     1       2.622   8.057  17.743  0.00  0.00    +0.000 A 
ATOM     27  C   UNL     1       2.110   8.733  18.853  0.00  0.00    +0.000 A 
ATOM     28  C   UNL     1       1.682   8.032  19.995  0.00  0.00    +0.000 A 
ATOM     29  C   UNL     1       1.845   6.642  20.008  0.00  0.00    +0.000 A 
BRANCH  28  30
ATOM     30  C   UNL     1       1.140   8.866  21.109  0.00  0.00    +0.000 C 
ATOM     31  O   UNL     1       1.673   8.701  22.210  0.00  0.00    +0.000 OA
ATOM     32  N   UNL     1       0.124   9.815  20.930  0.00  0.00    +0.000 N 
ATOM     33  C   UNL     1      -0.617  10.102  19.707  0.00  0.00    +0.000 C 
ATOM     34  C   UNL     1      -0.312  10.572  22.096  0.00  0.00    +0.000 C 
ENDBRANCH  28  30
BRANCH  29  35
ATOM     35  O   UNL     1       1.718   5.894  21.153  0.00  0.00    +0.000 OA
ATOM     36  H   UNL     1       0.771   5.920  21.391  0.00  0.00    +0.000 HD
ENDBRANCH  29  35
ENDBRANCH  22  24
ENDBRANCH   2  22
TORSDOF 8
ENDMDL
MODEL 3
REMARK VINA RESULT:      -8.6      1.207      3.376
REMARK  Name = 
REMARK  11 active torsions:
REMARK  status: ('A' for Active; 'I' for Inactive)
REMARK    1  A    between atoms: C_1  and  C_2
REMARK    2  A    between atoms: C_5  and  C_6
REMARK    3  A    between atoms: C_6  and  N_7
REMARK    4  A    between atoms: C_6  and  C_27
REMARK    5  A    between atoms: N_7  and  C_8
REMARK    6  A    between atoms: C_9  and  N_10
REMARK    7  A    between atoms: N_10  and  C_11
REMARK    8  A    between atoms: C_15  and  C_16
REMARK    9  A    between atoms: N_18  and  C_19
REMARK   10  A    between atoms: N_18  and  C_20
REMARK   11  A    between atoms: C_21  and  O_22
REMARK                            x       y       z     vdW  Elec       q    Type
REMARK                         _______ _______ _______ _____ _____    ______ ____
ROOT
ATOM      1  C   UNL     1       3.526   4.749  18.072  0.00  0.00    +0.000 C 
ATOM      2  C   UNL     1       2.997   5.096  19.290  0.00  0.00    +0.000 C 
ATOM      3  C   UNL     1       2.596   3.696  19.575  0.00  0.00    +0.000 C 
ATOM      4  O   UNL     1       2.062   3.058  20.449  0.00  0.00    +0.000 OA
ATOM      5  C   UNL     1       3.039   3.352  18.198  0.00  0.00    +0.000 C 
ATOM      6  O   UNL     1       3.024   2.339  17.545  0.00  0.00    +0.000 OA
ENDROOT
BRANCH   1   7
ATOM      7  N   UNL     1       4.137   5.335  17.054  0.00  0.00    +0.000 N 
ATOM      8  H   UNL     1       3.608   5.404  16.186  0.00  0.00    +0.000 HD
BRANCH   7   9
ATOM      9  C   UNL     1       5.525   4.923  16.691  0.00  0.00    +0.000 C 
BRANCH   9  14
ATOM     10  C   UNL     1       8.022   8.972  17.718  0.00  0.00    +0.000 C 
ATOM     11  C   UNL     1       7.684   7.548  17.916  0.00  0.00    +0.000 A 
ATOM     12  C   UNL     1       8.131   6.589  18.798  0.00  0.00    +0.000 A 
ATOM     13  C   UNL     1       7.437   5.398  18.479  0.00  0.00    +0.000 A 
ATOM     14  C   UNL     1       6.578   5.704  17.443  0.00  0.00    +0.000 A 
ATOM     15  O   UNL     1       6.750   7.014  17.079  0.00  0.00    +0.000 OA
ENDBRANCH   9  14
BRANCH   9  16
ATOM     16  C   UNL     1       5.712   5.036  15.130  0.00  0.00    +0.000 C 
ATOM     17  C   UNL     1       4.876   3.991  14.360  0.00  0.00    +0.000 C 
ATOM     18  C   UNL     1       5.284   3.844  12.901  0.00  0.00    +0.000 C 
ATOM     19  O   UNL     1       6.689   3.644  12.791  0.00  0.00    +0.000 OA
ATOM     20  C   UNL     1       7.403   4.797  13.215  0.00  0.00    +0.000 C 
ATOM     21  C   UNL     1       7.196   5.034  14.701  0.00  0.00    +0.000 C 
ENDBRANCH   9  16
ENDBRANCH   7   9
ENDBRANCH   1   7
BRANCH   2  22
ATOM     22  N   UNL     1       2.810   6.173  20.031  0.00  0.00    +0.000 N 
ATOM     23  H   UNL     1       2.319   6.061  20.926  0.00  0.00    +0.000 HD
BRANCH  22  24
ATOM     24  C   UNL     1       2.283   7.396  19.504  0.00  0.00    +0.000 A 
ATOM     25  C   UNL     1       2.383   7.734  18.150  0.00  0.00    +0.000 A 
ATOM     26  C   UNL     1       1.804   8.908  17.672  0.00  0.00    +0.000 A 
ATOM     27  C   UNL     1       1.073   9.725  18.535  0.00  0.00    +0.000 A 
ATOM     28  C   UNL     1       0.972   9.426  19.906  0.00  0.00    +0.000 A 
ATOM     29  C   UNL     1       1.680   8.319  20.387  0.00  0.00    +0.000 A 
BRANCH  28  30
ATOM     30  C   UNL     1       0.150  10.369  20.723  0.00  0.00    +0.000 C 
ATOM     31  O   UNL     1      -0.781   9.859  21.352  0.00  0.00    +0.000 OA
ATOM     32  N   UNL     1       0.427  11.738  20.820  0.00  0.00    +0.000 N 
ATOM     33  C   UNL     1       1.466  12.486  20.121  0.00  0.00    +0.000 C 
ATOM     34  C   UNL     1      -0.446  12.551  21.658  0.00  0.00    +0.000 C 
ENDBRANCH  28  30
BRANCH  29  35
ATOM     35  O   UNL     1       1.874   8.092  21.727  0.00  0.00    +0.000 OA
ATOM     36  H   UNL     1       2.729   8.506  21.952  0.00  0.00    +0.000 HD
ENDBRANCH  29  35
ENDBRANCH  22  24
ENDBRANCH   2  22
TORSDOF 8
ENDMDL
MODEL 4
REMARK VINA RESULT:      -8.4      1.503      1.993
REMARK  Name = 
REMARK  11 active torsions:
REMARK  status: ('A' for Active; 'I' for Inactive)
REMARK    1  A    between atoms: C_1  and  C_2
REMARK    2  A    between atoms: C_5  and  C_6
REMARK    3  A    between atoms: C_6  and  N_7
REMARK    4  A    between atoms: C_6  and  C_27
REMARK    5  A    between atoms: N_7  and  C_8
REMARK    6  A    between atoms: C_9  and  N_10
REMARK    7  A    between atoms: N_10  and  C_11
REMARK    8  A    between atoms: C_15  and  C_16
REMARK    9  A    between atoms: N_18  and  C_19
REMARK   10  A    between atoms: N_18  and  C_20
REMARK   11  A    between atoms: C_21  and  O_22
REMARK                            x       y       z     vdW  Elec       q    Type
REMARK                         _______ _______ _______ _____ _____    ______ ____
ROOT
ATOM      1  C   UNL     1       3.893   4.073  17.337  0.00  0.00    +0.000 C 
ATOM      2  C   UNL     1       3.199   5.133  17.863  0.00  0.00    +0.000 C 
ATOM      3  C   UNL     1       2.080   4.258  18.293  0.00  0.00    +0.000 C 
ATOM      4  O   UNL     1       1.019   4.343  18.861  0.00  0.00    +0.000 OA
ATOM      5  C   UNL     1       2.767   3.139  17.595  0.00  0.00    +0.000 C 
ATOM      6  O   UNL     1       2.493   1.981  17.402  0.00  0.00    +0.000 OA
ENDROOT
BRANCH   1   7
ATOM      7  N   UNL     1       5.041   3.850  16.718  0.00  0.00    +0.000 N 
ATOM      8  H   UNL     1       5.780   3.421  17.273  0.00  0.00    +0.000 HD
BRANCH   7   9
ATOM      9  C   UNL     1       5.671   4.940  15.916  0.00  0.00    +0.000 C 
BRANCH   9  14
ATOM     10  C   UNL     1       4.544   3.093  11.558  0.00  0.00    +0.000 C 
ATOM     11  C   UNL     1       5.479   3.692  12.531  0.00  0.00    +0.000 A 
ATOM     12  C   UNL     1       6.803   4.065  12.458  0.00  0.00    +0.000 A 
ATOM     13  C   UNL     1       7.148   4.567  13.735  0.00  0.00    +0.000 A 
ATOM     14  C   UNL     1       6.006   4.507  14.509  0.00  0.00    +0.000 A 
ATOM     15  O   UNL     1       4.991   3.945  13.779  0.00  0.00    +0.000 OA
ENDBRANCH   9  14
BRANCH   9  16
ATOM     16  C   UNL     1       6.937   5.486  16.681  0.00  0.00    +0.000 C 
ATOM     17  C   UNL     1       7.283   4.640  17.925  0.00  0.00    +0.000 C 
ATOM     18  C   UNL     1       8.269   5.319  18.865  0.00  0.00    +0.000 C 
ATOM     19  O   UNL     1       7.838   6.639  19.175  0.00  0.00    +0.000 OA
ATOM     20  C   UNL     1       7.862   7.469  18.022  0.00  0.00    +0.000 C 
ATOM     21  C   UNL     1       6.840   6.994  17.004  0.00  0.00    +0.000 C 
ENDBRANCH   9  16
ENDBRANCH   7   9
ENDBRANCH   1   7
BRANCH   2  22
ATOM     22  N   UNL     1       3.314   6.443  17.990  0.00  0.00    +0.000 N 
ATOM     23  H   UNL     1       4.256   6.832  18.117  0.00  0.00    +0.000 HD
BRANCH  22  24
ATOM     24  C   UNL     1       2.504   7.211  18.886  0.00  0.00    +0.000 A 
ATOM     25  C   UNL     1       2.183   6.767  20.174  0.00  0.00    +0.000 A 
ATOM     26  C   UNL     1       1.441   7.573  21.034  0.00  0.00    +0.000 A 
ATOM     27  C   UNL     1       1.059   8.854  20.630  0.00  0.00    +0.000 A 
ATOM     28  C   UNL     1       1.346   9.322  19.335  0.00  0.00    +0.000 A 
ATOM     29  C   UNL     1       1.969   8.440  18.445  0.00  0.00    +0.000 A 
BRANCH  28  30
ATOM     30  C   UNL     1       0.900  10.715  19.029  0.00  0.00    +0.000 C 
ATOM     31  O   UNL     1       1.753  11.594  19.175  0.00  0.00    +0.000 OA
ATOM     32  N   UNL     1      -0.384  11.020  18.560  0.00  0.00    +0.000 N 
ATOM     33  C   UNL     1      -1.501  10.102  18.364  0.00  0.00    +0.000 C 
ATOM     34  C   UNL     1      -0.694  12.419  18.289  0.00  0.00    +0.000 C 
ENDBRANCH  28  30
BRANCH  29  35
ATOM     35  O   UNL     1       2.051   8.688  17.096  0.00  0.00    +0.000 OA
ATOM     36  H   UNL     1       1.240   9.179  16.860  0.00  0.00    +0.000 HD
ENDBRANCH  29  35
ENDBRANCH  22  24
ENDBRANCH   2  22
TORSDOF 8
ENDMDL
MODEL 5
REMARK VINA RESULT:      -8.4      3.153      8.326
REMARK  Name = 
REMARK  11 active torsions:
REMARK  status: ('A' for Active; 'I' for Inactive)
REMARK    1  A    between atoms: C_1  and  C_2
REMARK    2  A    between atoms: C_5  and  C_6
REMARK    3  A    between atoms: C_6  and  N_7
REMARK    4  A    between atoms: C_6  and  C_27
REMARK    5  A    between atoms: N_7  and  C_8
REMARK    6  A    between atoms: C_9  and  N_10
REMARK    7  A    between atoms: N_10  and  C_11
REMARK    8  A    between atoms: C_15  and  C_16
REMARK    9  A    between atoms: N_18  and  C_19
REMARK   10  A    between atoms: N_18  and  C_20
REMARK   11  A    between atoms: C_21  and  O_22
REMARK                            x       y       z     vdW  Elec       q    Type
REMARK                         _______ _______ _______ _____ _____    ______ ____
ROOT
ATOM      1  C   UNL     1       0.199   9.947  20.789  0.00  0.00    +0.000 C 
ATOM      2  C   UNL     1       0.881   9.055  21.580  0.00  0.00    +0.000 C 
ATOM      3  C   UNL     1       0.323   9.646  22.822  0.00  0.00    +0.000 C 
ATOM      4  O   UNL     1       0.373   9.480  24.016  0.00  0.00    +0.000 OA
ATOM      5  C   UNL     1      -0.297  10.696  21.972  0.00  0.00    +0.000 C 
ATOM      6  O   UNL     1      -0.953  11.681  22.206  0.00  0.00    +0.000 OA
ENDROOT
BRANCH   1   7
ATOM      7  N   UNL     1       0.049  10.217  19.503  0.00  0.00    +0.000 N 
ATOM      8  H   UNL     1       0.902  10.262  18.946  0.00  0.00    +0.000 HD
BRANCH   7   9
ATOM      9  C   UNL     1      -0.809  11.365  19.085  0.00  0.00    +0.000 C 
BRANCH   9  14
ATOM     10  C   UNL     1      -5.145  11.859  16.932  0.00  0.00    +0.000 C 
ATOM     11  C   UNL     1      -3.831  11.210  17.111  0.00  0.00    +0.000 A 
ATOM     12  C   UNL     1      -3.198  10.173  16.462  0.00  0.00    +0.000 A 
ATOM     13  C   UNL     1      -1.952   9.998  17.109  0.00  0.00    +0.000 A 
ATOM     14  C   UNL     1      -1.877  10.961  18.095  0.00  0.00    +0.000 A 
ATOM     15  O   UNL     1      -3.040  11.685  18.115  0.00  0.00    +0.000 OA
ENDBRANCH   9  14
BRANCH   9  16
ATOM     16  C   UNL     1       0.103  12.523  18.527  0.00  0.00    +0.000 C 
ATOM     17  C   UNL     1       1.602  12.159  18.560  0.00  0.00    +0.000 C 
ATOM     18  C   UNL     1       2.521  13.355  18.357  0.00  0.00    +0.000 C 
ATOM     19  O   UNL     1       2.171  14.412  19.243  0.00  0.00    +0.000 OA
ATOM     20  C   UNL     1       0.886  14.932  18.935  0.00  0.00    +0.000 C 
ATOM     21  C   UNL     1      -0.186  13.888  19.193  0.00  0.00    +0.000 C 
ENDBRANCH   9  16
ENDBRANCH   7   9
ENDBRANCH   1   7
BRANCH   2  22
ATOM     22  N   UNL     1       1.736   8.057  21.455  0.00  0.00    +0.000 N 
ATOM     23  H   UNL     1       2.630   8.126  21.956  0.00  0.00    +0.000 HD
BRANCH  22  24
ATOM     24  C   UNL     1       2.098   7.498  20.188  0.00  0.00    +0.000 A 
ATOM     25  C   UNL     1       2.099   8.251  19.009  0.00  0.00    +0.000 A 
ATOM     26  C   UNL     1       2.515   7.680  17.808  0.00  0.00    +0.000 A 
ATOM     27  C   UNL     1       2.984   6.366  17.788  0.00  0.00    +0.000 A 
ATOM     28  C   UNL     1       2.975   5.574  18.950  0.00  0.00    +0.000 A 
ATOM     29  C   UNL     1       2.422   6.126  20.112  0.00  0.00    +0.000 A 
BRANCH  28  30
ATOM     30  C   UNL     1       3.517   4.190  18.804  0.00  0.00    +0.000 C 
ATOM     31  O   UNL     1       4.743   4.083  18.898  0.00  0.00    +0.000 OA
ATOM     32  N   UNL     1       2.703   3.065  18.618  0.00  0.00    +0.000 N 
ATOM     33  C   UNL     1       1.253   3.035  18.460  0.00  0.00    +0.000 C 
ATOM     34  C   UNL     1       3.354   1.767  18.498  0.00  0.00    +0.000 C 
ENDBRANCH  28  30
BRANCH  29  35
ATOM     35  O   UNL     1       2.115   5.368  21.215  0.00  0.00    +0.000 OA
ATOM     36  H   UNL     1       2.628   4.541  21.129  0.00  0.00    +0.000 HD
ENDBRANCH  29  35
ENDBRANCH  22  24
ENDBRANCH   2  22
TORSDOF 8
ENDMDL
MODEL 6
REMARK VINA RESULT:      -8.3      3.198      8.337
REMARK  Name = 
REMARK  11 active torsions:
REMARK  status: ('A' for Active; 'I' for Inactive)
REMARK    1  A    between atoms: C_1  and  C_2
REMARK    2  A    between atoms: C_5  and  C_6
REMARK    3  A    between atoms: C_6  and  N_7
REMARK    4  A    between atoms: C_6  and  C_27
REMARK    5  A    between atoms: N_7  and  C_8
REMARK    6  A    between atoms: C_9  and  N_10
REMARK    7  A    between atoms: N_10  and  C_11
REMARK    8  A    between atoms: C_15  and  C_16
REMARK    9  A    between atoms: N_18  and  C_19
REMARK   10  A    between atoms: N_18  and  C_20
REMARK   11  A    between atoms: C_21  and  O_22
REMARK                            x       y       z     vdW  Elec       q    Type
REMARK                         _______ _______ _______ _____ _____    ______ ____
ROOT
ATOM      1  C   UNL     1      -0.025   9.745  20.820  0.00  0.00    +0.000 C 
ATOM      2  C   UNL     1       0.826   8.966  21.564  0.00  0.00    +0.000 C 
ATOM      3  C   UNL     1       0.330   9.545  22.837  0.00  0.00    +0.000 C 
ATOM      4  O   UNL     1       0.515   9.437  24.025  0.00  0.00    +0.000 OA
ATOM      5  C   UNL     1      -0.484  10.486  22.022  0.00  0.00    +0.000 C 
ATOM      6  O   UNL     1      -1.219  11.403  22.291  0.00  0.00    +0.000 OA
ENDROOT
BRANCH   1   7
ATOM      7  N   UNL     1      -0.329   9.943  19.547  0.00  0.00    +0.000 N 
ATOM      8  H   UNL     1       0.421   9.796  18.873  0.00  0.00    +0.000 HD
BRANCH   7   9
ATOM      9  C   UNL     1      -1.044  11.190  19.145  0.00  0.00    +0.000 C 
BRANCH   9  14
ATOM     10  C   UNL     1      -5.363  12.001  17.054  0.00  0.00    +0.000 C 
ATOM     11  C   UNL     1      -4.049  11.333  17.144  0.00  0.00    +0.000 A 
ATOM     12  C   UNL     1      -3.407  10.408  16.350  0.00  0.00    +0.000 A 
ATOM     13  C   UNL     1      -2.166  10.138  16.974  0.00  0.00    +0.000 A 
ATOM     14  C   UNL     1      -2.102  10.940  18.096  0.00  0.00    +0.000 A 
ATOM     15  O   UNL     1      -3.267  11.651  18.215  0.00  0.00    +0.000 OA
ENDBRANCH   9  14
BRANCH   9  16
ATOM     16  C   UNL     1       0.008  12.266  18.675  0.00  0.00    +0.000 C 
ATOM     17  C   UNL     1       1.418  11.667  18.488  0.00  0.00    +0.000 C 
ATOM     18  C   UNL     1       2.513  12.719  18.371  0.00  0.00    +0.000 C 
ATOM     19  O   UNL     1       2.427  13.652  19.442  0.00  0.00    +0.000 OA
ATOM     20  C   UNL     1       1.231  14.415  19.360  0.00  0.00    +0.000 C 
ATOM     21  C   UNL     1       0.018  13.526  19.569  0.00  0.00    +0.000 C 
ENDBRANCH   9  16
ENDBRANCH   7   9
ENDBRANCH   1   7
BRANCH   2  22
ATOM     22  N   UNL     1       1.771   8.062  21.385  0.00  0.00    +0.000 N 
ATOM     23  H   UNL     1       2.707   8.265  21.755  0.00  0.00    +0.000 HD
BRANCH  22  24
ATOM     24  C   UNL     1       2.033   7.453  20.115  0.00  0.00    +0.000 A 
ATOM     25  C   UNL     1       2.384   8.199  18.985  0.00  0.00    +0.000 A 
ATOM     26  C   UNL     1       2.687   7.560  17.784  0.00  0.00    +0.000 A 
ATOM     27  C   UNL     1       2.693   6.166  17.721  0.00  0.00    +0.000 A 
ATOM     28  C   UNL     1       2.323   5.387  18.832  0.00  0.00    +0.000 A 
ATOM     29  C   UNL     1       1.888   6.055  19.982  0.00  0.00    +0.000 A 
BRANCH  28  30
ATOM     30  C   UNL     1       2.386   3.906  18.644  0.00  0.00    +0.000 C 
ATOM     31  O   UNL     1       1.315   3.354  18.379  0.00  0.00    +0.000 OA
ATOM     32  N   UNL     1       3.581   3.177  18.713  0.00  0.00    +0.000 N 
ATOM     33  C   UNL     1       4.910   3.679  19.041  0.00  0.00    +0.000 C 
ATOM     34  C   UNL     1       3.510   1.737  18.501  0.00  0.00    +0.000 C 
ENDBRANCH  28  30
BRANCH  29  35
ATOM     35  O   UNL     1       1.254   5.410  21.016  0.00  0.00    +0.000 OA
ATOM     36  H   UNL     1       0.843   6.108  21.561  0.00  0.00    +0.000 HD
ENDBRANCH  29  35
ENDBRANCH  22  24
ENDBRANCH   2  22
TORSDOF 8
ENDMDL
MODEL 7
REMARK VINA RESULT:      -8.3      2.006      4.480
REMARK  Name = 
REMARK  11 active torsions:
REMARK  status: ('A' for Active; 'I' for Inactive)
REMARK    1  A    between atoms: C_1  and  C_2
REMARK    2  A    between atoms: C_5  and  C_6
REMARK    3  A    between atoms: C_6  and  N_7
REMARK    4  A    between atoms: C_6  and  C_27
REMARK    5  A    between atoms: N_7  and  C_8
REMARK    6  A    between atoms: C_9  and  N_10
REMARK    7  A    between atoms: N_10  and  C_11
REMARK    8  A    between atoms: C_15  and  C_16
REMARK    9  A    between atoms: N_18  and  C_19
REMARK   10  A    between atoms: N_18  and  C_20
REMARK   11  A    between atoms: C_21  and  O_22
REMARK                            x       y       z     vdW  Elec       q    Type
REMARK                         _______ _______ _______ _____ _____    ______ ____
ROOT
ATOM      1  C   UNL     1       2.201   7.186  19.064  0.00  0.00    +0.000 C 
ATOM      2  C   UNL     1       1.737   8.457  19.293  0.00  0.00    +0.000 C 
ATOM      3  C   UNL     1       1.482   8.166  20.725  0.00  0.00    +0.000 C 
ATOM      4  O   UNL     1       1.072   8.725  21.713  0.00  0.00    +0.000 OA
ATOM      5  C   UNL     1       1.847   6.753  20.440  0.00  0.00    +0.000 C 
ATOM      6  O   UNL     1       1.871   5.747  21.104  0.00  0.00    +0.000 OA
ENDROOT
BRANCH   1   7
ATOM      7  N   UNL     1       2.680   6.472  18.059  0.00  0.00    +0.000 N 
ATOM      8  H   UNL     1       1.994   6.024  17.453  0.00  0.00    +0.000 HD
BRANCH   7   9
ATOM      9  C   UNL     1       3.761   5.474  18.311  0.00  0.00    +0.000 C 
BRANCH   9  14
ATOM     10  C   UNL     1       7.862   7.982  17.557  0.00  0.00    +0.000 C 
ATOM     11  C   UNL     1       6.896   6.913  17.236  0.00  0.00    +0.000 A 
ATOM     12  C   UNL     1       6.871   5.924  16.278  0.00  0.00    +0.000 A 
ATOM     13  C   UNL     1       5.661   5.215  16.467  0.00  0.00    +0.000 A 
ATOM     14  C   UNL     1       5.029   5.788  17.553  0.00  0.00    +0.000 A 
ATOM     15  O   UNL     1       5.773   6.846  18.006  0.00  0.00    +0.000 OA
ENDBRANCH   9  14
BRANCH   9  16
ATOM     16  C   UNL     1       3.224   4.028  17.987  0.00  0.00    +0.000 C 
ATOM     17  C   UNL     1       1.711   3.887  18.262  0.00  0.00    +0.000 C 
ATOM     18  C   UNL     1       1.232   2.443  18.290  0.00  0.00    +0.000 C 
ATOM     19  O   UNL     1       2.046   1.661  19.157  0.00  0.00    +0.000 OA
ATOM     20  C   UNL     1       3.371   1.556  18.658  0.00  0.00    +0.000 C 
ATOM     21  C   UNL     1       4.051   2.913  18.665  0.00  0.00    +0.000 C 
ENDBRANCH   9  16
ENDBRANCH   7   9
ENDBRANCH   1   7
BRANCH   2  22
ATOM     22  N   UNL     1       1.515   9.577  18.628  0.00  0.00    +0.000 N 
ATOM     23  H   UNL     1       2.243  10.301  18.649  0.00  0.00    +0.000 HD
BRANCH  22  24
ATOM     24  C   UNL     1       0.295  10.318  18.741  0.00  0.00    +0.000 A 
ATOM     25  C   UNL     1      -0.820  10.053  17.938  0.00  0.00    +0.000 A 
ATOM     26  C   UNL     1      -2.006  10.760  18.123  0.00  0.00    +0.000 A 
ATOM     27  C   UNL     1      -2.102  11.701  19.149  0.00  0.00    +0.000 A 
ATOM     28  C   UNL     1      -0.994  12.007  19.960  0.00  0.00    +0.000 A 
ATOM     29  C   UNL     1       0.224  11.385  19.663  0.00  0.00    +0.000 A 
BRANCH  28  30
ATOM     30  C   UNL     1      -1.228  13.019  21.034  0.00  0.00    +0.000 C 
ATOM     31  O   UNL     1      -1.339  14.187  20.654  0.00  0.00    +0.000 OA
ATOM     32  N   UNL     1      -1.363  12.679  22.387  0.00  0.00    +0.000 N 
ATOM     33  C   UNL     1      -1.230  11.358  22.989  0.00  0.00    +0.000 C 
ATOM     34  C   UNL     1      -1.598  13.759  23.337  0.00  0.00    +0.000 C 
ENDBRANCH  28  30
BRANCH  29  35
ATOM     35  O   UNL     1       1.416  11.802  20.201  0.00  0.00    +0.000 OA
ATOM     36  H   UNL     1       1.188  12.342  20.982  0.00  0.00    +0.000 HD
ENDBRANCH  29  35
ENDBRANCH  22  24
ENDBRANCH   2  22
TORSDOF 8
ENDMDL
MODEL 8
REMARK VINA RESULT:      -8.2      1.406      3.452
REMARK  Name = 
REMARK  11 active torsions:
REMARK  status: ('A' for Active; 'I' for Inactive)
REMARK    1  A    between atoms: C_1  and  C_2
REMARK    2  A    between atoms: C_5  and  C_6
REMARK    3  A    between atoms: C_6  and  N_7
REMARK    4  A    between atoms: C_6  and  C_27
REMARK    5  A    between atoms: N_7  and  C_8
REMARK    6  A    between atoms: C_9  and  N_10
REMARK    7  A    between atoms: N_10  and  C_11
REMARK    8  A    between atoms: C_15  and  C_16
REMARK    9  A    between atoms: N_18  and  C_19
REMARK   10  A    between atoms: N_18  and  C_20
REMARK   11  A    between atoms: C_21  and  O_22
REMARK                            x       y       z     vdW  Elec       q    Type
REMARK                         _______ _______ _______ _____ _____    ______ ____
ROOT
ATOM      1  C   UNL     1       3.456   4.682  17.571  0.00  0.00    +0.000 C 
ATOM      2  C   UNL     1       3.313   5.523  18.646  0.00  0.00    +0.000 C 
ATOM      3  C   UNL     1       2.698   4.453  19.470  0.00  0.00    +0.000 C 
ATOM      4  O   UNL     1       2.259   4.294  20.583  0.00  0.00    +0.000 OA
ATOM      5  C   UNL     1       2.723   3.590  18.260  0.00  0.00    +0.000 C 
ATOM      6  O   UNL     1       2.339   2.472  18.024  0.00  0.00    +0.000 OA
ENDROOT
BRANCH   1   7
ATOM      7  N   UNL     1       3.922   4.727  16.333  0.00  0.00    +0.000 N 
ATOM      8  H   UNL     1       3.369   4.253  15.622  0.00  0.00    +0.000 HD
BRANCH   7   9
ATOM      9  C   UNL     1       5.354   4.392  16.072  0.00  0.00    +0.000 C 
BRANCH   9  14
ATOM     10  C   UNL     1       7.688   8.385  17.584  0.00  0.00    +0.000 C 
ATOM     11  C   UNL     1       7.332   6.955  17.675  0.00  0.00    +0.000 A 
ATOM     12  C   UNL     1       7.667   5.957  18.563  0.00  0.00    +0.000 A 
ATOM     13  C   UNL     1       7.023   4.783  18.107  0.00  0.00    +0.000 A 
ATOM     14  C   UNL     1       6.300   5.136  16.984  0.00  0.00    +0.000 A 
ATOM     15  O   UNL     1       6.512   6.461  16.704  0.00  0.00    +0.000 OA
ENDBRANCH   9  14
BRANCH   9  16
ATOM     16  C   UNL     1       5.680   4.647  14.551  0.00  0.00    +0.000 C 
ATOM     17  C   UNL     1       5.026   3.599  13.626  0.00  0.00    +0.000 C 
ATOM     18  C   UNL     1       5.587   3.606  12.210  0.00  0.00    +0.000 C 
ATOM     19  O   UNL     1       7.008   3.538  12.234  0.00  0.00    +0.000 OA
ATOM     20  C   UNL     1       7.566   4.710  12.812  0.00  0.00    +0.000 C 
ATOM     21  C   UNL     1       7.193   4.807  14.281  0.00  0.00    +0.000 C 
ENDBRANCH   9  16
ENDBRANCH   7   9
ENDBRANCH   1   7
BRANCH   2  22
ATOM     22  N   UNL     1       3.540   6.783  18.969  0.00  0.00    +0.000 N 
ATOM     23  H   UNL     1       4.053   6.971  19.839  0.00  0.00    +0.000 HD
BRANCH  22  24
ATOM     24  C   UNL     1       2.517   7.785  18.956  0.00  0.00    +0.000 A 
ATOM     25  C   UNL     1       2.193   8.510  17.804  0.00  0.00    +0.000 A 
ATOM     26  C   UNL     1       1.150   9.434  17.822  0.00  0.00    +0.000 A 
ATOM     27  C   UNL     1       0.389   9.601  18.980  0.00  0.00    +0.000 A 
ATOM     28  C   UNL     1       0.702   8.905  20.161  0.00  0.00    +0.000 A 
ATOM     29  C   UNL     1       1.839   8.089  20.157  0.00  0.00    +0.000 A 
BRANCH  28  30
ATOM     30  C   UNL     1      -0.197   9.157  21.327  0.00  0.00    +0.000 C 
ATOM     31  O   UNL     1      -0.785   8.167  21.773  0.00  0.00    +0.000 OA
ATOM     32  N   UNL     1      -0.343  10.417  21.922  0.00  0.00    +0.000 N 
ATOM     33  C   UNL     1       0.258  11.675  21.496  0.00  0.00    +0.000 C 
ATOM     34  C   UNL     1      -1.246  10.530  23.061  0.00  0.00    +0.000 C 
ENDBRANCH  28  30
BRANCH  29  35
ATOM     35  O   UNL     1       2.390   7.583  21.309  0.00  0.00    +0.000 OA
ATOM     36  H   UNL     1       1.742   7.757  22.019  0.00  0.00    +0.000 HD
ENDBRANCH  29  35
ENDBRANCH  22  24
ENDBRANCH   2  22
TORSDOF 8
ENDMDL
MODEL 9
REMARK VINA RESULT:      -8.2      1.212      1.677
REMARK  Name = 
REMARK  11 active torsions:
REMARK  status: ('A' for Active; 'I' for Inactive)
REMARK    1  A    between atoms: C_1  and  C_2
REMARK    2  A    between atoms: C_5  and  C_6
REMARK    3  A    between atoms: C_6  and  N_7
REMARK    4  A    between atoms: C_6  and  C_27
REMARK    5  A    between atoms: N_7  and  C_8
REMARK    6  A    between atoms: C_9  and  N_10
REMARK    7  A    between atoms: N_10  and  C_11
REMARK    8  A    between atoms: C_15  and  C_16
REMARK    9  A    between atoms: N_18  and  C_19
REMARK   10  A    between atoms: N_18  and  C_20
REMARK   11  A    between atoms: C_21  and  O_22
REMARK                            x       y       z     vdW  Elec       q    Type
REMARK                         _______ _______ _______ _____ _____    ______ ____
ROOT
ATOM      1  C   UNL     1       3.883   3.888  17.791  0.00  0.00    +0.000 C 
ATOM      2  C   UNL     1       3.307   4.766  18.675  0.00  0.00    +0.000 C 
ATOM      3  C   UNL     1       2.062   3.962  18.746  0.00  0.00    +0.000 C 
ATOM      4  O   UNL     1       0.992   3.980  19.304  0.00  0.00    +0.000 OA
ATOM      5  C   UNL     1       2.632   3.095  17.681  0.00  0.00    +0.000 C 
ATOM      6  O   UNL     1       2.220   2.141  17.070  0.00  0.00    +0.000 OA
ENDROOT
BRANCH   1   7
ATOM      7  N   UNL     1       5.024   3.749  17.135  0.00  0.00    +0.000 N 
ATOM      8  H   UNL     1       5.807   3.365  17.661  0.00  0.00    +0.000 HD
BRANCH   7   9
ATOM      9  C   UNL     1       5.553   4.887  16.327  0.00  0.00    +0.000 C 
BRANCH   9  14
ATOM     10  C   UNL     1       7.882   5.253  12.069  0.00  0.00    +0.000 C 
ATOM     11  C   UNL     1       6.865   4.670  12.967  0.00  0.00    +0.000 A 
ATOM     12  C   UNL     1       5.939   3.663  12.811  0.00  0.00    +0.000 A 
ATOM     13  C   UNL     1       5.231   3.578  14.033  0.00  0.00    +0.000 A 
ATOM     14  C   UNL     1       5.788   4.514  14.882  0.00  0.00    +0.000 A 
ATOM     15  O   UNL     1       6.770   5.202  14.219  0.00  0.00    +0.000 OA
ENDBRANCH   9  14
BRANCH   9  16
ATOM     16  C   UNL     1       6.859   5.448  17.009  0.00  0.00    +0.000 C 
ATOM     17  C   UNL     1       7.198   4.713  18.323  0.00  0.00    +0.000 C 
ATOM     18  C   UNL     1       8.234   5.437  19.172  0.00  0.00    +0.000 C 
ATOM     19  O   UNL     1       7.866   6.799  19.358  0.00  0.00    +0.000 OA
ATOM     20  C   UNL     1       7.898   7.510  18.128  0.00  0.00    +0.000 C 
ATOM     21  C   UNL     1       6.833   6.983  17.182  0.00  0.00    +0.000 C 
ENDBRANCH   9  16
ENDBRANCH   7   9
ENDBRANCH   1   7
BRANCH   2  22
ATOM     22  N   UNL     1       3.586   5.906  19.280  0.00  0.00    +0.000 N 
ATOM     23  H   UNL     1       3.721   5.888  20.298  0.00  0.00    +0.000 HD
BRANCH  22  24
ATOM     24  C   UNL     1       2.840   7.107  19.057  0.00  0.00    +0.000 A 
ATOM     25  C   UNL     1       2.877   7.797  17.840  0.00  0.00    +0.000 A 
ATOM     26  C   UNL     1       2.090   8.930  17.648  0.00  0.00    +0.000 A 
ATOM     27  C   UNL     1       1.217   9.350  18.653  0.00  0.00    +0.000 A 
ATOM     28  C   UNL     1       1.172   8.693  19.896  0.00  0.00    +0.000 A 
ATOM     29  C   UNL     1       2.074   7.645  20.114  0.00  0.00    +0.000 A 
BRANCH  28  30
ATOM     30  C   UNL     1       0.186   9.226  20.883  0.00  0.00    +0.000 C 
ATOM     31  O   UNL     1      -0.583   8.396  21.374  0.00  0.00    +0.000 OA
ATOM     32  N   UNL     1       0.149  10.571  21.276  0.00  0.00    +0.000 N 
ATOM     33  C   UNL     1       0.967  11.667  20.770  0.00  0.00    +0.000 C 
ATOM     34  C   UNL     1      -0.856  10.965  22.255  0.00  0.00    +0.000 C 
ENDBRANCH  28  30
BRANCH  29  35
ATOM     35  O   UNL     1       2.305   7.117  21.360  0.00  0.00    +0.000 OA
ATOM     36  H   UNL     1       1.560   6.511  21.541  0.00  0.00    +0.000 HD
ENDBRANCH  29  35
ENDBRANCH  22  24
ENDBRANCH   2  22
TORSDOF 8
ENDMDL
