MODEL 1
REMARK VINA RESULT:      -7.6      0.000      0.000
REMARK  Name = 
REMARK  11 active torsions:
REMARK  status: ('A' for Active; 'I' for Inactive)
REMARK    1  A    between atoms: C_1  and  O_2
REMARK    2  A    between atoms: O_2  and  C_3
REMARK    3  A    between atoms: C_6  and  C_7
REMARK    4  A    between atoms: C_8  and  C_9
REMARK    5  A    between atoms: C_9  and  O_11
REMARK    6  A    between atoms: O_11  and  C_12
REMARK    7  A    between atoms: C_12  and  C_13
REMARK    8  A    between atoms: C_12  and  C_14
REMARK    9  A    between atoms: C_15  and  C_16
REMARK   10  A    between atoms: C_21  and  C_22
REMARK   11  A    between atoms: C_28  and  O_29
REMARK                            x       y       z     vdW  Elec       q    Type
REMARK                         _______ _______ _______ _____ _____    ______ ____
ROOT
ATOM      1  C   UNL     1       0.319  11.294  19.605  0.00  0.00    +0.000 C 
ATOM      2  C   UNL     1      -0.470  11.518  20.886  0.00  0.00    +0.000 C 
ATOM      3  C   UNL     1      -0.521  10.555  21.841  0.00  0.00    +0.000 C 
ATOM      4  C   UNL     1      -1.166  10.617  23.210  0.00  0.00    +0.000 C 
ATOM      5  N   UNL     1       0.068   9.319  21.668  0.00  0.00    +0.000 NA
ATOM      6  C   UNL     1       0.738   9.094  20.598  0.00  0.00    +0.000 A 
ATOM      7  S   UNL     1       1.513   7.564  20.299  0.00  0.00    +0.000 S 
ATOM      8  C   UNL     1       2.155   8.118  18.804  0.00  0.00    +0.000 A 
ATOM      9  C   UNL     1       2.937   7.453  17.945  0.00  0.00    +0.000 C 
ATOM     10  C   UNL     1       1.672   9.502  18.520  0.00  0.00    +0.000 A 
ATOM     11  O   UNL     1       1.878  10.085  17.464  0.00  0.00    +0.000 OA
ATOM     12  N   UNL     1       0.941   9.974  19.586  0.00  0.00    +0.000 N 
ENDROOT
BRANCH   9  13
ATOM     13  C   UNL     1       3.311   6.034  18.018  0.00  0.00    +0.000 A 
ATOM     14  C   UNL     1       2.341   5.040  18.193  0.00  0.00    +0.000 A 
ATOM     15  C   UNL     1       2.730   3.710  18.344  0.00  0.00    +0.000 A 
ATOM     16 CL   UNL     1       1.542   2.497  18.643  0.00  0.00    +0.000 Cl
ATOM     17  C   UNL     1       4.078   3.346  18.299  0.00  0.00    +0.000 A 
ATOM     18  C   UNL     1       5.052   4.326  18.102  0.00  0.00    +0.000 A 
ATOM     19  C   UNL     1       4.665   5.660  17.972  0.00  0.00    +0.000 A 
BRANCH  19  20
ATOM     20  O   UNL     1       5.619   6.630  17.819  0.00  0.00    +0.000 OA
ATOM     21  H   UNL     1       6.368   6.259  17.323  0.00  0.00    +0.000 HD
ENDBRANCH  19  20
ENDBRANCH   9  13
BRANCH   1  25
ATOM     22  C   UNL     1       3.291  14.403  19.042  0.00  0.00    +0.000 A 
ATOM     23  C   UNL     1       2.476  14.008  17.980  0.00  0.00    +0.000 A 
ATOM     24  C   UNL     1       1.525  13.005  18.148  0.00  0.00    +0.000 A 
ATOM     25  C   UNL     1       1.387  12.366  19.392  0.00  0.00    +0.000 A 
ATOM     26  C   UNL     1       2.233  12.748  20.445  0.00  0.00    +0.000 A 
ATOM     27  C   UNL     1       3.184  13.755  20.269  0.00  0.00    +0.000 A 
BRANCH  22  29
ATOM     28  C   UNL     1       5.251  15.051  17.903  0.00  0.00    +0.000 C 
ATOM     29  O   UNL     1       4.171  15.412  18.757  0.00  0.00    +0.000 OA
ENDBRANCH  22  29
ENDBRANCH   1  25
BRANCH   2  30
ATOM     30  C   UNL     1      -1.127  12.858  21.023  0.00  0.00    +0.000 C 
ATOM     31  O   UNL     1      -0.896  13.670  21.897  0.00  0.00    +0.000 OA
BRANCH  30  32
ATOM     32  O   UNL     1      -2.030  13.051  20.014  0.00  0.00    +0.000 OA
BRANCH  32  33
ATOM     33  C   UNL     1      -3.256  12.279  20.027  0.00  0.00    +0.000 C 
ATOM     34  C   UNL     1      -4.433  13.088  20.573  0.00  0.00    +0.000 C 
ATOM     35  C   UNL     1      -3.546  11.882  18.580  0.00  0.00    +0.000 C 
ENDBRANCH  32  33
ENDBRANCH  30  32
ENDBRANCH   2  30
TORSDOF 7
ENDMDL
MODEL 2
REMARK VINA RESULT:      -7.5      1.195      1.760
REMARK  Name = 
REMARK  11 active torsions:
REMARK  status: ('A' for Active; 'I' for Inactive)
REMARK    1  A    between atoms: C_1  and  O_2
REMARK    2  A    between atoms: O_2  and  C_3
REMARK    3  A    between atoms: C_6  and  C_7
REMARK    4  A    between atoms: C_8  and  C_9
REMARK    5  A    between atoms: C_9  and  O_11
REMARK    6  A    between atoms: O_11  and  C_12
REMARK    7  A    between atoms: C_12  and  C_13
REMARK    8  A    between atoms: C_12  and  C_14
REMARK    9  A    between atoms: C_15  and  C_16
REMARK   10  A    between atoms: C_21  and  C_22
REMARK   11  A    between atoms: C_28  and  O_29
REMARK                            x       y       z     vdW  Elec       q    Type
REMARK                         _______ _______ _______ _____ _____    ______ ____
ROOT
ATOM      1  C   UNL     1       0.194  11.052  19.768  0.00  0.00    +0.000 C 
ATOM      2  C   UNL     1      -0.501  11.107  21.121  0.00  0.00    +0.000 C 
ATOM      3  C   UNL     1      -0.357  10.093  22.010  0.00  0.00    +0.000 C 
ATOM      4  C   UNL     1      -0.882  10.000  23.428  0.00  0.00    +0.000 C 
ATOM      5  N   UNL     1       0.353   8.948  21.709  0.00  0.00    +0.000 NA
ATOM      6  C   UNL     1       0.947   8.865  20.577  0.00  0.00    +0.000 A 
ATOM      7  S   UNL     1       1.864   7.458  20.116  0.00  0.00    +0.000 S 
ATOM      8  C   UNL     1       2.305   8.169  18.614  0.00  0.00    +0.000 A 
ATOM      9  C   UNL     1       3.080   7.652  17.653  0.00  0.00    +0.000 C 
ATOM     10  C   UNL     1       1.644   9.499  18.462  0.00  0.00    +0.000 A 
ATOM     11  O   UNL     1       1.688  10.160  17.434  0.00  0.00    +0.000 OA
ATOM     12  N   UNL     1       0.959   9.819  19.612  0.00  0.00    +0.000 N 
ENDROOT
BRANCH   9  13
ATOM     13  C   UNL     1       3.619   6.285  17.602  0.00  0.00    +0.000 A 
ATOM     14  C   UNL     1       2.779   5.173  17.724  0.00  0.00    +0.000 A 
ATOM     15  C   UNL     1       3.325   3.891  17.757  0.00  0.00    +0.000 A 
ATOM     16 CL   UNL     1       2.299   2.527  17.992  0.00  0.00    +0.000 Cl
ATOM     17  C   UNL     1       4.704   3.695  17.645  0.00  0.00    +0.000 A 
ATOM     18  C   UNL     1       5.549   4.796  17.499  0.00  0.00    +0.000 A 
ATOM     19  C   UNL     1       5.005   6.081  17.488  0.00  0.00    +0.000 A 
BRANCH  19  20
ATOM     20  O   UNL     1       5.833   7.165  17.386  0.00  0.00    +0.000 OA
ATOM     21  H   UNL     1       6.624   7.009  17.929  0.00  0.00    +0.000 HD
ENDBRANCH  19  20
ENDBRANCH   9  13
BRANCH   1  25
ATOM     22  C   UNL     1       2.739  14.517  19.189  0.00  0.00    +0.000 A 
ATOM     23  C   UNL     1       1.743  14.211  18.260  0.00  0.00    +0.000 A 
ATOM     24  C   UNL     1       0.926  13.097  18.432  0.00  0.00    +0.000 A 
ATOM     25  C   UNL     1       1.109  12.255  19.541  0.00  0.00    +0.000 A 
ATOM     26  C   UNL     1       2.135  12.551  20.454  0.00  0.00    +0.000 A 
ATOM     27  C   UNL     1       2.949  13.671  20.275  0.00  0.00    +0.000 A 
BRANCH  22  29
ATOM     28  C   UNL     1       2.961  16.445  17.851  0.00  0.00    +0.000 C 
ATOM     29  O   UNL     1       3.459  15.648  18.919  0.00  0.00    +0.000 OA
ENDBRANCH  22  29
ENDBRANCH   1  25
BRANCH   2  30
ATOM     30  C   UNL     1      -1.292  12.348  21.398  0.00  0.00    +0.000 C 
ATOM     31  O   UNL     1      -2.315  12.675  20.828  0.00  0.00    +0.000 OA
BRANCH  30  32
ATOM     32  O   UNL     1      -0.708  13.073  22.400  0.00  0.00    +0.000 OA
BRANCH  32  33
ATOM     33  C   UNL     1      -1.100  14.458  22.571  0.00  0.00    +0.000 C 
ATOM     34  C   UNL     1      -1.201  14.844  24.047  0.00  0.00    +0.000 C 
ATOM     35  C   UNL     1      -0.024  15.309  21.900  0.00  0.00    +0.000 C 
ENDBRANCH  32  33
ENDBRANCH  30  32
ENDBRANCH   2  30
TORSDOF 7
ENDMDL
MODEL 3
REMARK VINA RESULT:      -7.3      1.858      2.382
REMARK  Name = 
REMARK  11 active torsions:
REMARK  status: ('A' for Active; 'I' for Inactive)
REMARK    1  A    between atoms: C_1  and  O_2
REMARK    2  A    between atoms: O_2  and  C_3
REMARK    3  A    between atoms: C_6  and  C_7
REMARK    4  A    between atoms: C_8  and  C_9
REMARK    5  A    between atoms: C_9  and  O_11
REMARK    6  A    between atoms: O_11  and  C_12
REMARK    7  A    between atoms: C_12  and  C_13
REMARK    8  A    between atoms: C_12  and  C_14
REMARK    9  A    between atoms: C_15  and  C_16
REMARK   10  A    between atoms: C_21  and  C_22
REMARK   11  A    between atoms: C_28  and  O_29
REMARK                            x       y       z     vdW  Elec       q    Type
REMARK                         _______ _______ _______ _____ _____    ______ ____
ROOT
ATOM      1  C   UNL     1       0.119  10.645  19.918  0.00  0.00    +0.000 C 
ATOM      2  C   UNL     1      -0.447  10.706  21.329  0.00  0.00    +0.000 C 
ATOM      3  C   UNL     1      -0.120   9.757  22.243  0.00  0.00    +0.000 C 
ATOM      4  C   UNL     1      -0.498   9.690  23.708  0.00  0.00    +0.000 C 
ATOM      5  N   UNL     1       0.667   8.670  21.922  0.00  0.00    +0.000 NA
ATOM      6  C   UNL     1       1.157   8.584  20.741  0.00  0.00    +0.000 A 
ATOM      7  S   UNL     1       2.160   7.248  20.252  0.00  0.00    +0.000 S 
ATOM      8  C   UNL     1       2.385   7.917  18.685  0.00  0.00    +0.000 A 
ATOM      9  C   UNL     1       3.112   7.426  17.675  0.00  0.00    +0.000 C 
ATOM     10  C   UNL     1       1.584   9.169  18.542  0.00  0.00    +0.000 A 
ATOM     11  O   UNL     1       1.465   9.778  17.488  0.00  0.00    +0.000 OA
ATOM     12  N   UNL     1       0.983   9.483  19.740  0.00  0.00    +0.000 N 
ENDROOT
BRANCH   9  13
ATOM     13  C   UNL     1       3.777   6.115  17.628  0.00  0.00    +0.000 A 
ATOM     14  C   UNL     1       5.172   6.015  17.578  0.00  0.00    +0.000 A 
ATOM     15  C   UNL     1       5.773   4.764  17.449  0.00  0.00    +0.000 A 
ATOM     16 CL   UNL     1       7.486   4.647  17.303  0.00  0.00    +0.000 Cl
ATOM     17  C   UNL     1       5.003   3.600  17.393  0.00  0.00    +0.000 A 
ATOM     18  C   UNL     1       3.613   3.686  17.465  0.00  0.00    +0.000 A 
ATOM     19  C   UNL     1       3.009   4.940  17.573  0.00  0.00    +0.000 A 
BRANCH  19  20
ATOM     20  O   UNL     1       1.644   5.033  17.603  0.00  0.00    +0.000 OA
ATOM     21  H   UNL     1       1.392   5.793  18.153  0.00  0.00    +0.000 HD
ENDBRANCH  19  20
ENDBRANCH   9  13
BRANCH   1  25
ATOM     22  C   UNL     1       2.254  14.295  18.951  0.00  0.00    +0.000 A 
ATOM     23  C   UNL     1       1.089  13.958  18.262  0.00  0.00    +0.000 A 
ATOM     24  C   UNL     1       0.400  12.785  18.559  0.00  0.00    +0.000 A 
ATOM     25  C   UNL     1       0.885  11.915  19.550  0.00  0.00    +0.000 A 
ATOM     26  C   UNL     1       2.076  12.246  20.216  0.00  0.00    +0.000 A 
ATOM     27  C   UNL     1       2.760  13.425  19.914  0.00  0.00    +0.000 A 
BRANCH  22  29
ATOM     28  C   UNL     1       4.249  15.479  18.527  0.00  0.00    +0.000 C 
ATOM     29  O   UNL     1       2.826  15.482  18.582  0.00  0.00    +0.000 OA
ENDBRANCH  22  29
ENDBRANCH   1  25
BRANCH   2  30
ATOM     30  C   UNL     1      -1.328  11.880  21.631  0.00  0.00    +0.000 C 
ATOM     31  O   UNL     1      -2.396  12.114  21.101  0.00  0.00    +0.000 OA
BRANCH  30  32
ATOM     32  O   UNL     1      -0.764  12.661  22.601  0.00  0.00    +0.000 OA
BRANCH  32  33
ATOM     33  C   UNL     1      -1.076  14.077  22.615  0.00  0.00    +0.000 C 
ATOM     34  C   UNL     1      -1.528  14.547  23.998  0.00  0.00    +0.000 C 
ATOM     35  C   UNL     1       0.203  14.816  22.224  0.00  0.00    +0.000 C 
ENDBRANCH  32  33
ENDBRANCH  30  32
ENDBRANCH   2  30
TORSDOF 7
ENDMDL
MODEL 4
REMARK VINA RESULT:      -7.3      1.541      1.862
REMARK  Name = 
REMARK  11 active torsions:
REMARK  status: ('A' for Active; 'I' for Inactive)
REMARK    1  A    between atoms: C_1  and  O_2
REMARK    2  A    between atoms: O_2  and  C_3
REMARK    3  A    between atoms: C_6  and  C_7
REMARK    4  A    between atoms: C_8  and  C_9
REMARK    5  A    between atoms: C_9  and  O_11
REMARK    6  A    between atoms: O_11  and  C_12
REMARK    7  A    between atoms: C_12  and  C_13
REMARK    8  A    between atoms: C_12  and  C_14
REMARK    9  A    between atoms: C_15  and  C_16
REMARK   10  A    between atoms: C_21  and  C_22
REMARK   11  A    between atoms: C_28  and  O_29
REMARK                            x       y       z     vdW  Elec       q    Type
REMARK                         _______ _______ _______ _____ _____    ______ ____
ROOT
ATOM      1  C   UNL     1       0.159  10.929  19.731  0.00  0.00    +0.000 C 
ATOM      2  C   UNL     1      -0.531  11.020  21.084  0.00  0.00    +0.000 C 
ATOM      3  C   UNL     1      -0.336  10.058  22.021  0.00  0.00    +0.000 C 
ATOM      4  C   UNL     1      -0.850  10.011  23.445  0.00  0.00    +0.000 C 
ATOM      5  N   UNL     1       0.424   8.933  21.771  0.00  0.00    +0.000 NA
ATOM      6  C   UNL     1       1.017   8.822  20.640  0.00  0.00    +0.000 A 
ATOM      7  S   UNL     1       1.995   7.438  20.242  0.00  0.00    +0.000 S 
ATOM      8  C   UNL     1       2.395   8.093  18.704  0.00  0.00    +0.000 A 
ATOM      9  C   UNL     1       3.189   7.566  17.764  0.00  0.00    +0.000 C 
ATOM     10  C   UNL     1       1.673   9.382  18.492  0.00  0.00    +0.000 A 
ATOM     11  O   UNL     1       1.681   9.994  17.432  0.00  0.00    +0.000 OA
ATOM     12  N   UNL     1       0.979   9.727  19.629  0.00  0.00    +0.000 N 
ENDROOT
BRANCH   9  13
ATOM     13  C   UNL     1       3.790   6.225  17.776  0.00  0.00    +0.000 A 
ATOM     14  C   UNL     1       5.179   6.058  17.820  0.00  0.00    +0.000 A 
ATOM     15  C   UNL     1       5.726   4.778  17.744  0.00  0.00    +0.000 A 
ATOM     16 CL   UNL     1       7.438   4.577  17.714  0.00  0.00    +0.000 Cl
ATOM     17  C   UNL     1       4.907   3.651  17.648  0.00  0.00    +0.000 A 
ATOM     18  C   UNL     1       3.521   3.804  17.626  0.00  0.00    +0.000 A 
ATOM     19  C   UNL     1       2.972   5.086  17.680  0.00  0.00    +0.000 A 
BRANCH  19  20
ATOM     20  O   UNL     1       1.614   5.244  17.618  0.00  0.00    +0.000 OA
ATOM     21  H   UNL     1       1.204   4.730  18.333  0.00  0.00    +0.000 HD
ENDBRANCH  19  20
ENDBRANCH   9  13
BRANCH   1  25
ATOM     22  C   UNL     1       2.542  14.473  18.969  0.00  0.00    +0.000 A 
ATOM     23  C   UNL     1       1.498  14.128  18.109  0.00  0.00    +0.000 A 
ATOM     24  C   UNL     1       0.732  12.989  18.340  0.00  0.00    +0.000 A 
ATOM     25  C   UNL     1       1.016  12.160  19.438  0.00  0.00    +0.000 A 
ATOM     26  C   UNL     1       2.089  12.497  20.280  0.00  0.00    +0.000 A 
ATOM     27  C   UNL     1       2.851  13.643  20.043  0.00  0.00    +0.000 A 
BRANCH  22  29
ATOM     28  C   UNL     1       2.386  16.679  18.152  0.00  0.00    +0.000 C 
ATOM     29  O   UNL     1       3.205  15.626  18.647  0.00  0.00    +0.000 OA
ENDBRANCH  22  29
ENDBRANCH   1  25
BRANCH   2  30
ATOM     30  C   UNL     1      -1.378  12.235  21.306  0.00  0.00    +0.000 C 
ATOM     31  O   UNL     1      -0.976  13.312  21.700  0.00  0.00    +0.000 OA
BRANCH  30  32
ATOM     32  O   UNL     1      -2.683  11.970  20.993  0.00  0.00    +0.000 OA
BRANCH  32  33
ATOM     33  C   UNL     1      -3.263  12.628  19.838  0.00  0.00    +0.000 C 
ATOM     34  C   UNL     1      -3.230  11.734  18.598  0.00  0.00    +0.000 C 
ATOM     35  C   UNL     1      -4.714  12.946  20.192  0.00  0.00    +0.000 C 
ENDBRANCH  32  33
ENDBRANCH  30  32
ENDBRANCH   2  30
TORSDOF 7
ENDMDL
MODEL 5
REMARK VINA RESULT:      -7.3      0.795      1.266
REMARK  Name = 
REMARK  11 active torsions:
REMARK  status: ('A' for Active; 'I' for Inactive)
REMARK    1  A    between atoms: C_1  and  O_2
REMARK    2  A    between atoms: O_2  and  C_3
REMARK    3  A    between atoms: C_6  and  C_7
REMARK    4  A    between atoms: C_8  and  C_9
REMARK    5  A    between atoms: C_9  and  O_11
REMARK    6  A    between atoms: O_11  and  C_12
REMARK    7  A    between atoms: C_12  and  C_13
REMARK    8  A    between atoms: C_12  and  C_14
REMARK    9  A    between atoms: C_15  and  C_16
REMARK   10  A    between atoms: C_21  and  C_22
REMARK   11  A    between atoms: C_28  and  O_29
REMARK                            x       y       z     vdW  Elec       q    Type
REMARK                         _______ _______ _______ _____ _____    ______ ____
ROOT
ATOM      1  C   UNL     1       0.249  11.231  19.690  0.00  0.00    +0.000 C 
ATOM      2  C   UNL     1      -0.491  11.314  21.017  0.00  0.00    +0.000 C 
ATOM      3  C   UNL     1      -0.411  10.298  21.913  0.00  0.00    +0.000 C 
ATOM      4  C   UNL     1      -0.989  10.228  23.312  0.00  0.00    +0.000 C 
ATOM      5  N   UNL     1       0.271   9.130  21.641  0.00  0.00    +0.000 NA
ATOM      6  C   UNL     1       0.902   9.024  20.531  0.00  0.00    +0.000 A 
ATOM      7  S   UNL     1       1.789   7.587  20.106  0.00  0.00    +0.000 S 
ATOM      8  C   UNL     1       2.305   8.277  18.619  0.00  0.00    +0.000 A 
ATOM      9  C   UNL     1       3.096   7.732  17.687  0.00  0.00    +0.000 C 
ATOM     10  C   UNL     1       1.693   9.627  18.440  0.00  0.00    +0.000 A 
ATOM     11  O   UNL     1       1.794  10.283  17.412  0.00  0.00    +0.000 OA
ATOM     12  N   UNL     1       0.978   9.974  19.564  0.00  0.00    +0.000 N 
ENDROOT
BRANCH   9  13
ATOM     13  C   UNL     1       3.593   6.349  17.658  0.00  0.00    +0.000 A 
ATOM     14  C   UNL     1       2.720   5.266  17.814  0.00  0.00    +0.000 A 
ATOM     15  C   UNL     1       3.228   3.968  17.868  0.00  0.00    +0.000 A 
ATOM     16 CL   UNL     1       2.162   2.641  18.142  0.00  0.00    +0.000 Cl
ATOM     17  C   UNL     1       4.598   3.727  17.744  0.00  0.00    +0.000 A 
ATOM     18  C   UNL     1       5.474   4.798  17.566  0.00  0.00    +0.000 A 
ATOM     19  C   UNL     1       4.970   6.099  17.533  0.00  0.00    +0.000 A 
BRANCH  19  20
ATOM     20  O   UNL     1       5.830   7.155  17.400  0.00  0.00    +0.000 OA
ATOM     21  H   UNL     1       6.702   6.819  17.133  0.00  0.00    +0.000 HD
ENDBRANCH  19  20
ENDBRANCH   9  13
BRANCH   1  25
ATOM     22  C   UNL     1       3.028  14.502  19.066  0.00  0.00    +0.000 A 
ATOM     23  C   UNL     1       3.108  13.721  20.220  0.00  0.00    +0.000 A 
ATOM     24  C   UNL     1       2.216  12.673  20.433  0.00  0.00    +0.000 A 
ATOM     25  C   UNL     1       1.209  12.403  19.492  0.00  0.00    +0.000 A 
ATOM     26  C   UNL     1       1.115  13.214  18.349  0.00  0.00    +0.000 A 
ATOM     27  C   UNL     1       2.015  14.262  18.142  0.00  0.00    +0.000 A 
BRANCH  22  29
ATOM     28  C   UNL     1       5.143  15.289  19.749  0.00  0.00    +0.000 C 
ATOM     29  O   UNL     1       3.973  15.486  18.962  0.00  0.00    +0.000 OA
ENDBRANCH  22  29
ENDBRANCH   1  25
BRANCH   2  30
ATOM     30  C   UNL     1      -1.252  12.581  21.263  0.00  0.00    +0.000 C 
ATOM     31  O   UNL     1      -0.802  13.584  21.779  0.00  0.00    +0.000 OA
BRANCH  30  32
ATOM     32  O   UNL     1      -2.538  12.459  20.814  0.00  0.00    +0.000 OA
BRANCH  32  33
ATOM     33  C   UNL     1      -3.544  13.356  21.349  0.00  0.00    +0.000 C 
ATOM     34  C   UNL     1      -4.729  13.516  20.396  0.00  0.00    +0.000 C 
ATOM     35  C   UNL     1      -4.031  12.742  22.661  0.00  0.00    +0.000 C 
ENDBRANCH  32  33
ENDBRANCH  30  32
ENDBRANCH   2  30
TORSDOF 7
ENDMDL
MODEL 6
REMARK VINA RESULT:      -7.2      1.094      1.380
REMARK  Name = 
REMARK  11 active torsions:
REMARK  status: ('A' for Active; 'I' for Inactive)
REMARK    1  A    between atoms: C_1  and  O_2
REMARK    2  A    between atoms: O_2  and  C_3
REMARK    3  A    between atoms: C_6  and  C_7
REMARK    4  A    between atoms: C_8  and  C_9
REMARK    5  A    between atoms: C_9  and  O_11
REMARK    6  A    between atoms: O_11  and  C_12
REMARK    7  A    between atoms: C_12  and  C_13
REMARK    8  A    between atoms: C_12  and  C_14
REMARK    9  A    between atoms: C_15  and  C_16
REMARK   10  A    between atoms: C_21  and  C_22
REMARK   11  A    between atoms: C_28  and  O_29
REMARK                            x       y       z     vdW  Elec       q    Type
REMARK                         _______ _______ _______ _____ _____    ______ ____
ROOT
ATOM      1  C   UNL     1       0.017  11.567  19.822  0.00  0.00    +0.000 C 
ATOM      2  C   UNL     1      -0.853  12.000  20.993  0.00  0.00    +0.000 C 
ATOM      3  C   UNL     1      -1.014  11.186  22.068  0.00  0.00    +0.000 C 
ATOM      4  C   UNL     1      -1.754  11.467  23.360  0.00  0.00    +0.000 C 
ATOM      5  N   UNL     1      -0.469   9.920  22.118  0.00  0.00    +0.000 NA
ATOM      6  C   UNL     1       0.266   9.521  21.147  0.00  0.00    +0.000 A 
ATOM      7  S   UNL     1       0.993   7.939  21.128  0.00  0.00    +0.000 S 
ATOM      8  C   UNL     1       1.766   8.251  19.625  0.00  0.00    +0.000 A 
ATOM      9  C   UNL     1       2.578   7.443  18.932  0.00  0.00    +0.000 C 
ATOM     10  C   UNL     1       1.366   9.594  19.111  0.00  0.00    +0.000 A 
ATOM     11  O   UNL     1       1.672  10.011  18.003  0.00  0.00    +0.000 OA
ATOM     12  N   UNL     1       0.580  10.239  20.039  0.00  0.00    +0.000 N 
ENDROOT
BRANCH   9  13
ATOM     13  C   UNL     1       2.884   6.037  19.234  0.00  0.00    +0.000 A 
ATOM     14  C   UNL     1       1.994   5.248  19.971  0.00  0.00    +0.000 A 
ATOM     15  C   UNL     1       2.346   3.944  20.316  0.00  0.00    +0.000 A 
ATOM     16 CL   UNL     1       1.286   3.000  21.294  0.00  0.00    +0.000 Cl
ATOM     17  C   UNL     1       3.569   3.400  19.916  0.00  0.00    +0.000 A 
ATOM     18  C   UNL     1       4.454   4.171  19.162  0.00  0.00    +0.000 A 
ATOM     19  C   UNL     1       4.112   5.484  18.834  0.00  0.00    +0.000 A 
BRANCH  19  20
ATOM     20  O   UNL     1       4.994   6.257  18.129  0.00  0.00    +0.000 OA
ATOM     21  H   UNL     1       4.502   6.957  17.669  0.00  0.00    +0.000 HD
ENDBRANCH  19  20
ENDBRANCH   9  13
BRANCH   1  25
ATOM     22  C   UNL     1       3.264  14.319  18.988  0.00  0.00    +0.000 A 
ATOM     23  C   UNL     1       3.109  13.781  20.266  0.00  0.00    +0.000 A 
ATOM     24  C   UNL     1       2.065  12.903  20.546  0.00  0.00    +0.000 A 
ATOM     25  C   UNL     1       1.143  12.562  19.543  0.00  0.00    +0.000 A 
ATOM     26  C   UNL     1       1.288  13.133  18.268  0.00  0.00    +0.000 A 
ATOM     27  C   UNL     1       2.338  14.011  17.995  0.00  0.00    +0.000 A 
BRANCH  22  29
ATOM     28  C   UNL     1       4.081  16.529  19.080  0.00  0.00    +0.000 C 
ATOM     29  O   UNL     1       4.339  15.151  18.833  0.00  0.00    +0.000 OA
ENDBRANCH  22  29
ENDBRANCH   1  25
BRANCH   2  30
ATOM     30  C   UNL     1      -1.459  13.366  20.888  0.00  0.00    +0.000 C 
ATOM     31  O   UNL     1      -1.048  14.365  21.445  0.00  0.00    +0.000 OA
BRANCH  30  32
ATOM     32  O   UNL     1      -2.549  13.341  20.061  0.00  0.00    +0.000 OA
BRANCH  32  33
ATOM     33  C   UNL     1      -3.785  12.776  20.566  0.00  0.00    +0.000 C 
ATOM     34  C   UNL     1      -4.582  13.791  21.387  0.00  0.00    +0.000 C 
ATOM     35  C   UNL     1      -4.608  12.355  19.350  0.00  0.00    +0.000 C 
ENDBRANCH  32  33
ENDBRANCH  30  32
ENDBRANCH   2  30
TORSDOF 7
ENDMDL
MODEL 7
REMARK VINA RESULT:      -7.0      1.109      1.245
REMARK  Name = 
REMARK  11 active torsions:
REMARK  status: ('A' for Active; 'I' for Inactive)
REMARK    1  A    between atoms: C_1  and  O_2
REMARK    2  A    between atoms: O_2  and  C_3
REMARK    3  A    between atoms: C_6  and  C_7
REMARK    4  A    between atoms: C_8  and  C_9
REMARK    5  A    between atoms: C_9  and  O_11
REMARK    6  A    between atoms: O_11  and  C_12
REMARK    7  A    between atoms: C_12  and  C_13
REMARK    8  A    between atoms: C_12  and  C_14
REMARK    9  A    between atoms: C_15  and  C_16
REMARK   10  A    between atoms: C_21  and  C_22
REMARK   11  A    between atoms: C_28  and  O_29
REMARK                            x       y       z     vdW  Elec       q    Type
REMARK                         _______ _______ _______ _____ _____    ______ ____
ROOT
ATOM      1  C   UNL     1       0.249  10.658  19.989  0.00  0.00    +0.000 C 
ATOM      2  C   UNL     1      -0.275  10.632  21.418  0.00  0.00    +0.000 C 
ATOM      3  C   UNL     1       0.062   9.620  22.256  0.00  0.00    +0.000 C 
ATOM      4  C   UNL     1      -0.274   9.460  23.724  0.00  0.00    +0.000 C 
ATOM      5  N   UNL     1       0.822   8.546  21.841  0.00  0.00    +0.000 NA
ATOM      6  C   UNL     1       1.277   8.532  20.643  0.00  0.00    +0.000 A 
ATOM      7  S   UNL     1       2.244   7.218  20.036  0.00  0.00    +0.000 S 
ATOM      8  C   UNL     1       2.435   7.987  18.511  0.00  0.00    +0.000 A 
ATOM      9  C   UNL     1       3.125   7.554  17.450  0.00  0.00    +0.000 C 
ATOM     10  C   UNL     1       1.651   9.257  18.476  0.00  0.00    +0.000 A 
ATOM     11  O   UNL     1       1.512   9.936  17.468  0.00  0.00    +0.000 OA
ATOM     12  N   UNL     1       1.089   9.499  19.709  0.00  0.00    +0.000 N 
ENDROOT
BRANCH   9  13
ATOM     13  C   UNL     1       3.767   6.240  17.297  0.00  0.00    +0.000 A 
ATOM     14  C   UNL     1       3.052   5.058  17.522  0.00  0.00    +0.000 A 
ATOM     15  C   UNL     1       3.706   3.829  17.453  0.00  0.00    +0.000 A 
ATOM     16 CL   UNL     1       2.846   2.379  17.811  0.00  0.00    +0.000 Cl
ATOM     17  C   UNL     1       5.065   3.755  17.138  0.00  0.00    +0.000 A 
ATOM     18  C   UNL     1       5.782   4.926  16.890  0.00  0.00    +0.000 A 
ATOM     19  C   UNL     1       5.133   6.158  16.980  0.00  0.00    +0.000 A 
BRANCH  19  20
ATOM     20  O   UNL     1       5.842   7.312  16.777  0.00  0.00    +0.000 OA
ATOM     21  H   UNL     1       6.765   7.083  16.578  0.00  0.00    +0.000 HD
ENDBRANCH  19  20
ENDBRANCH   9  13
BRANCH   1  25
ATOM     22  C   UNL     1       2.399  14.340  19.191  0.00  0.00    +0.000 A 
ATOM     23  C   UNL     1       1.365  13.932  18.348  0.00  0.00    +0.000 A 
ATOM     24  C   UNL     1       0.674  12.748  18.590  0.00  0.00    +0.000 A 
ATOM     25  C   UNL     1       1.025  11.939  19.684  0.00  0.00    +0.000 A 
ATOM     26  C   UNL     1       2.088  12.341  20.509  0.00  0.00    +0.000 A 
ATOM     27  C   UNL     1       2.775  13.531  20.260  0.00  0.00    +0.000 A 
BRANCH  22  29
ATOM     28  C   UNL     1       4.052  15.940  19.709  0.00  0.00    +0.000 C 
ATOM     29  O   UNL     1       2.985  15.531  18.860  0.00  0.00    +0.000 OA
ENDBRANCH  22  29
ENDBRANCH   1  25
BRANCH   2  30
ATOM     30  C   UNL     1      -1.128  11.796  21.822  0.00  0.00    +0.000 C 
ATOM     31  O   UNL     1      -0.971  12.472  22.820  0.00  0.00    +0.000 OA
BRANCH  30  32
ATOM     32  O   UNL     1      -2.117  12.005  20.901  0.00  0.00    +0.000 OA
BRANCH  32  33
ATOM     33  C   UNL     1      -2.906  13.217  20.998  0.00  0.00    +0.000 C 
ATOM     34  C   UNL     1      -2.184  14.417  20.385  0.00  0.00    +0.000 C 
ATOM     35  C   UNL     1      -4.204  12.964  20.233  0.00  0.00    +0.000 C 
ENDBRANCH  32  33
ENDBRANCH  30  32
ENDBRANCH   2  30
TORSDOF 7
ENDMDL
MODEL 8
REMARK VINA RESULT:      -7.0      1.395      2.134
REMARK  Name = 
REMARK  11 active torsions:
REMARK  status: ('A' for Active; 'I' for Inactive)
REMARK    1  A    between atoms: C_1  and  O_2
REMARK    2  A    between atoms: O_2  and  C_3
REMARK    3  A    between atoms: C_6  and  C_7
REMARK    4  A    between atoms: C_8  and  C_9
REMARK    5  A    between atoms: C_9  and  O_11
REMARK    6  A    between atoms: O_11  and  C_12
REMARK    7  A    between atoms: C_12  and  C_13
REMARK    8  A    between atoms: C_12  and  C_14
REMARK    9  A    between atoms: C_15  and  C_16
REMARK   10  A    between atoms: C_21  and  C_22
REMARK   11  A    between atoms: C_28  and  O_29
REMARK                            x       y       z     vdW  Elec       q    Type
REMARK                         _______ _______ _______ _____ _____    ______ ____
ROOT
ATOM      1  C   UNL     1       0.024  11.601  19.823  0.00  0.00    +0.000 C 
ATOM      2  C   UNL     1      -0.848  12.020  20.997  0.00  0.00    +0.000 C 
ATOM      3  C   UNL     1      -1.011  11.194  22.062  0.00  0.00    +0.000 C 
ATOM      4  C   UNL     1      -1.753  11.460  23.356  0.00  0.00    +0.000 C 
ATOM      5  N   UNL     1      -0.465   9.928  22.099  0.00  0.00    +0.000 NA
ATOM      6  C   UNL     1       0.272   9.540  21.124  0.00  0.00    +0.000 A 
ATOM      7  S   UNL     1       1.000   7.959  21.088  0.00  0.00    +0.000 S 
ATOM      8  C   UNL     1       1.775   8.288  19.590  0.00  0.00    +0.000 A 
ATOM      9  C   UNL     1       2.589   7.490  18.890  0.00  0.00    +0.000 C 
ATOM     10  C   UNL     1       1.375   9.638  19.091  0.00  0.00    +0.000 A 
ATOM     11  O   UNL     1       1.683  10.067  17.988  0.00  0.00    +0.000 OA
ATOM     12  N   UNL     1       0.587  10.271  20.025  0.00  0.00    +0.000 N 
ENDROOT
BRANCH   9  13
ATOM     13  C   UNL     1       2.895   6.081  19.176  0.00  0.00    +0.000 A 
ATOM     14  C   UNL     1       2.010   5.286  19.914  0.00  0.00    +0.000 A 
ATOM     15  C   UNL     1       2.363   3.978  20.243  0.00  0.00    +0.000 A 
ATOM     16 CL   UNL     1       1.311   3.027  21.222  0.00  0.00    +0.000 Cl
ATOM     17  C   UNL     1       3.581   3.436  19.827  0.00  0.00    +0.000 A 
ATOM     18  C   UNL     1       4.461   4.212  19.072  0.00  0.00    +0.000 A 
ATOM     19  C   UNL     1       4.118   5.529  18.760  0.00  0.00    +0.000 A 
BRANCH  19  20
ATOM     20  O   UNL     1       4.996   6.307  18.054  0.00  0.00    +0.000 OA
ATOM     21  H   UNL     1       4.671   6.401  17.143  0.00  0.00    +0.000 HD
ENDBRANCH  19  20
ENDBRANCH   9  13
BRANCH   1  25
ATOM     22  C   UNL     1       3.269  14.366  19.020  0.00  0.00    +0.000 A 
ATOM     23  C   UNL     1       3.157  13.756  20.270  0.00  0.00    +0.000 A 
ATOM     24  C   UNL     1       2.115  12.873  20.541  0.00  0.00    +0.000 A 
ATOM     25  C   UNL     1       1.150  12.600  19.557  0.00  0.00    +0.000 A 
ATOM     26  C   UNL     1       1.251  13.243  18.313  0.00  0.00    +0.000 A 
ATOM     27  C   UNL     1       2.300  14.126  18.049  0.00  0.00    +0.000 A 
BRANCH  22  29
ATOM     28  C   UNL     1       5.275  14.808  17.863  0.00  0.00    +0.000 C 
ATOM     29  O   UNL     1       4.346  15.195  18.871  0.00  0.00    +0.000 OA
ENDBRANCH  22  29
ENDBRANCH   1  25
BRANCH   2  30
ATOM     30  C   UNL     1      -1.455  13.387  20.906  0.00  0.00    +0.000 C 
ATOM     31  O   UNL     1      -2.328  13.720  20.130  0.00  0.00    +0.000 OA
BRANCH  30  32
ATOM     32  O   UNL     1      -0.893  14.220  21.833  0.00  0.00    +0.000 OA
BRANCH  32  33
ATOM     33  C   UNL     1      -0.414  15.517  21.396  0.00  0.00    +0.000 C 
ATOM     34  C   UNL     1      -1.465  16.610  21.596  0.00  0.00    +0.000 C 
ATOM     35  C   UNL     1       0.818  15.842  22.238  0.00  0.00    +0.000 C 
ENDBRANCH  32  33
ENDBRANCH  30  32
ENDBRANCH   2  30
TORSDOF 7
ENDMDL
