MODEL 1
REMARK VINA RESULT:      -7.4      0.000      0.000
REMARK  Name = 
REMARK  2 active torsions:
REMARK  status: ('A' for Active; 'I' for Inactive)
REMARK    1  A    between atoms: C_11  and  O_12
REMARK    2  A    between atoms: C_13  and  N_14
REMARK                            x       y       z     vdW  Elec       q    Type
REMARK                         _______ _______ _______ _____ _____    ______ ____
ROOT
ATOM      1  O   UNL     1       7.998   4.369  18.342  0.00  0.00    +0.000 OA
ATOM      2  C   UNL     1       6.806   4.634  18.245  0.00  0.00    +0.000 A 
ATOM      3  N   UNL     1       5.874   3.971  19.001  0.00  0.00    +0.000 N 
ATOM      4  C   UNL     1       4.499   4.182  18.924  0.00  0.00    +0.000 A 
ATOM      5  N   UNL     1       3.749   3.385  19.708  0.00  0.00    +0.000 NA
ATOM      6  C   UNL     1       2.416   3.544  19.621  0.00  0.00    +0.000 A 
ATOM      7 CL   UNL     1       1.499   2.492  20.614  0.00  0.00    +0.000 Cl
ATOM      8  C   UNL     1       1.797   4.463  18.796  0.00  0.00    +0.000 A 
ATOM      9  C   UNL     1       2.600   5.288  18.003  0.00  0.00    +0.000 A 
ATOM     10  C   UNL     1       3.993   5.160  18.048  0.00  0.00    +0.000 A 
ATOM     11  C   UNL     1       4.954   5.947  17.239  0.00  0.00    +0.000 A 
ATOM     12  C   UNL     1       6.263   5.662  17.346  0.00  0.00    +0.000 A 
ATOM     13  H   UNL     1       6.193   3.251  19.636  0.00  0.00    +0.000 HD
ENDROOT
BRANCH  12  14
ATOM     14  N   UNL     1       7.189   6.366  16.513  0.00  0.00    +0.000 N 
ATOM     15  O   UNL     1       7.620   7.446  16.938  0.00  0.00    +0.000 OA
ATOM     16  O   UNL     1       7.483   5.840  15.430  0.00  0.00    +0.000 OA
ENDBRANCH  12  14
BRANCH  11  17
ATOM     17  O   UNL     1       4.478   6.931  16.393  0.00  0.00    +0.000 OA
ATOM     18  H   UNL     1       3.822   7.497  16.825  0.00  0.00    +0.000 HD
ENDBRANCH  11  17
TORSDOF 2
ENDMDL
MODEL 2
REMARK VINA RESULT:      -7.1      1.335      1.505
REMARK  Name = 
REMARK  2 active torsions:
REMARK  status: ('A' for Active; 'I' for Inactive)
REMARK    1  A    between atoms: C_11  and  O_12
REMARK    2  A    between atoms: C_13  and  N_14
REMARK                            x       y       z     vdW  Elec       q    Type
REMARK                         _______ _______ _______ _____ _____    ______ ____
ROOT
ATOM      1  O   UNL     1       7.302   5.596  19.462  0.00  0.00    +0.000 OA
ATOM      2  C   UNL     1       6.283   5.198  18.911  0.00  0.00    +0.000 A 
ATOM      3  N   UNL     1       5.173   4.861  19.641  0.00  0.00    +0.000 N 
ATOM      4  C   UNL     1       3.990   4.364  19.098  0.00  0.00    +0.000 A 
ATOM      5  N   UNL     1       3.039   4.036  19.992  0.00  0.00    +0.000 NA
ATOM      6  C   UNL     1       1.903   3.517  19.491  0.00  0.00    +0.000 A 
ATOM      7 CL   UNL     1       0.730   3.087  20.664  0.00  0.00    +0.000 Cl
ATOM      8  C   UNL     1       1.669   3.318  18.145  0.00  0.00    +0.000 A 
ATOM      9  C   UNL     1       2.668   3.682  17.237  0.00  0.00    +0.000 A 
ATOM     10  C   UNL     1       3.873   4.219  17.703  0.00  0.00    +0.000 A 
ATOM     11  C   UNL     1       5.022   4.614  16.853  0.00  0.00    +0.000 A 
ATOM     12  C   UNL     1       6.139   5.054  17.455  0.00  0.00    +0.000 A 
ATOM     13  H   UNL     1       5.218   4.940  20.649  0.00  0.00    +0.000 HD
ENDROOT
BRANCH  12  14
ATOM     14  N   UNL     1       7.277   5.367  16.646  0.00  0.00    +0.000 N 
ATOM     15  O   UNL     1       7.918   4.414  16.183  0.00  0.00    +0.000 OA
ATOM     16  O   UNL     1       7.534   6.567  16.476  0.00  0.00    +0.000 OA
ENDBRANCH  12  14
BRANCH  11  17
ATOM     17  O   UNL     1       4.916   4.504  15.479  0.00  0.00    +0.000 OA
ATOM     18  H   UNL     1       5.021   3.589  15.178  0.00  0.00    +0.000 HD
ENDBRANCH  11  17
TORSDOF 2
ENDMDL
MODEL 3
REMARK VINA RESULT:      -7.0      0.786      1.097
REMARK  Name = 
REMARK  2 active torsions:
REMARK  status: ('A' for Active; 'I' for Inactive)
REMARK    1  A    between atoms: C_11  and  O_12
REMARK    2  A    between atoms: C_13  and  N_14
REMARK                            x       y       z     vdW  Elec       q    Type
REMARK                         _______ _______ _______ _____ _____    ______ ____
ROOT
ATOM      1  O   UNL     1       7.582   4.288  18.009  0.00  0.00    +0.000 OA
ATOM      2  C   UNL     1       6.424   4.619  18.230  0.00  0.00    +0.000 A 
ATOM      3  N   UNL     1       5.646   3.917  19.113  0.00  0.00    +0.000 N 
ATOM      4  C   UNL     1       4.311   4.201  19.392  0.00  0.00    +0.000 A 
ATOM      5  N   UNL     1       3.707   3.353  20.245  0.00  0.00    +0.000 NA
ATOM      6  C   UNL     1       2.406   3.586  20.497  0.00  0.00    +0.000 A 
ATOM      7 CL   UNL     1       1.669   2.468  21.566  0.00  0.00    +0.000 Cl
ATOM      8  C   UNL     1       1.683   4.626  19.945  0.00  0.00    +0.000 A 
ATOM      9  C   UNL     1       2.339   5.500  19.074  0.00  0.00    +0.000 A 
ATOM     10  C   UNL     1       3.691   5.301  18.770  0.00  0.00    +0.000 A 
ATOM     11  C   UNL     1       4.493   6.131  17.840  0.00  0.00    +0.000 A 
ATOM     12  C   UNL     1       5.765   5.772  17.600  0.00  0.00    +0.000 A 
ATOM     13  H   UNL     1       6.050   3.111  19.575  0.00  0.00    +0.000 HD
ENDROOT
BRANCH  12  14
ATOM     14  N   UNL     1       6.522   6.525  16.647  0.00  0.00    +0.000 N 
ATOM     15  O   UNL     1       6.481   6.146  15.470  0.00  0.00    +0.000 OA
ATOM     16  O   UNL     1       7.162   7.495  17.077  0.00  0.00    +0.000 OA
ENDBRANCH  12  14
BRANCH  11  17
ATOM     17  O   UNL     1       3.908   7.231  17.241  0.00  0.00    +0.000 OA
ATOM     18  H   UNL     1       3.839   7.983  17.847  0.00  0.00    +0.000 HD
ENDBRANCH  11  17
TORSDOF 2
ENDMDL
MODEL 4
REMARK VINA RESULT:      -6.8      3.713      5.127
REMARK  Name = 
REMARK  2 active torsions:
REMARK  status: ('A' for Active; 'I' for Inactive)
REMARK    1  A    between atoms: C_11  and  O_12
REMARK    2  A    between atoms: C_13  and  N_14
REMARK                            x       y       z     vdW  Elec       q    Type
REMARK                         _______ _______ _______ _____ _____    ______ ____
ROOT
ATOM      1  O   UNL     1       4.778   1.810  20.443  0.00  0.00    +0.000 OA
ATOM      2  C   UNL     1       4.537   2.787  19.745  0.00  0.00    +0.000 A 
ATOM      3  N   UNL     1       5.544   3.612  19.315  0.00  0.00    +0.000 N 
ATOM      4  C   UNL     1       5.354   4.763  18.554  0.00  0.00    +0.000 A 
ATOM      5  N   UNL     1       6.468   5.468  18.287  0.00  0.00    +0.000 NA
ATOM      6  C   UNL     1       6.302   6.605  17.587  0.00  0.00    +0.000 A 
ATOM      7 CL   UNL     1       7.742   7.486  17.292  0.00  0.00    +0.000 Cl
ATOM      8  C   UNL     1       5.081   7.066  17.135  0.00  0.00    +0.000 A 
ATOM      9  C   UNL     1       3.942   6.306  17.414  0.00  0.00    +0.000 A 
ATOM     10  C   UNL     1       4.055   5.119  18.146  0.00  0.00    +0.000 A 
ATOM     11  C   UNL     1       2.926   4.240  18.536  0.00  0.00    +0.000 A 
ATOM     12  C   UNL     1       3.189   3.165  19.298  0.00  0.00    +0.000 A 
ATOM     13  H   UNL     1       6.494   3.399  19.596  0.00  0.00    +0.000 HD
ENDROOT
BRANCH  12  14
ATOM     14  N   UNL     1       2.096   2.354  19.740  0.00  0.00    +0.000 N 
ATOM     15  O   UNL     1       1.551   1.633  18.895  0.00  0.00    +0.000 OA
ATOM     16  O   UNL     1       1.778   2.441  20.935  0.00  0.00    +0.000 OA
ENDBRANCH  12  14
BRANCH  11  17
ATOM     17  O   UNL     1       1.647   4.559  18.121  0.00  0.00    +0.000 OA
ATOM     18  H   UNL     1       1.024   4.603  18.862  0.00  0.00    +0.000 HD
ENDBRANCH  11  17
TORSDOF 2
ENDMDL
MODEL 5
REMARK VINA RESULT:      -6.8      3.772      5.202
REMARK  Name = 
REMARK  2 active torsions:
REMARK  status: ('A' for Active; 'I' for Inactive)
REMARK    1  A    between atoms: C_11  and  O_12
REMARK    2  A    between atoms: C_13  and  N_14
REMARK                            x       y       z     vdW  Elec       q    Type
REMARK                         _______ _______ _______ _____ _____    ______ ____
ROOT
ATOM      1  O   UNL     1       6.756   5.256  19.798  0.00  0.00    +0.000 OA
ATOM      2  C   UNL     1       6.378   4.913  18.684  0.00  0.00    +0.000 A 
ATOM      3  N   UNL     1       7.129   5.186  17.570  0.00  0.00    +0.000 N 
ATOM      4  C   UNL     1       6.755   4.867  16.267  0.00  0.00    +0.000 A 
ATOM      5  N   UNL     1       7.605   5.276  15.307  0.00  0.00    +0.000 NA
ATOM      6  C   UNL     1       7.243   5.014  14.038  0.00  0.00    +0.000 A 
ATOM      7 CL   UNL     1       8.339   5.576  12.847  0.00  0.00    +0.000 Cl
ATOM      8  C   UNL     1       6.081   4.358  13.682  0.00  0.00    +0.000 A 
ATOM      9  C   UNL     1       5.224   3.930  14.700  0.00  0.00    +0.000 A 
ATOM     10  C   UNL     1       5.546   4.184  16.038  0.00  0.00    +0.000 A 
ATOM     11  C   UNL     1       4.711   3.815  17.206  0.00  0.00    +0.000 A 
ATOM     12  C   UNL     1       5.126   4.186  18.429  0.00  0.00    +0.000 A 
ATOM     13  H   UNL     1       8.001   5.686  17.688  0.00  0.00    +0.000 HD
ENDROOT
BRANCH  12  14
ATOM     14  N   UNL     1       4.289   3.899  19.554  0.00  0.00    +0.000 N 
ATOM     15  O   UNL     1       4.422   2.789  20.086  0.00  0.00    +0.000 OA
ATOM     16  O   UNL     1       3.494   4.783  19.904  0.00  0.00    +0.000 OA
ENDBRANCH  12  14
BRANCH  11  17
ATOM     17  O   UNL     1       3.534   3.120  17.003  0.00  0.00    +0.000 OA
ATOM     18  H   UNL     1       3.690   2.176  16.846  0.00  0.00    +0.000 HD
ENDBRANCH  11  17
TORSDOF 2
ENDMDL
MODEL 6
REMARK VINA RESULT:      -6.6      1.183      2.470
REMARK  Name = 
REMARK  2 active torsions:
REMARK  status: ('A' for Active; 'I' for Inactive)
REMARK    1  A    between atoms: C_11  and  O_12
REMARK    2  A    between atoms: C_13  and  N_14
REMARK                            x       y       z     vdW  Elec       q    Type
REMARK                         _______ _______ _______ _____ _____    ______ ____
ROOT
ATOM      1  O   UNL     1       4.540   7.326  16.120  0.00  0.00    +0.000 OA
ATOM      2  C   UNL     1       4.640   6.365  16.872  0.00  0.00    +0.000 A 
ATOM      3  N   UNL     1       3.537   5.833  17.487  0.00  0.00    +0.000 N 
ATOM      4  C   UNL     1       3.569   4.768  18.385  0.00  0.00    +0.000 A 
ATOM      5  N   UNL     1       2.382   4.436  18.926  0.00  0.00    +0.000 NA
ATOM      6  C   UNL     1       2.395   3.436  19.826  0.00  0.00    +0.000 A 
ATOM      7 CL   UNL     1       0.869   3.063  20.510  0.00  0.00    +0.000 Cl
ATOM      8  C   UNL     1       3.532   2.749  20.205  0.00  0.00    +0.000 A 
ATOM      9  C   UNL     1       4.748   3.105  19.616  0.00  0.00    +0.000 A 
ATOM     10  C   UNL     1       4.795   4.143  18.679  0.00  0.00    +0.000 A 
ATOM     11  C   UNL     1       6.019   4.640  18.008  0.00  0.00    +0.000 A 
ATOM     12  C   UNL     1       5.911   5.692  17.179  0.00  0.00    +0.000 A 
ATOM     13  H   UNL     1       2.636   6.259  17.312  0.00  0.00    +0.000 HD
ENDROOT
BRANCH  12  14
ATOM     14  N   UNL     1       7.099   6.223  16.585  0.00  0.00    +0.000 N 
ATOM     15  O   UNL     1       7.564   7.256  17.084  0.00  0.00    +0.000 OA
ATOM     16  O   UNL     1       7.567   5.609  15.615  0.00  0.00    +0.000 OA
ENDBRANCH  12  14
BRANCH  11  17
ATOM     17  O   UNL     1       7.228   4.021  18.264  0.00  0.00    +0.000 OA
ATOM     18  H   UNL     1       7.343   3.213  17.741  0.00  0.00    +0.000 HD
ENDBRANCH  11  17
TORSDOF 2
ENDMDL
MODEL 7
REMARK VINA RESULT:      -6.5      3.489      4.797
REMARK  Name = 
REMARK  2 active torsions:
REMARK  status: ('A' for Active; 'I' for Inactive)
REMARK    1  A    between atoms: C_11  and  O_12
REMARK    2  A    between atoms: C_13  and  N_14
REMARK                            x       y       z     vdW  Elec       q    Type
REMARK                         _______ _______ _______ _____ _____    ______ ____
ROOT
ATOM      1  O   UNL     1       2.319   2.974  21.418  0.00  0.00    +0.000 OA
ATOM      2  C   UNL     1       2.771   3.709  20.548  0.00  0.00    +0.000 A 
ATOM      3  N   UNL     1       2.313   4.993  20.402  0.00  0.00    +0.000 N 
ATOM      4  C   UNL     1       2.743   5.879  19.418  0.00  0.00    +0.000 A 
ATOM      5  N   UNL     1       2.124   7.074  19.407  0.00  0.00    +0.000 NA
ATOM      6  C   UNL     1       2.496   7.931  18.439  0.00  0.00    +0.000 A 
ATOM      7 CL   UNL     1       1.665   9.429  18.445  0.00  0.00    +0.000 Cl
ATOM      8  C   UNL     1       3.460   7.656  17.488  0.00  0.00    +0.000 A 
ATOM      9  C   UNL     1       4.098   6.413  17.532  0.00  0.00    +0.000 A 
ATOM     10  C   UNL     1       3.744   5.479  18.512  0.00  0.00    +0.000 A 
ATOM     11  C   UNL     1       4.317   4.119  18.649  0.00  0.00    +0.000 A 
ATOM     12  C   UNL     1       3.826   3.313  19.605  0.00  0.00    +0.000 A 
ATOM     13  H   UNL     1       1.584   5.318  21.026  0.00  0.00    +0.000 HD
ENDROOT
BRANCH  12  14
ATOM     14  N   UNL     1       4.321   1.974  19.694  0.00  0.00    +0.000 N 
ATOM     15  O   UNL     1       5.141   1.735  20.591  0.00  0.00    +0.000 OA
ATOM     16  O   UNL     1       3.894   1.159  18.864  0.00  0.00    +0.000 OA
ENDBRANCH  12  14
BRANCH  11  17
ATOM     17  O   UNL     1       5.320   3.719  17.786  0.00  0.00    +0.000 OA
ATOM     18  H   UNL     1       6.058   4.346  17.769  0.00  0.00    +0.000 HD
ENDBRANCH  11  17
TORSDOF 2
ENDMDL
MODEL 8
REMARK VINA RESULT:      -6.5      1.870      2.462
REMARK  Name = 
REMARK  2 active torsions:
REMARK  status: ('A' for Active; 'I' for Inactive)
REMARK    1  A    between atoms: C_11  and  O_12
REMARK    2  A    between atoms: C_13  and  N_14
REMARK                            x       y       z     vdW  Elec       q    Type
REMARK                         _______ _______ _______ _____ _____    ______ ____
ROOT
ATOM      1  O   UNL     1       5.642   7.208  17.105  0.00  0.00    +0.000 OA
ATOM      2  C   UNL     1       5.148   6.090  17.189  0.00  0.00    +0.000 A 
ATOM      3  N   UNL     1       4.039   5.866  17.963  0.00  0.00    +0.000 N 
ATOM      4  C   UNL     1       3.439   4.622  18.144  0.00  0.00    +0.000 A 
ATOM      5  N   UNL     1       2.394   4.604  18.992  0.00  0.00    +0.000 NA
ATOM      6  C   UNL     1       1.824   3.406  19.213  0.00  0.00    +0.000 A 
ATOM      7 CL   UNL     1       0.516   3.423  20.320  0.00  0.00    +0.000 Cl
ATOM      8  C   UNL     1       2.241   2.228  18.623  0.00  0.00    +0.000 A 
ATOM      9  C   UNL     1       3.319   2.278  17.735  0.00  0.00    +0.000 A 
ATOM     10  C   UNL     1       3.955   3.497  17.475  0.00  0.00    +0.000 A 
ATOM     11  C   UNL     1       5.125   3.682  16.582  0.00  0.00    +0.000 A 
ATOM     12  C   UNL     1       5.666   4.908  16.486  0.00  0.00    +0.000 A 
ATOM     13  H   UNL     1       3.641   6.646  18.471  0.00  0.00    +0.000 HD
ENDROOT
BRANCH  12  14
ATOM     14  N   UNL     1       6.839   5.078  15.685  0.00  0.00    +0.000 N 
ATOM     15  O   UNL     1       6.708   5.685  14.614  0.00  0.00    +0.000 OA
ATOM     16  O   UNL     1       7.895   4.601  16.126  0.00  0.00    +0.000 OA
ENDBRANCH  12  14
BRANCH  11  17
ATOM     17  O   UNL     1       5.629   2.594  15.896  0.00  0.00    +0.000 OA
ATOM     18  H   UNL     1       5.005   2.258  15.236  0.00  0.00    +0.000 HD
ENDBRANCH  11  17
TORSDOF 2
ENDMDL
MODEL 9
REMARK VINA RESULT:      -6.5      1.699      2.827
REMARK  Name = 
REMARK  2 active torsions:
REMARK  status: ('A' for Active; 'I' for Inactive)
REMARK    1  A    between atoms: C_11  and  O_12
REMARK    2  A    between atoms: C_13  and  N_14
REMARK                            x       y       z     vdW  Elec       q    Type
REMARK                         _______ _______ _______ _____ _____    ______ ____
ROOT
ATOM      1  O   UNL     1       3.314   7.898  17.476  0.00  0.00    +0.000 OA
ATOM      2  C   UNL     1       3.608   6.770  17.852  0.00  0.00    +0.000 A 
ATOM      3  N   UNL     1       2.821   6.099  18.751  0.00  0.00    +0.000 N 
ATOM      4  C   UNL     1       3.104   4.833  19.259  0.00  0.00    +0.000 A 
ATOM      5  N   UNL     1       2.234   4.374  20.178  0.00  0.00    +0.000 NA
ATOM      6  C   UNL     1       2.510   3.170  20.712  0.00  0.00    +0.000 A 
ATOM      7 CL   UNL     1       1.394   2.635  21.897  0.00  0.00    +0.000 Cl
ATOM      8  C   UNL     1       3.604   2.401  20.367  0.00  0.00    +0.000 A 
ATOM      9  C   UNL     1       4.483   2.895  19.399  0.00  0.00    +0.000 A 
ATOM     10  C   UNL     1       4.250   4.146  18.816  0.00  0.00    +0.000 A 
ATOM     11  C   UNL     1       5.117   4.798  17.806  0.00  0.00    +0.000 A 
ATOM     12  C   UNL     1       4.793   6.033  17.389  0.00  0.00    +0.000 A 
ATOM     13  H   UNL     1       1.992   6.561  19.104  0.00  0.00    +0.000 HD
ENDROOT
BRANCH  12  14
ATOM     14  N   UNL     1       5.666   6.698  16.471  0.00  0.00    +0.000 N 
ATOM     15  O   UNL     1       5.415   6.574  15.265  0.00  0.00    +0.000 OA
ATOM     16  O   UNL     1       6.608   7.342  16.955  0.00  0.00    +0.000 OA
ENDBRANCH  12  14
BRANCH  11  17
ATOM     17  O   UNL     1       6.232   4.127  17.339  0.00  0.00    +0.000 OA
ATOM     18  H   UNL     1       6.182   3.957  16.387  0.00  0.00    +0.000 HD
ENDBRANCH  11  17
TORSDOF 2
ENDMDL
