MODEL 1
REMARK VINA RESULT:      -8.0      0.000      0.000
REMARK  Name = 
REMARK  6 active torsions:
REMARK  status: ('A' for Active; 'I' for Inactive)
REMARK    1  A    between atoms: C_1  and  O_2
REMARK    2  A    between atoms: O_2  and  C_3
REMARK    3  A    between atoms: C_6  and  C_7
REMARK    4  A    between atoms: C_7  and  N_8
REMARK    5  A    between atoms: C_10  and  C_11
REMARK    6  A    between atoms: N_12  and  C_13
REMARK                            x       y       z     vdW  Elec       q    Type
REMARK                         _______ _______ _______ _____ _____    ______ ____
ROOT
ATOM      1  N   UNL     1       5.602   5.882  17.476  0.00  0.00    +0.000 N 
ATOM      2  N   UNL     1       4.665   6.874  17.281  0.00  0.00    +0.000 NA
ATOM      3  C   UNL     1       3.646   6.484  17.998  0.00  0.00    +0.000 A 
ATOM      4  C   UNL     1       2.418   7.321  18.176  0.00  0.00    +0.000 C 
ATOM      5  N   UNL     1       3.816   5.304  18.632  0.00  0.00    +0.000 N 
ATOM      6  C   UNL     1       5.097   4.888  18.320  0.00  0.00    +0.000 A 
ATOM      7  O   UNL     1       5.658   3.849  18.637  0.00  0.00    +0.000 OA
ENDROOT
BRANCH   5   8
ATOM      8  C   UNL     1       2.891   4.524  19.337  0.00  0.00    +0.000 A 
ATOM      9  C   UNL     1       2.809   4.591  20.737  0.00  0.00    +0.000 A 
ATOM     10  C   UNL     1       1.827   3.863  21.420  0.00  0.00    +0.000 A 
ATOM     11  C   UNL     1       0.956   3.038  20.712  0.00  0.00    +0.000 A 
ATOM     12  C   UNL     1       1.055   2.965  19.328  0.00  0.00    +0.000 A 
ATOM     13  F   UNL     1       0.231   2.155  18.651  0.00  0.00    +0.000 F 
ATOM     14  C   UNL     1       1.994   3.718  18.634  0.00  0.00    +0.000 A 
ENDBRANCH   5   8
BRANCH   1  15
ATOM     15  C   UNL     1       6.853   5.813  16.763  0.00  0.00    +0.000 C 
BRANCH  15  19
ATOM     16  C   UNL     1       6.481   3.913  12.898  0.00  0.00    +0.000 A 
ATOM     17  C   UNL     1       5.595   3.595  13.927  0.00  0.00    +0.000 A 
ATOM     18  C   UNL     1       5.715   4.200  15.181  0.00  0.00    +0.000 A 
ATOM     19  C   UNL     1       6.736   5.130  15.426  0.00  0.00    +0.000 A 
ATOM     20  C   UNL     1       7.647   5.413  14.401  0.00  0.00    +0.000 A 
ATOM     21  C   UNL     1       7.515   4.813  13.140  0.00  0.00    +0.000 A 
BRANCH  16  23
ATOM     22  C   UNL     1       4.924   2.826  11.484  0.00  0.00    +0.000 C 
ATOM     23  O   UNL     1       6.262   3.260  11.714  0.00  0.00    +0.000 OA
ENDBRANCH  16  23
ENDBRANCH  15  19
ENDBRANCH   1  15
TORSDOF 4
ENDMDL
MODEL 2
REMARK VINA RESULT:      -7.9      0.198      1.024
REMARK  Name = 
REMARK  6 active torsions:
REMARK  status: ('A' for Active; 'I' for Inactive)
REMARK    1  A    between atoms: C_1  and  O_2
REMARK    2  A    between atoms: O_2  and  C_3
REMARK    3  A    between atoms: C_6  and  C_7
REMARK    4  A    between atoms: C_7  and  N_8
REMARK    5  A    between atoms: C_10  and  C_11
REMARK    6  A    between atoms: N_12  and  C_13
REMARK                            x       y       z     vdW  Elec       q    Type
REMARK                         _______ _______ _______ _____ _____    ______ ____
ROOT
ATOM      1  N   UNL     1       5.571   5.913  17.429  0.00  0.00    +0.000 N 
ATOM      2  N   UNL     1       4.630   6.903  17.242  0.00  0.00    +0.000 NA
ATOM      3  C   UNL     1       3.614   6.507  17.961  0.00  0.00    +0.000 A 
ATOM      4  C   UNL     1       2.384   7.339  18.147  0.00  0.00    +0.000 C 
ATOM      5  N   UNL     1       3.791   5.325  18.590  0.00  0.00    +0.000 N 
ATOM      6  C   UNL     1       5.073   4.915  18.272  0.00  0.00    +0.000 A 
ATOM      7  O   UNL     1       5.639   3.877  18.582  0.00  0.00    +0.000 OA
ENDROOT
BRANCH   5   8
ATOM      8  C   UNL     1       2.872   4.539  19.296  0.00  0.00    +0.000 A 
ATOM      9  C   UNL     1       2.773   4.622  20.694  0.00  0.00    +0.000 A 
ATOM     10  C   UNL     1       1.797   3.888  21.376  0.00  0.00    +0.000 A 
ATOM     11  C   UNL     1       0.947   3.039  20.670  0.00  0.00    +0.000 A 
ATOM     12  C   UNL     1       1.062   2.950  19.288  0.00  0.00    +0.000 A 
ATOM     13  F   UNL     1       0.259   2.118  18.613  0.00  0.00    +0.000 F 
ATOM     14  C   UNL     1       1.996   3.709  18.594  0.00  0.00    +0.000 A 
ENDBRANCH   5   8
BRANCH   1  15
ATOM     15  C   UNL     1       6.820   5.852  16.712  0.00  0.00    +0.000 C 
BRANCH  15  19
ATOM     16  C   UNL     1       6.519   3.816  12.910  0.00  0.00    +0.000 A 
ATOM     17  C   UNL     1       7.508   4.777  13.117  0.00  0.00    +0.000 A 
ATOM     18  C   UNL     1       7.605   5.445  14.341  0.00  0.00    +0.000 A 
ATOM     19  C   UNL     1       6.702   5.163  15.377  0.00  0.00    +0.000 A 
ATOM     20  C   UNL     1       5.686   4.227  15.147  0.00  0.00    +0.000 A 
ATOM     21  C   UNL     1       5.600   3.551  13.922  0.00  0.00    +0.000 A 
BRANCH  16  23
ATOM     22  C   UNL     1       5.542   2.218  11.462  0.00  0.00    +0.000 C 
ATOM     23  O   UNL     1       6.526   3.226  11.673  0.00  0.00    +0.000 OA
ENDBRANCH  16  23
ENDBRANCH  15  19
ENDBRANCH   1  15
TORSDOF 4
ENDMDL
MODEL 3
REMARK VINA RESULT:      -7.5      0.985      1.396
REMARK  Name = 
REMARK  6 active torsions:
REMARK  status: ('A' for Active; 'I' for Inactive)
REMARK    1  A    between atoms: C_1  and  O_2
REMARK    2  A    between atoms: O_2  and  C_3
REMARK    3  A    between atoms: C_6  and  C_7
REMARK    4  A    between atoms: C_7  and  N_8
REMARK    5  A    between atoms: C_10  and  C_11
REMARK    6  A    between atoms: N_12  and  C_13
REMARK                            x       y       z     vdW  Elec       q    Type
REMARK                         _______ _______ _______ _____ _____    ______ ____
ROOT
ATOM      1  N   UNL     1       5.503   5.971  17.282  0.00  0.00    +0.000 N 
ATOM      2  N   UNL     1       4.611   7.015  17.158  0.00  0.00    +0.000 NA
ATOM      3  C   UNL     1       3.590   6.639  17.880  0.00  0.00    +0.000 A 
ATOM      4  C   UNL     1       2.409   7.524  18.128  0.00  0.00    +0.000 C 
ATOM      5  N   UNL     1       3.718   5.423  18.454  0.00  0.00    +0.000 N 
ATOM      6  C   UNL     1       4.971   4.963  18.091  0.00  0.00    +0.000 A 
ATOM      7  O   UNL     1       5.488   3.885  18.345  0.00  0.00    +0.000 OA
ENDROOT
BRANCH   5   8
ATOM      8  C   UNL     1       2.773   4.655  19.145  0.00  0.00    +0.000 A 
ATOM      9  C   UNL     1       1.711   4.035  18.468  0.00  0.00    +0.000 A 
ATOM     10  C   UNL     1       0.820   3.208  19.162  0.00  0.00    +0.000 A 
ATOM     11  C   UNL     1       0.963   3.034  20.537  0.00  0.00    +0.000 A 
ATOM     12  C   UNL     1       2.007   3.665  21.203  0.00  0.00    +0.000 A 
ATOM     13  F   UNL     1       2.130   3.513  22.527  0.00  0.00    +0.000 F 
ATOM     14  C   UNL     1       2.926   4.451  20.518  0.00  0.00    +0.000 A 
ENDBRANCH   5   8
BRANCH   1  15
ATOM     15  C   UNL     1       6.733   5.878  16.536  0.00  0.00    +0.000 C 
BRANCH  15  19
ATOM     16  C   UNL     1       6.273   3.796  12.776  0.00  0.00    +0.000 A 
ATOM     17  C   UNL     1       5.320   3.648  13.783  0.00  0.00    +0.000 A 
ATOM     18  C   UNL     1       5.467   4.312  15.004  0.00  0.00    +0.000 A 
ATOM     19  C   UNL     1       6.582   5.131  15.237  0.00  0.00    +0.000 A 
ATOM     20  C   UNL     1       7.556   5.241  14.236  0.00  0.00    +0.000 A 
ATOM     21  C   UNL     1       7.398   4.582  13.008  0.00  0.00    +0.000 A 
BRANCH  16  23
ATOM     22  C   UNL     1       4.644   2.872  11.327  0.00  0.00    +0.000 C 
ATOM     23  O   UNL     1       6.019   3.100  11.623  0.00  0.00    +0.000 OA
ENDBRANCH  16  23
ENDBRANCH  15  19
ENDBRANCH   1  15
TORSDOF 4
ENDMDL
MODEL 4
REMARK VINA RESULT:      -7.5      0.999      1.729
REMARK  Name = 
REMARK  6 active torsions:
REMARK  status: ('A' for Active; 'I' for Inactive)
REMARK    1  A    between atoms: C_1  and  O_2
REMARK    2  A    between atoms: O_2  and  C_3
REMARK    3  A    between atoms: C_6  and  C_7
REMARK    4  A    between atoms: C_7  and  N_8
REMARK    5  A    between atoms: C_10  and  C_11
REMARK    6  A    between atoms: N_12  and  C_13
REMARK                            x       y       z     vdW  Elec       q    Type
REMARK                         _______ _______ _______ _____ _____    ______ ____
ROOT
ATOM      1  N   UNL     1       5.504   5.973  17.208  0.00  0.00    +0.000 N 
ATOM      2  N   UNL     1       4.611   7.017  17.094  0.00  0.00    +0.000 NA
ATOM      3  C   UNL     1       3.584   6.626  17.800  0.00  0.00    +0.000 A 
ATOM      4  C   UNL     1       2.398   7.504  18.052  0.00  0.00    +0.000 C 
ATOM      5  N   UNL     1       3.709   5.401  18.353  0.00  0.00    +0.000 N 
ATOM      6  C   UNL     1       4.966   4.950  17.994  0.00  0.00    +0.000 A 
ATOM      7  O   UNL     1       5.483   3.868  18.233  0.00  0.00    +0.000 OA
ENDROOT
BRANCH   5   8
ATOM      8  C   UNL     1       2.759   4.618  19.021  0.00  0.00    +0.000 A 
ATOM      9  C   UNL     1       1.736   3.965  18.316  0.00  0.00    +0.000 A 
ATOM     10  C   UNL     1       0.841   3.126  18.990  0.00  0.00    +0.000 A 
ATOM     11  C   UNL     1       0.941   2.971  20.371  0.00  0.00    +0.000 A 
ATOM     12  C   UNL     1       1.947   3.634  21.064  0.00  0.00    +0.000 A 
ATOM     13  F   UNL     1       2.028   3.501  22.394  0.00  0.00    +0.000 F 
ATOM     14  C   UNL     1       2.869   4.433  20.401  0.00  0.00    +0.000 A 
ENDBRANCH   5   8
BRANCH   1  15
ATOM     15  C   UNL     1       6.741   5.896  16.472  0.00  0.00    +0.000 C 
BRANCH  15  19
ATOM     16  C   UNL     1       6.370   3.780  12.722  0.00  0.00    +0.000 A 
ATOM     17  C   UNL     1       7.456   4.626  12.948  0.00  0.00    +0.000 A 
ATOM     18  C   UNL     1       7.577   5.319  14.155  0.00  0.00    +0.000 A 
ATOM     19  C   UNL     1       6.602   5.180  15.154  0.00  0.00    +0.000 A 
ATOM     20  C   UNL     1       5.494   4.361  14.904  0.00  0.00    +0.000 A 
ATOM     21  C   UNL     1       5.383   3.658  13.695  0.00  0.00    +0.000 A 
BRANCH  16  23
ATOM     22  C   UNL     1       5.710   1.885  11.465  0.00  0.00    +0.000 C 
ATOM     23  O   UNL     1       6.362   3.151  11.504  0.00  0.00    +0.000 OA
ENDBRANCH  16  23
ENDBRANCH  15  19
ENDBRANCH   1  15
TORSDOF 4
ENDMDL
MODEL 5
REMARK VINA RESULT:      -7.0      2.394      3.744
REMARK  Name = 
REMARK  6 active torsions:
REMARK  status: ('A' for Active; 'I' for Inactive)
REMARK    1  A    between atoms: C_1  and  O_2
REMARK    2  A    between atoms: O_2  and  C_3
REMARK    3  A    between atoms: C_6  and  C_7
REMARK    4  A    between atoms: C_7  and  N_8
REMARK    5  A    between atoms: C_10  and  C_11
REMARK    6  A    between atoms: N_12  and  C_13
REMARK                            x       y       z     vdW  Elec       q    Type
REMARK                         _______ _______ _______ _____ _____    ______ ____
ROOT
ATOM      1  N   UNL     1       4.655   5.087  18.656  0.00  0.00    +0.000 N 
ATOM      2  N   UNL     1       3.791   4.444  19.517  0.00  0.00    +0.000 NA
ATOM      3  C   UNL     1       2.815   5.297  19.673  0.00  0.00    +0.000 A 
ATOM      4  C   UNL     1       1.580   4.974  20.455  0.00  0.00    +0.000 C 
ATOM      5  N   UNL     1       2.969   6.463  19.010  0.00  0.00    +0.000 N 
ATOM      6  C   UNL     1       4.162   6.351  18.320  0.00  0.00    +0.000 A 
ATOM      7  O   UNL     1       4.720   7.189  17.626  0.00  0.00    +0.000 OA
ENDROOT
BRANCH   5   8
ATOM      8  C   UNL     1       2.212   7.640  19.080  0.00  0.00    +0.000 A 
ATOM      9  C   UNL     1       1.892   8.363  17.921  0.00  0.00    +0.000 A 
ATOM     10  C   UNL     1       1.071   9.493  18.000  0.00  0.00    +0.000 A 
ATOM     11  C   UNL     1       0.604   9.926  19.239  0.00  0.00    +0.000 A 
ATOM     12  C   UNL     1       0.940   9.215  20.385  0.00  0.00    +0.000 A 
ATOM     13  F   UNL     1       0.509   9.645  21.577  0.00  0.00    +0.000 F 
ATOM     14  C   UNL     1       1.716   8.064  20.314  0.00  0.00    +0.000 A 
ENDBRANCH   5   8
BRANCH   1  15
ATOM     15  C   UNL     1       5.956   4.579  18.302  0.00  0.00    +0.000 C 
BRANCH  15  19
ATOM     16  C   UNL     1       6.497   4.269  14.024  0.00  0.00    +0.000 A 
ATOM     17  C   UNL     1       5.415   3.643  14.644  0.00  0.00    +0.000 A 
ATOM     18  C   UNL     1       5.240   3.733  16.027  0.00  0.00    +0.000 A 
ATOM     19  C   UNL     1       6.156   4.447  16.814  0.00  0.00    +0.000 A 
ATOM     20  C   UNL     1       7.261   5.038  16.190  0.00  0.00    +0.000 A 
ATOM     21  C   UNL     1       7.427   4.955  14.800  0.00  0.00    +0.000 A 
BRANCH  16  23
ATOM     22  C   UNL     1       5.706   3.118  12.112  0.00  0.00    +0.000 C 
ATOM     23  O   UNL     1       6.562   4.115  12.664  0.00  0.00    +0.000 OA
ENDBRANCH  16  23
ENDBRANCH  15  19
ENDBRANCH   1  15
TORSDOF 4
ENDMDL
MODEL 6
REMARK VINA RESULT:      -6.9      4.935      8.085
REMARK  Name = 
REMARK  6 active torsions:
REMARK  status: ('A' for Active; 'I' for Inactive)
REMARK    1  A    between atoms: C_1  and  O_2
REMARK    2  A    between atoms: O_2  and  C_3
REMARK    3  A    between atoms: C_6  and  C_7
REMARK    4  A    between atoms: C_7  and  N_8
REMARK    5  A    between atoms: C_10  and  C_11
REMARK    6  A    between atoms: N_12  and  C_13
REMARK                            x       y       z     vdW  Elec       q    Type
REMARK                         _______ _______ _______ _____ _____    ______ ____
ROOT
ATOM      1  N   UNL     1       1.699   9.208  18.951  0.00  0.00    +0.000 N 
ATOM      2  N   UNL     1       1.288   8.609  20.122  0.00  0.00    +0.000 NA
ATOM      3  C   UNL     1       1.736   7.387  20.020  0.00  0.00    +0.000 A 
ATOM      4  C   UNL     1       1.615   6.389  21.129  0.00  0.00    +0.000 C 
ATOM      5  N   UNL     1       2.388   7.116  18.869  0.00  0.00    +0.000 N 
ATOM      6  C   UNL     1       2.393   8.297  18.150  0.00  0.00    +0.000 A 
ATOM      7  O   UNL     1       2.832   8.502  17.028  0.00  0.00    +0.000 OA
ENDROOT
BRANCH   5   8
ATOM      8  C   UNL     1       2.847   5.892  18.366  0.00  0.00    +0.000 A 
ATOM      9  C   UNL     1       1.949   4.925  17.888  0.00  0.00    +0.000 A 
ATOM     10  C   UNL     1       2.428   3.739  17.319  0.00  0.00    +0.000 A 
ATOM     11  C   UNL     1       3.800   3.501  17.264  0.00  0.00    +0.000 A 
ATOM     12  C   UNL     1       4.682   4.456  17.755  0.00  0.00    +0.000 A 
ATOM     13  F   UNL     1       5.998   4.215  17.721  0.00  0.00    +0.000 F 
ATOM     14  C   UNL     1       4.221   5.657  18.280  0.00  0.00    +0.000 A 
ENDBRANCH   5   8
BRANCH   1  15
ATOM     15  C   UNL     1       1.309  10.538  18.554  0.00  0.00    +0.000 C 
BRANCH  15  19
ATOM     16  C   UNL     1      -2.968  11.112  18.311  0.00  0.00    +0.000 A 
ATOM     17  C   UNL     1      -2.210  11.851  19.219  0.00  0.00    +0.000 A 
ATOM     18  C   UNL     1      -0.828  11.663  19.308  0.00  0.00    +0.000 A 
ATOM     19  C   UNL     1      -0.185  10.723  18.490  0.00  0.00    +0.000 A 
ATOM     20  C   UNL     1      -0.958   9.956  17.610  0.00  0.00    +0.000 A 
ATOM     21  C   UNL     1      -2.343  10.156  17.516  0.00  0.00    +0.000 A 
BRANCH  16  23
ATOM     22  C   UNL     1      -4.907  11.570  17.030  0.00  0.00    +0.000 C 
ATOM     23  O   UNL     1      -4.311  11.386  18.311  0.00  0.00    +0.000 OA
ENDBRANCH  16  23
ENDBRANCH  15  19
ENDBRANCH   1  15
TORSDOF 4
ENDMDL
MODEL 7
REMARK VINA RESULT:      -6.9      2.487      3.980
REMARK  Name = 
REMARK  6 active torsions:
REMARK  status: ('A' for Active; 'I' for Inactive)
REMARK    1  A    between atoms: C_1  and  O_2
REMARK    2  A    between atoms: O_2  and  C_3
REMARK    3  A    between atoms: C_6  and  C_7
REMARK    4  A    between atoms: C_7  and  N_8
REMARK    5  A    between atoms: C_10  and  C_11
REMARK    6  A    between atoms: N_12  and  C_13
REMARK                            x       y       z     vdW  Elec       q    Type
REMARK                         _______ _______ _______ _____ _____    ______ ____
ROOT
ATOM      1  N   UNL     1       4.403   5.004  18.834  0.00  0.00    +0.000 N 
ATOM      2  N   UNL     1       3.481   4.391  19.656  0.00  0.00    +0.000 NA
ATOM      3  C   UNL     1       2.543   5.288  19.794  0.00  0.00    +0.000 A 
ATOM      4  C   UNL     1       1.268   5.015  20.529  0.00  0.00    +0.000 C 
ATOM      5  N   UNL     1       2.775   6.455  19.154  0.00  0.00    +0.000 N 
ATOM      6  C   UNL     1       3.984   6.295  18.502  0.00  0.00    +0.000 A 
ATOM      7  O   UNL     1       4.606   7.114  17.841  0.00  0.00    +0.000 OA
ENDROOT
BRANCH   5   8
ATOM      8  C   UNL     1       2.075   7.667  19.218  0.00  0.00    +0.000 A 
ATOM      9  C   UNL     1       1.735   8.367  18.051  0.00  0.00    +0.000 A 
ATOM     10  C   UNL     1       0.969   9.536  18.128  0.00  0.00    +0.000 A 
ATOM     11  C   UNL     1       0.577  10.027  19.372  0.00  0.00    +0.000 A 
ATOM     12  C   UNL     1       0.932   9.337  20.524  0.00  0.00    +0.000 A 
ATOM     13  F   UNL     1       0.573   9.822  21.719  0.00  0.00    +0.000 F 
ATOM     14  C   UNL     1       1.653   8.151  20.458  0.00  0.00    +0.000 A 
ENDBRANCH   5   8
BRANCH   1  15
ATOM     15  C   UNL     1       5.690   4.438  18.515  0.00  0.00    +0.000 C 
BRANCH  15  19
ATOM     16  C   UNL     1       6.547   4.330  14.280  0.00  0.00    +0.000 A 
ATOM     17  C   UNL     1       7.462   4.894  15.169  0.00  0.00    +0.000 A 
ATOM     18  C   UNL     1       7.187   4.939  16.538  0.00  0.00    +0.000 A 
ATOM     19  C   UNL     1       5.981   4.426  17.037  0.00  0.00    +0.000 A 
ATOM     20  C   UNL     1       5.050   3.899  16.134  0.00  0.00    +0.000 A 
ATOM     21  C   UNL     1       5.335   3.845  14.762  0.00  0.00    +0.000 A 
BRANCH  16  23
ATOM     22  C   UNL     1       6.293   3.376  12.128  0.00  0.00    +0.000 C 
ATOM     23  O   UNL     1       6.928   4.339  12.964  0.00  0.00    +0.000 OA
ENDBRANCH  16  23
ENDBRANCH  15  19
ENDBRANCH   1  15
TORSDOF 4
ENDMDL
MODEL 8
REMARK VINA RESULT:      -6.8      2.726      7.068
REMARK  Name = 
REMARK  6 active torsions:
REMARK  status: ('A' for Active; 'I' for Inactive)
REMARK    1  A    between atoms: C_1  and  O_2
REMARK    2  A    between atoms: O_2  and  C_3
REMARK    3  A    between atoms: C_6  and  C_7
REMARK    4  A    between atoms: C_7  and  N_8
REMARK    5  A    between atoms: C_10  and  C_11
REMARK    6  A    between atoms: N_12  and  C_13
REMARK                            x       y       z     vdW  Elec       q    Type
REMARK                         _______ _______ _______ _____ _____    ______ ____
ROOT
ATOM      1  N   UNL     1       7.015   4.912  15.735  0.00  0.00    +0.000 N 
ATOM      2  N   UNL     1       7.838   5.603  14.872  0.00  0.00    +0.000 NA
ATOM      3  C   UNL     1       7.488   5.167  13.692  0.00  0.00    +0.000 A 
ATOM      4  C   UNL     1       8.052   5.729  12.425  0.00  0.00    +0.000 C 
ATOM      5  N   UNL     1       6.519   4.226  13.700  0.00  0.00    +0.000 N 
ATOM      6  C   UNL     1       6.176   4.047  15.027  0.00  0.00    +0.000 A 
ATOM      7  O   UNL     1       5.376   3.256  15.506  0.00  0.00    +0.000 OA
ENDROOT
BRANCH   5   8
ATOM      8  C   UNL     1       6.026   3.439  12.651  0.00  0.00    +0.000 A 
ATOM      9  C   UNL     1       6.786   2.386  12.120  0.00  0.00    +0.000 A 
ATOM     10  C   UNL     1       6.248   1.561  11.125  0.00  0.00    +0.000 A 
ATOM     11  C   UNL     1       4.970   1.813  10.632  0.00  0.00    +0.000 A 
ATOM     12  C   UNL     1       4.230   2.868  11.151  0.00  0.00    +0.000 A 
ATOM     13  F   UNL     1       3.011   3.121  10.660  0.00  0.00    +0.000 F 
ATOM     14  C   UNL     1       4.735   3.665  12.171  0.00  0.00    +0.000 A 
ENDBRANCH   5   8
BRANCH   1  15
ATOM     15  C   UNL     1       7.137   4.965  17.171  0.00  0.00    +0.000 C 
BRANCH  15  19
ATOM     16  C   UNL     1       3.383   5.869  19.114  0.00  0.00    +0.000 A 
ATOM     17  C   UNL     1       3.862   6.690  18.094  0.00  0.00    +0.000 A 
ATOM     18  C   UNL     1       5.079   6.407  17.467  0.00  0.00    +0.000 A 
ATOM     19  C   UNL     1       5.841   5.298  17.863  0.00  0.00    +0.000 A 
ATOM     20  C   UNL     1       5.373   4.502  18.916  0.00  0.00    +0.000 A 
ATOM     21  C   UNL     1       4.146   4.783  19.534  0.00  0.00    +0.000 A 
BRANCH  16  23
ATOM     22  C   UNL     1       1.626   5.354  20.615  0.00  0.00    +0.000 C 
ATOM     23  O   UNL     1       2.178   6.243  19.649  0.00  0.00    +0.000 OA
ENDBRANCH  16  23
ENDBRANCH  15  19
ENDBRANCH   1  15
TORSDOF 4
ENDMDL
MODEL 9
REMARK VINA RESULT:      -6.8      2.623      7.206
REMARK  Name = 
REMARK  6 active torsions:
REMARK  status: ('A' for Active; 'I' for Inactive)
REMARK    1  A    between atoms: C_1  and  O_2
REMARK    2  A    between atoms: O_2  and  C_3
REMARK    3  A    between atoms: C_6  and  C_7
REMARK    4  A    between atoms: C_7  and  N_8
REMARK    5  A    between atoms: C_10  and  C_11
REMARK    6  A    between atoms: N_12  and  C_13
REMARK                            x       y       z     vdW  Elec       q    Type
REMARK                         _______ _______ _______ _____ _____    ______ ____
ROOT
ATOM      1  N   UNL     1       4.920   6.547  17.218  0.00  0.00    +0.000 N 
ATOM      2  N   UNL     1       5.849   5.752  17.854  0.00  0.00    +0.000 NA
ATOM      3  C   UNL     1       6.543   5.239  16.874  0.00  0.00    +0.000 A 
ATOM      4  C   UNL     1       7.750   4.383  17.102  0.00  0.00    +0.000 C 
ATOM      5  N   UNL     1       6.137   5.605  15.639  0.00  0.00    +0.000 N 
ATOM      6  C   UNL     1       5.080   6.476  15.831  0.00  0.00    +0.000 A 
ATOM      7  O   UNL     1       4.377   7.015  14.989  0.00  0.00    +0.000 OA
ENDROOT
BRANCH   5   8
ATOM      8  C   UNL     1       6.540   5.128  14.385  0.00  0.00    +0.000 A 
ATOM      9  C   UNL     1       7.635   5.694  13.715  0.00  0.00    +0.000 A 
ATOM     10  C   UNL     1       8.072   5.155  12.499  0.00  0.00    +0.000 A 
ATOM     11  C   UNL     1       7.391   4.079  11.932  0.00  0.00    +0.000 A 
ATOM     12  C   UNL     1       6.297   3.536  12.594  0.00  0.00    +0.000 A 
ATOM     13  F   UNL     1       5.631   2.516  12.038  0.00  0.00    +0.000 F 
ATOM     14  C   UNL     1       5.882   4.032  13.824  0.00  0.00    +0.000 A 
ENDBRANCH   5   8
BRANCH   1  15
ATOM     15  C   UNL     1       3.837   7.212  17.898  0.00  0.00    +0.000 C 
BRANCH  15  19
ATOM     16  C   UNL     1       1.369   4.476  20.158  0.00  0.00    +0.000 A 
ATOM     17  C   UNL     1       1.749   4.166  18.852  0.00  0.00    +0.000 A 
ATOM     18  C   UNL     1       2.540   5.051  18.114  0.00  0.00    +0.000 A 
ATOM     19  C   UNL     1       2.956   6.268  18.673  0.00  0.00    +0.000 A 
ATOM     20  C   UNL     1       2.536   6.590  19.970  0.00  0.00    +0.000 A 
ATOM     21  C   UNL     1       1.753   5.694  20.712  0.00  0.00    +0.000 A 
BRANCH  16  23
ATOM     22  C   UNL     1       1.301   2.606  21.609  0.00  0.00    +0.000 C 
ATOM     23  O   UNL     1       0.599   3.531  20.783  0.00  0.00    +0.000 OA
ENDBRANCH  16  23
ENDBRANCH  15  19
ENDBRANCH   1  15
TORSDOF 4
ENDMDL
