MODEL 1
REMARK VINA RESULT:      -7.3      0.000      0.000
REMARK  Name = 
REMARK  6 active torsions:
REMARK  status: ('A' for Active; 'I' for Inactive)
REMARK    1  A    between atoms: C_1  and  C_2
REMARK    2  A    between atoms: C_6  and  C_7
REMARK    3  A    between atoms: C_7  and  C_8
REMARK    4  A    between atoms: N_20  and  C_21
REMARK    5  A    between atoms: N_20  and  C_22
REMARK    6  A    between atoms: C_24  and  C_25
REMARK                            x       y       z     vdW  Elec       q    Type
REMARK                         _______ _______ _______ _____ _____    ______ ____
ROOT
ATOM      1  C   UNL     1       2.354   8.268  18.257  0.00  0.00    +0.000 C 
ATOM      2  O   UNL     1       2.724   8.533  17.110  0.00  0.00    +0.000 OA
ATOM      3  N   UNL     1       1.492   9.098  18.954  0.00  0.00    +0.000 N 
ATOM      4  C   UNL     1       1.135   8.926  20.358  0.00  0.00    +0.000 C 
ATOM      5  C   UNL     1       0.158   9.997  20.848  0.00  0.00    +0.000 C 
ATOM      6  C   UNL     1      -1.065  10.116  19.929  0.00  0.00    +0.000 C 
ATOM      7  C   UNL     1      -0.695  10.047  18.453  0.00  0.00    +0.000 C 
ATOM      8  C   UNL     1       0.810  10.179  18.245  0.00  0.00    +0.000 C 
ATOM      9  C   UNL     1       1.336  11.582  18.588  0.00  0.00    +0.000 C 
ATOM     10  N   UNL     1       1.578  11.995  19.962  0.00  0.00    +0.000 N 
ATOM     11  C   UNL     1       2.317  13.123  20.333  0.00  0.00    +0.000 C 
ATOM     12  O   UNL     1       2.464  13.360  21.537  0.00  0.00    +0.000 OA
ATOM     13  N   UNL     1       2.893  13.978  19.402  0.00  0.00    +0.000 N 
ATOM     14  C   UNL     1       2.745  14.094  17.954  0.00  0.00    +0.000 C 
ATOM     15  C   UNL     1       3.844  14.961  19.920  0.00  0.00    +0.000 C 
ATOM     16  C   UNL     1       0.859  11.346  21.070  0.00  0.00    +0.000 C 
ENDROOT
BRANCH   1  17
ATOM     17  C   UNL     1       2.806   6.974  18.930  0.00  0.00    +0.000 C 
BRANCH  17  23
ATOM     18  C   UNL     1       5.799   3.617  15.319  0.00  0.00    +0.000 C 
ATOM     19  C   UNL     1       5.042   4.468  16.308  0.00  0.00    +0.000 A 
ATOM     20  N   UNL     1       5.578   5.569  16.717  0.00  0.00    +0.000 NA
ATOM     21  C   UNL     1       4.895   6.354  17.619  0.00  0.00    +0.000 A 
ATOM     22  O   UNL     1       5.404   7.360  18.102  0.00  0.00    +0.000 OA
ATOM     23  C   UNL     1       3.483   5.968  18.020  0.00  0.00    +0.000 A 
ATOM     24  C   UNL     1       3.015   4.795  17.538  0.00  0.00    +0.000 A 
ATOM     25  C   UNL     1       1.638   4.236  17.771  0.00  0.00    +0.000 C 
ATOM     26  N   UNL     1       3.817   4.033  16.718  0.00  0.00    +0.000 N 
ATOM     27  H   UNL     1       3.424   3.182  16.328  0.00  0.00    +0.000 HD
ENDBRANCH  17  23
ENDBRANCH   1  17
TORSDOF 2
ENDMDL
MODEL 2
REMARK VINA RESULT:      -7.0      1.609      2.240
REMARK  Name = 
REMARK  6 active torsions:
REMARK  status: ('A' for Active; 'I' for Inactive)
REMARK    1  A    between atoms: C_1  and  C_2
REMARK    2  A    between atoms: C_6  and  C_7
REMARK    3  A    between atoms: C_7  and  C_8
REMARK    4  A    between atoms: N_20  and  C_21
REMARK    5  A    between atoms: N_20  and  C_22
REMARK    6  A    between atoms: C_24  and  C_25
REMARK                            x       y       z     vdW  Elec       q    Type
REMARK                         _______ _______ _______ _____ _____    ______ ____
ROOT
ATOM      1  C   UNL     1       2.193   8.075  19.105  0.00  0.00    +0.000 C 
ATOM      2  O   UNL     1       2.835   8.119  18.052  0.00  0.00    +0.000 OA
ATOM      3  N   UNL     1       1.284   9.064  19.446  0.00  0.00    +0.000 N 
ATOM      4  C   UNL     1       0.606   9.153  20.734  0.00  0.00    +0.000 C 
ATOM      5  C   UNL     1      -0.344  10.351  20.812  0.00  0.00    +0.000 C 
ATOM      6  C   UNL     1      -1.311  10.389  19.622  0.00  0.00    +0.000 C 
ATOM      7  C   UNL     1      -0.629  10.049  18.304  0.00  0.00    +0.000 C 
ATOM      8  C   UNL     1       0.891  10.050  18.441  0.00  0.00    +0.000 C 
ATOM      9  C   UNL     1       1.463  11.455  18.686  0.00  0.00    +0.000 C 
ATOM     10  N   UNL     1       1.432  12.078  20.000  0.00  0.00    +0.000 N 
ATOM     11  C   UNL     1       2.178  13.203  20.364  0.00  0.00    +0.000 C 
ATOM     12  O   UNL     1       2.075  13.631  21.519  0.00  0.00    +0.000 OA
ATOM     13  N   UNL     1       3.031  13.851  19.479  0.00  0.00    +0.000 N 
ATOM     14  C   UNL     1       3.224  13.731  18.036  0.00  0.00    +0.000 C 
ATOM     15  C   UNL     1       3.935  14.846  20.055  0.00  0.00    +0.000 C 
ATOM     16  C   UNL     1       0.422  11.671  20.990  0.00  0.00    +0.000 C 
ENDROOT
BRANCH   1  17
ATOM     17  C   UNL     1       2.351   6.887  20.051  0.00  0.00    +0.000 C 
BRANCH  17  23
ATOM     18  C   UNL     1       3.399   1.621  17.945  0.00  0.00    +0.000 C 
ATOM     19  C   UNL     1       3.093   3.010  18.449  0.00  0.00    +0.000 A 
ATOM     20  N   UNL     1       2.026   3.195  19.150  0.00  0.00    +0.000 NA
ATOM     21  C   UNL     1       1.737   4.459  19.615  0.00  0.00    +0.000 A 
ATOM     22  O   UNL     1       0.690   4.696  20.208  0.00  0.00    +0.000 OA
ATOM     23  C   UNL     1       2.738   5.578  19.394  0.00  0.00    +0.000 A 
ATOM     24  C   UNL     1       3.824   5.281  18.645  0.00  0.00    +0.000 A 
ATOM     25  C   UNL     1       4.957   6.218  18.332  0.00  0.00    +0.000 C 
ATOM     26  N   UNL     1       3.971   4.008  18.142  0.00  0.00    +0.000 N 
ATOM     27  H   UNL     1       4.819   3.796  17.626  0.00  0.00    +0.000 HD
ENDBRANCH  17  23
ENDBRANCH   1  17
TORSDOF 2
ENDMDL
MODEL 3
REMARK VINA RESULT:      -6.8      0.864      1.663
REMARK  Name = 
REMARK  6 active torsions:
REMARK  status: ('A' for Active; 'I' for Inactive)
REMARK    1  A    between atoms: C_1  and  C_2
REMARK    2  A    between atoms: C_6  and  C_7
REMARK    3  A    between atoms: C_7  and  C_8
REMARK    4  A    between atoms: N_20  and  C_21
REMARK    5  A    between atoms: N_20  and  C_22
REMARK    6  A    between atoms: C_24  and  C_25
REMARK                            x       y       z     vdW  Elec       q    Type
REMARK                         _______ _______ _______ _____ _____    ______ ____
ROOT
ATOM      1  C   UNL     1       2.307   8.387  18.219  0.00  0.00    +0.000 C 
ATOM      2  O   UNL     1       2.631   8.677  17.064  0.00  0.00    +0.000 OA
ATOM      3  N   UNL     1       1.462   9.194  18.963  0.00  0.00    +0.000 N 
ATOM      4  C   UNL     1       1.159   8.992  20.375  0.00  0.00    +0.000 C 
ATOM      5  C   UNL     1       0.190  10.043  20.922  0.00  0.00    +0.000 C 
ATOM      6  C   UNL     1      -1.067  10.165  20.050  0.00  0.00    +0.000 C 
ATOM      7  C   UNL     1      -0.752  10.128  18.561  0.00  0.00    +0.000 C 
ATOM      8  C   UNL     1       0.743  10.281  18.300  0.00  0.00    +0.000 C 
ATOM      9  C   UNL     1       1.267  11.683  18.651  0.00  0.00    +0.000 C 
ATOM     10  N   UNL     1       1.556  12.073  20.022  0.00  0.00    +0.000 N 
ATOM     11  C   UNL     1       2.296  13.201  20.388  0.00  0.00    +0.000 C 
ATOM     12  O   UNL     1       2.485  13.418  21.590  0.00  0.00    +0.000 OA
ATOM     13  N   UNL     1       2.828  14.080  19.453  0.00  0.00    +0.000 N 
ATOM     14  C   UNL     1       2.626  14.222  18.013  0.00  0.00    +0.000 C 
ATOM     15  C   UNL     1       3.788  15.064  19.955  0.00  0.00    +0.000 C 
ATOM     16  C   UNL     1       0.884  11.395  21.144  0.00  0.00    +0.000 C 
ENDROOT
BRANCH   1  17
ATOM     17  C   UNL     1       2.796   7.086  18.850  0.00  0.00    +0.000 C 
BRANCH  17  23
ATOM     18  C   UNL     1       5.640   3.253  15.611  0.00  0.00    +0.000 C 
ATOM     19  C   UNL     1       4.871   4.276  16.410  0.00  0.00    +0.000 A 
ATOM     20  N   UNL     1       3.693   3.971  16.838  0.00  0.00    +0.000 NA
ATOM     21  C   UNL     1       2.983   4.897  17.570  0.00  0.00    +0.000 A 
ATOM     22  O   UNL     1       1.827   4.682  17.919  0.00  0.00    +0.000 OA
ATOM     23  C   UNL     1       3.645   6.206  17.954  0.00  0.00    +0.000 A 
ATOM     24  C   UNL     1       4.881   6.431  17.453  0.00  0.00    +0.000 A 
ATOM     25  C   UNL     1       5.737   7.635  17.732  0.00  0.00    +0.000 C 
ATOM     26  N   UNL     1       5.467   5.480  16.648  0.00  0.00    +0.000 N 
ATOM     27  H   UNL     1       6.415   5.649  16.326  0.00  0.00    +0.000 HD
ENDBRANCH  17  23
ENDBRANCH   1  17
TORSDOF 2
ENDMDL
MODEL 4
REMARK VINA RESULT:      -6.8      3.168      4.531
REMARK  Name = 
REMARK  6 active torsions:
REMARK  status: ('A' for Active; 'I' for Inactive)
REMARK    1  A    between atoms: C_1  and  C_2
REMARK    2  A    between atoms: C_6  and  C_7
REMARK    3  A    between atoms: C_7  and  C_8
REMARK    4  A    between atoms: N_20  and  C_21
REMARK    5  A    between atoms: N_20  and  C_22
REMARK    6  A    between atoms: C_24  and  C_25
REMARK                            x       y       z     vdW  Elec       q    Type
REMARK                         _______ _______ _______ _____ _____    ______ ____
ROOT
ATOM      1  C   UNL     1       0.814   9.776  20.922  0.00  0.00    +0.000 C 
ATOM      2  O   UNL     1       1.649  10.041  21.790  0.00  0.00    +0.000 OA
ATOM      3  N   UNL     1       0.042  10.763  20.328  0.00  0.00    +0.000 N 
ATOM      4  C   UNL     1      -1.062  10.506  19.411  0.00  0.00    +0.000 C 
ATOM      5  C   UNL     1      -1.722  11.795  18.915  0.00  0.00    +0.000 C 
ATOM      6  C   UNL     1      -0.690  12.782  18.352  0.00  0.00    +0.000 C 
ATOM      7  C   UNL     1       0.573  12.855  19.199  0.00  0.00    +0.000 C 
ATOM      8  C   UNL     1       0.384  12.167  20.548  0.00  0.00    +0.000 C 
ATOM      9  C   UNL     1      -0.598  12.915  21.463  0.00  0.00    +0.000 C 
ATOM     10  N   UNL     1      -2.039  12.797  21.301  0.00  0.00    +0.000 N 
ATOM     11  C   UNL     1      -2.981  13.200  22.253  0.00  0.00    +0.000 C 
ATOM     12  O   UNL     1      -4.180  13.034  22.002  0.00  0.00    +0.000 OA
ATOM     13  N   UNL     1      -2.618  13.771  23.466  0.00  0.00    +0.000 N 
ATOM     14  C   UNL     1      -1.344  14.275  23.972  0.00  0.00    +0.000 C 
ATOM     15  C   UNL     1      -3.678  13.907  24.465  0.00  0.00    +0.000 C 
ATOM     16  C   UNL     1      -2.611  12.430  19.996  0.00  0.00    +0.000 C 
ENDROOT
BRANCH   1  17
ATOM     17  C   UNL     1       0.639   8.339  20.437  0.00  0.00    +0.000 C 
BRANCH  17  23
ATOM     18  C   UNL     1       4.985   5.959  17.487  0.00  0.00    +0.000 C 
ATOM     19  C   UNL     1       3.811   6.550  18.228  0.00  0.00    +0.000 A 
ATOM     20  N   UNL     1       3.373   5.945  19.280  0.00  0.00    +0.000 NA
ATOM     21  C   UNL     1       2.302   6.476  19.964  0.00  0.00    +0.000 A 
ATOM     22  O   UNL     1       1.797   5.888  20.914  0.00  0.00    +0.000 OA
ATOM     23  C   UNL     1       1.739   7.818  19.535  0.00  0.00    +0.000 A 
ATOM     24  C   UNL     1       2.267   8.369  18.419  0.00  0.00    +0.000 A 
ATOM     25  C   UNL     1       1.892   9.703  17.835  0.00  0.00    +0.000 C 
ATOM     26  N   UNL     1       3.272   7.707  17.749  0.00  0.00    +0.000 N 
ATOM     27  H   UNL     1       3.687   8.165  16.943  0.00  0.00    +0.000 HD
ENDBRANCH  17  23
ENDBRANCH   1  17
TORSDOF 2
ENDMDL
MODEL 5
REMARK VINA RESULT:      -6.8      4.853      8.185
REMARK  Name = 
REMARK  6 active torsions:
REMARK  status: ('A' for Active; 'I' for Inactive)
REMARK    1  A    between atoms: C_1  and  C_2
REMARK    2  A    between atoms: C_6  and  C_7
REMARK    3  A    between atoms: C_7  and  C_8
REMARK    4  A    between atoms: N_20  and  C_21
REMARK    5  A    between atoms: N_20  and  C_22
REMARK    6  A    between atoms: C_24  and  C_25
REMARK                            x       y       z     vdW  Elec       q    Type
REMARK                         _______ _______ _______ _____ _____    ______ ____
ROOT
ATOM      1  C   UNL     1       1.927  12.741  19.286  0.00  0.00    +0.000 C 
ATOM      2  O   UNL     1       2.397  12.242  18.261  0.00  0.00    +0.000 OA
ATOM      3  N   UNL     1       0.909  12.125  19.997  0.00  0.00    +0.000 N 
ATOM      4  C   UNL     1       0.209  12.727  21.125  0.00  0.00    +0.000 C 
ATOM      5  C   UNL     1      -0.862  11.802  21.710  0.00  0.00    +0.000 C 
ATOM      6  C   UNL     1      -0.300  10.410  22.026  0.00  0.00    +0.000 C 
ATOM      7  C   UNL     1       0.634   9.896  20.940  0.00  0.00    +0.000 C 
ATOM      8  C   UNL     1       0.547  10.746  19.676  0.00  0.00    +0.000 C 
ATOM      9  C   UNL     1      -0.804  10.605  18.958  0.00  0.00    +0.000 C 
ATOM     10  N   UNL     1      -1.991  11.314  19.411  0.00  0.00    +0.000 N 
ATOM     11  C   UNL     1      -3.160  11.469  18.659  0.00  0.00    +0.000 C 
ATOM     12  O   UNL     1      -4.097  12.106  19.151  0.00  0.00    +0.000 OA
ATOM     13  N   UNL     1      -3.301  10.939  17.382  0.00  0.00    +0.000 N 
ATOM     14  C   UNL     1      -2.491   9.995  16.617  0.00  0.00    +0.000 C 
ATOM     15  C   UNL     1      -4.462  11.389  16.614  0.00  0.00    +0.000 C 
ATOM     16  C   UNL     1      -2.110  11.742  20.815  0.00  0.00    +0.000 C 
ENDROOT
BRANCH   1  17
ATOM     17  C   UNL     1       2.496  14.048  19.835  0.00  0.00    +0.000 C 
BRANCH  17  23
ATOM     18  C   UNL     1       1.186  18.631  16.588  0.00  0.00    +0.000 C 
ATOM     19  C   UNL     1       1.549  17.468  17.477  0.00  0.00    +0.000 A 
ATOM     20  N   UNL     1       0.687  17.059  18.347  0.00  0.00    +0.000 NA
ATOM     21  C   UNL     1       1.009  15.998  19.164  0.00  0.00    +0.000 A 
ATOM     22  O   UNL     1       0.257  15.635  20.062  0.00  0.00    +0.000 OA
ATOM     23  C   UNL     1       2.316  15.261  18.944  0.00  0.00    +0.000 A 
ATOM     24  C   UNL     1       3.151  15.770  18.010  0.00  0.00    +0.000 A 
ATOM     25  C   UNL     1       4.474  15.185  17.600  0.00  0.00    +0.000 C 
ATOM     26  N   UNL     1       2.777  16.898  17.313  0.00  0.00    +0.000 N 
ATOM     27  H   UNL     1       3.397  17.231  16.581  0.00  0.00    +0.000 HD
ENDBRANCH  17  23
ENDBRANCH   1  17
TORSDOF 2
ENDMDL
MODEL 6
REMARK VINA RESULT:      -6.5      3.991      6.700
REMARK  Name = 
REMARK  6 active torsions:
REMARK  status: ('A' for Active; 'I' for Inactive)
REMARK    1  A    between atoms: C_1  and  C_2
REMARK    2  A    between atoms: C_6  and  C_7
REMARK    3  A    between atoms: C_7  and  C_8
REMARK    4  A    between atoms: N_20  and  C_21
REMARK    5  A    between atoms: N_20  and  C_22
REMARK    6  A    between atoms: C_24  and  C_25
REMARK                            x       y       z     vdW  Elec       q    Type
REMARK                         _______ _______ _______ _____ _____    ______ ____
ROOT
ATOM      1  C   UNL     1       2.479  12.803  18.649  0.00  0.00    +0.000 C 
ATOM      2  O   UNL     1       2.910  12.229  17.645  0.00  0.00    +0.000 OA
ATOM      3  N   UNL     1       2.924  14.064  19.013  0.00  0.00    +0.000 N 
ATOM      4  C   UNL     1       2.573  14.735  20.260  0.00  0.00    +0.000 C 
ATOM      5  C   UNL     1       3.212  16.120  20.378  0.00  0.00    +0.000 C 
ATOM      6  C   UNL     1       2.940  16.981  19.137  0.00  0.00    +0.000 C 
ATOM      7  C   UNL     1       3.073  16.194  17.840  0.00  0.00    +0.000 C 
ATOM      8  C   UNL     1       3.731  14.837  18.072  0.00  0.00    +0.000 C 
ATOM      9  C   UNL     1       5.212  14.956  18.467  0.00  0.00    +0.000 C 
ATOM     10  N   UNL     1       5.619  15.286  19.824  0.00  0.00    +0.000 N 
ATOM     11  C   UNL     1       6.915  15.128  20.325  0.00  0.00    +0.000 C 
ATOM     12  O   UNL     1       7.132  15.433  21.503  0.00  0.00    +0.000 OA
ATOM     13  N   UNL     1       7.960  14.637  19.552  0.00  0.00    +0.000 N 
ATOM     14  C   UNL     1       8.085  14.384  18.119  0.00  0.00    +0.000 C 
ATOM     15  C   UNL     1       9.187  14.282  20.264  0.00  0.00    +0.000 C 
ATOM     16  C   UNL     1       4.709  16.028  20.712  0.00  0.00    +0.000 C 
ENDROOT
BRANCH   1  17
ATOM     17  C   UNL     1       1.394  12.151  19.501  0.00  0.00    +0.000 C 
BRANCH  17  23
ATOM     18  C   UNL     1      -3.239  10.014  16.812  0.00  0.00    +0.000 C 
ATOM     19  C   UNL     1      -2.010  10.596  17.466  0.00  0.00    +0.000 A 
ATOM     20  N   UNL     1      -2.073  11.789  17.953  0.00  0.00    +0.000 NA
ATOM     21  C   UNL     1      -0.958  12.331  18.552  0.00  0.00    +0.000 A 
ATOM     22  O   UNL     1      -0.946  13.492  18.947  0.00  0.00    +0.000 OA
ATOM     23  C   UNL     1       0.280  11.472  18.730  0.00  0.00    +0.000 A 
ATOM     24  C   UNL     1       0.246  10.236  18.182  0.00  0.00    +0.000 A 
ATOM     25  C   UNL     1       1.337   9.205  18.268  0.00  0.00    +0.000 C 
ATOM     26  N   UNL     1      -0.887   9.824  17.515  0.00  0.00    +0.000 N 
ATOM     27  H   UNL     1      -0.908   8.874  17.157  0.00  0.00    +0.000 HD
ENDBRANCH  17  23
ENDBRANCH   1  17
TORSDOF 2
ENDMDL
MODEL 7
REMARK VINA RESULT:      -6.5      5.103      7.559
REMARK  Name = 
REMARK  6 active torsions:
REMARK  status: ('A' for Active; 'I' for Inactive)
REMARK    1  A    between atoms: C_1  and  C_2
REMARK    2  A    between atoms: C_6  and  C_7
REMARK    3  A    between atoms: C_7  and  C_8
REMARK    4  A    between atoms: N_20  and  C_21
REMARK    5  A    between atoms: N_20  and  C_22
REMARK    6  A    between atoms: C_24  and  C_25
REMARK                            x       y       z     vdW  Elec       q    Type
REMARK                         _______ _______ _______ _____ _____    ______ ____
ROOT
ATOM      1  C   UNL     1       1.893  13.210  19.315  0.00  0.00    +0.000 C 
ATOM      2  O   UNL     1       2.433  12.638  18.366  0.00  0.00    +0.000 OA
ATOM      3  N   UNL     1       0.874  12.615  20.042  0.00  0.00    +0.000 N 
ATOM      4  C   UNL     1       0.093  13.288  21.073  0.00  0.00    +0.000 C 
ATOM      5  C   UNL     1      -0.958  12.370  21.702  0.00  0.00    +0.000 C 
ATOM      6  C   UNL     1      -0.345  11.047  22.181  0.00  0.00    +0.000 C 
ATOM      7  C   UNL     1       0.661  10.478  21.191  0.00  0.00    +0.000 C 
ATOM      8  C   UNL     1       0.593  11.194  19.846  0.00  0.00    +0.000 C 
ATOM      9  C   UNL     1      -0.715  10.913  19.090  0.00  0.00    +0.000 C 
ATOM     10  N   UNL     1      -1.954  11.600  19.419  0.00  0.00    +0.000 N 
ATOM     11  C   UNL     1      -3.092  11.619  18.607  0.00  0.00    +0.000 C 
ATOM     12  O   UNL     1      -4.081  12.252  18.993  0.00  0.00    +0.000 OA
ATOM     13  N   UNL     1      -3.149  10.959  17.386  0.00  0.00    +0.000 N 
ATOM     14  C   UNL     1      -2.260   9.988  16.754  0.00  0.00    +0.000 C 
ATOM     15  C   UNL     1      -4.293  11.270  16.529  0.00  0.00    +0.000 C 
ATOM     16  C   UNL     1      -2.158  12.157  20.767  0.00  0.00    +0.000 C 
ENDROOT
BRANCH   1  17
ATOM     17  C   UNL     1       2.373  14.592  19.753  0.00  0.00    +0.000 C 
BRANCH  17  23
ATOM     18  C   UNL     1       7.832  15.087  21.547  0.00  0.00    +0.000 C 
ATOM     19  C   UNL     1       6.411  14.900  21.073  0.00  0.00    +0.000 A 
ATOM     20  N   UNL     1       5.491  14.675  21.949  0.00  0.00    +0.000 NA
ATOM     21  C   UNL     1       4.191  14.503  21.528  0.00  0.00    +0.000 A 
ATOM     22  O   UNL     1       3.301  14.198  22.315  0.00  0.00    +0.000 OA
ATOM     23  C   UNL     1       3.852  14.700  20.063  0.00  0.00    +0.000 A 
ATOM     24  C   UNL     1       4.889  14.932  19.226  0.00  0.00    +0.000 A 
ATOM     25  C   UNL     1       4.786  15.194  17.749  0.00  0.00    +0.000 C 
ATOM     26  N   UNL     1       6.168  14.987  19.734  0.00  0.00    +0.000 N 
ATOM     27  H   UNL     1       6.924  15.213  19.095  0.00  0.00    +0.000 HD
ENDBRANCH  17  23
ENDBRANCH   1  17
TORSDOF 2
ENDMDL
MODEL 8
REMARK VINA RESULT:      -6.5      1.628      2.490
REMARK  Name = 
REMARK  6 active torsions:
REMARK  status: ('A' for Active; 'I' for Inactive)
REMARK    1  A    between atoms: C_1  and  C_2
REMARK    2  A    between atoms: C_6  and  C_7
REMARK    3  A    between atoms: C_7  and  C_8
REMARK    4  A    between atoms: N_20  and  C_21
REMARK    5  A    between atoms: N_20  and  C_22
REMARK    6  A    between atoms: C_24  and  C_25
REMARK                            x       y       z     vdW  Elec       q    Type
REMARK                         _______ _______ _______ _____ _____    ______ ____
ROOT
ATOM      1  C   UNL     1       2.586   8.131  18.722  0.00  0.00    +0.000 C 
ATOM      2  O   UNL     1       3.035   8.293  17.584  0.00  0.00    +0.000 OA
ATOM      3  N   UNL     1       1.632   8.983  19.257  0.00  0.00    +0.000 N 
ATOM      4  C   UNL     1       1.171   8.941  20.639  0.00  0.00    +0.000 C 
ATOM      5  C   UNL     1       0.109  10.004  20.934  0.00  0.00    +0.000 C 
ATOM      6  C   UNL     1      -1.039   9.958  19.916  0.00  0.00    +0.000 C 
ATOM      7  C   UNL     1      -0.548   9.754  18.490  0.00  0.00    +0.000 C 
ATOM      8  C   UNL     1       0.962   9.945  18.383  0.00  0.00    +0.000 C 
ATOM      9  C   UNL     1       1.393  11.402  18.609  0.00  0.00    +0.000 C 
ATOM     10  N   UNL     1       1.504  11.971  19.944  0.00  0.00    +0.000 N 
ATOM     11  C   UNL     1       2.158  13.170  20.245  0.00  0.00    +0.000 C 
ATOM     12  O   UNL     1       2.196  13.541  21.423  0.00  0.00    +0.000 OA
ATOM     13  N   UNL     1       2.769  13.952  19.272  0.00  0.00    +0.000 N 
ATOM     14  C   UNL     1       2.734  13.906  17.812  0.00  0.00    +0.000 C 
ATOM     15  C   UNL     1       3.629  15.034  19.750  0.00  0.00    +0.000 C 
ATOM     16  C   UNL     1       0.728  11.405  21.059  0.00  0.00    +0.000 C 
ENDROOT
BRANCH   1  17
ATOM     17  C   UNL     1       3.039   6.943  19.565  0.00  0.00    +0.000 C 
BRANCH  17  23
ATOM     18  C   UNL     1       0.731   1.760  18.525  0.00  0.00    +0.000 C 
ATOM     19  C   UNL     1       1.291   3.140  18.768  0.00  0.00    +0.000 A 
ATOM     20  N   UNL     1       0.890   3.800  19.801  0.00  0.00    +0.000 NA
ATOM     21  C   UNL     1       1.395   5.060  20.032  0.00  0.00    +0.000 A 
ATOM     22  O   UNL     1       0.976   5.757  20.950  0.00  0.00    +0.000 OA
ATOM     23  C   UNL     1       2.496   5.594  19.135  0.00  0.00    +0.000 A 
ATOM     24  C   UNL     1       2.844   4.826  18.079  0.00  0.00    +0.000 A 
ATOM     25  C   UNL     1       3.931   5.136  17.086  0.00  0.00    +0.000 C 
ATOM     26  N   UNL     1       2.207   3.622  17.879  0.00  0.00    +0.000 N 
ATOM     27  H   UNL     1       2.521   3.040  17.109  0.00  0.00    +0.000 HD
ENDBRANCH  17  23
ENDBRANCH   1  17
TORSDOF 2
ENDMDL
MODEL 9
REMARK VINA RESULT:      -6.5      4.983      7.079
REMARK  Name = 
REMARK  6 active torsions:
REMARK  status: ('A' for Active; 'I' for Inactive)
REMARK    1  A    between atoms: C_1  and  C_2
REMARK    2  A    between atoms: C_6  and  C_7
REMARK    3  A    between atoms: C_7  and  C_8
REMARK    4  A    between atoms: N_20  and  C_21
REMARK    5  A    between atoms: N_20  and  C_22
REMARK    6  A    between atoms: C_24  and  C_25
REMARK                            x       y       z     vdW  Elec       q    Type
REMARK                         _______ _______ _______ _____ _____    ______ ____
ROOT
ATOM      1  C   UNL     1       2.278  12.677  18.847  0.00  0.00    +0.000 C 
ATOM      2  O   UNL     1       2.646  12.092  17.825  0.00  0.00    +0.000 OA
ATOM      3  N   UNL     1       2.742  13.943  19.169  0.00  0.00    +0.000 N 
ATOM      4  C   UNL     1       2.469  14.627  20.427  0.00  0.00    +0.000 C 
ATOM      5  C   UNL     1       3.112  16.014  20.490  0.00  0.00    +0.000 C 
ATOM      6  C   UNL     1       2.760  16.860  19.259  0.00  0.00    +0.000 C 
ATOM      7  C   UNL     1       2.812  16.060  17.965  0.00  0.00    +0.000 C 
ATOM      8  C   UNL     1       3.487  14.707  18.169  0.00  0.00    +0.000 C 
ATOM      9  C   UNL     1       4.989  14.832  18.469  0.00  0.00    +0.000 C 
ATOM     10  N   UNL     1       5.481  15.178  19.793  0.00  0.00    +0.000 N 
ATOM     11  C   UNL     1       6.806  15.027  20.213  0.00  0.00    +0.000 C 
ATOM     12  O   UNL     1       7.097  15.346  21.372  0.00  0.00    +0.000 OA
ATOM     13  N   UNL     1       7.801  14.530  19.381  0.00  0.00    +0.000 N 
ATOM     14  C   UNL     1       7.835  14.261  17.946  0.00  0.00    +0.000 C 
ATOM     15  C   UNL     1       9.072  14.185  20.017  0.00  0.00    +0.000 C 
ATOM     16  C   UNL     1       4.627  15.928  20.729  0.00  0.00    +0.000 C 
ENDROOT
BRANCH   1  17
ATOM     17  C   UNL     1       1.251  12.032  19.774  0.00  0.00    +0.000 C 
BRANCH  17  23
ATOM     18  C   UNL     1      -3.912  11.255  17.325  0.00  0.00    +0.000 C 
ATOM     19  C   UNL     1      -2.581  11.431  18.013  0.00  0.00    +0.000 A 
ATOM     20  N   UNL     1      -1.695  10.500  17.896  0.00  0.00    +0.000 NA
ATOM     21  C   UNL     1      -0.476  10.651  18.520  0.00  0.00    +0.000 A 
ATOM     22  O   UNL     1       0.360   9.754  18.511  0.00  0.00    +0.000 OA
ATOM     23  C   UNL     1      -0.161  11.955  19.228  0.00  0.00    +0.000 A 
ATOM     24  C   UNL     1      -1.158  12.866  19.295  0.00  0.00    +0.000 A 
ATOM     25  C   UNL     1      -1.059  14.234  19.910  0.00  0.00    +0.000 C 
ATOM     26  N   UNL     1      -2.376  12.577  18.722  0.00  0.00    +0.000 N 
ATOM     27  H   UNL     1      -3.092  13.297  18.741  0.00  0.00    +0.000 HD
ENDBRANCH  17  23
ENDBRANCH   1  17
TORSDOF 2
ENDMDL
