MODEL 1
REMARK VINA RESULT:      -7.6      0.000      0.000
REMARK  Name = 
REMARK  14 active torsions:
REMARK  status: ('A' for Active; 'I' for Inactive)
REMARK    1  A    between atoms: C_1  and  C_2
REMARK    2  A    between atoms: C_2  and  N_3
REMARK    3  A    between atoms: N_3  and  C_4
REMARK    4  A    between atoms: N_3  and  C_6
REMARK    5  A    between atoms: C_4  and  C_5
REMARK    6  A    between atoms: C_6  and  C_7
REMARK    7  A    between atoms: C_7  and  C_8
REMARK    8  A    between atoms: C_8  and  O_9
REMARK    9  A    between atoms: O_9  and  C_10
REMARK   10  A    between atoms: C_14  and  C_15
REMARK   11  A    between atoms: C_15  and  C_16
REMARK   12  A    between atoms: C_15  and  N_17
REMARK   13  A    between atoms: C_20  and  C_21
REMARK   14  A    between atoms: C_31  and  C_32
REMARK                            x       y       z     vdW  Elec       q    Type
REMARK                         _______ _______ _______ _____ _____    ______ ____
ROOT
ATOM      1  N   UNL     1       5.941   6.403  16.154  0.00  0.00    +0.000 N 
ATOM      2  C   UNL     1       6.824   6.798  17.173  0.00  0.00    +0.000 A 
ATOM      3  C   UNL     1       7.248   8.115  17.189  0.00  0.00    +0.000 A 
ATOM      4  C   UNL     1       8.135   8.498  18.178  0.00  0.00    +0.000 A 
ATOM      5  N   UNL     1       8.568   7.623  19.109  0.00  0.00    +0.000 NA
ATOM      6  C   UNL     1       8.102   6.367  19.031  0.00  0.00    +0.000 A 
ATOM      7  C   UNL     1       8.509   5.404  20.102  0.00  0.00    +0.000 C 
ATOM      8  N   UNL     1       7.256   5.918  18.087  0.00  0.00    +0.000 NA
ATOM      9  H   UNL     1       5.122   7.006  16.175  0.00  0.00    +0.000 HD
ENDROOT
BRANCH   4  10
ATOM     10  C   UNL     1       8.660   9.874  18.304  0.00  0.00    +0.000 A 
ATOM     11  C   UNL     1       8.076  10.930  17.583  0.00  0.00    +0.000 A 
ATOM     12  C   UNL     1       8.564  12.243  17.657  0.00  0.00    +0.000 A 
ATOM     13  C   UNL     1       9.677  12.529  18.466  0.00  0.00    +0.000 A 
ATOM     14  N   UNL     1      10.278  13.768  18.620  0.00  0.00    +0.000 NA
ATOM     15  C   UNL     1      11.299  13.660  19.439  0.00  0.00    +0.000 A 
ATOM     16  S   UNL     1      11.600  12.101  20.079  0.00  0.00    +0.000 S 
ATOM     17  C   UNL     1      10.261  11.485  19.186  0.00  0.00    +0.000 A 
ATOM     18  C   UNL     1       9.769  10.167  19.124  0.00  0.00    +0.000 A 
ENDBRANCH   4  10
BRANCH   1  19
ATOM     19  C   UNL     1       5.567   4.985  16.106  0.00  0.00    +0.000 C 
ATOM     20  C   UNL     1       5.503   4.518  14.646  0.00  0.00    +0.000 C 
BRANCH  19  25
ATOM     21  C   UNL     1       2.520   5.807  18.265  0.00  0.00    +0.000 A 
ATOM     22  C   UNL     1       1.832   4.594  18.271  0.00  0.00    +0.000 A 
ATOM     23  C   UNL     1       2.326   3.499  17.564  0.00  0.00    +0.000 A 
ATOM     24  C   UNL     1       3.520   3.610  16.851  0.00  0.00    +0.000 A 
ATOM     25  C   UNL     1       4.241   4.812  16.845  0.00  0.00    +0.000 A 
ATOM     26  C   UNL     1       3.711   5.915  17.544  0.00  0.00    +0.000 A 
BRANCH  21  27
ATOM     27  O   UNL     1       1.935   6.798  19.003  0.00  0.00    +0.000 OA
BRANCH  27  28
ATOM     28  C   UNL     1       2.394   8.132  18.771  0.00  0.00    +0.000 C 
BRANCH  28  29
ATOM     29  C   UNL     1       1.416   8.792  17.806  0.00  0.00    +0.000 C 
BRANCH  29  30
ATOM     30  C   UNL     1       0.900  10.142  18.313  0.00  0.00    +0.000 C 
BRANCH  30  31
ATOM     31  N   UNL     1      -0.385  10.086  19.035  0.00  0.00    +0.000 NA
BRANCH  31  33
ATOM     32  C   UNL     1       0.954  11.413  20.717  0.00  0.00    +0.000 C 
ATOM     33  C   UNL     1      -0.249  10.515  20.438  0.00  0.00    +0.000 C 
ENDBRANCH  31  33
BRANCH  31  34
ATOM     34  C   UNL     1      -1.446  10.790  18.292  0.00  0.00    +0.000 C 
ATOM     35  C   UNL     1      -2.506   9.911  17.633  0.00  0.00    +0.000 C 
ENDBRANCH  31  34
ENDBRANCH  30  31
ENDBRANCH  29  30
ENDBRANCH  28  29
ENDBRANCH  27  28
ENDBRANCH  21  27
ENDBRANCH  19  25
ENDBRANCH   1  19
TORSDOF 10
ENDMDL
MODEL 2
REMARK VINA RESULT:      -7.5      3.751      9.725
REMARK  Name = 
REMARK  14 active torsions:
REMARK  status: ('A' for Active; 'I' for Inactive)
REMARK    1  A    between atoms: C_1  and  C_2
REMARK    2  A    between atoms: C_2  and  N_3
REMARK    3  A    between atoms: N_3  and  C_4
REMARK    4  A    between atoms: N_3  and  C_6
REMARK    5  A    between atoms: C_4  and  C_5
REMARK    6  A    between atoms: C_6  and  C_7
REMARK    7  A    between atoms: C_7  and  C_8
REMARK    8  A    between atoms: C_8  and  O_9
REMARK    9  A    between atoms: O_9  and  C_10
REMARK   10  A    between atoms: C_14  and  C_15
REMARK   11  A    between atoms: C_15  and  C_16
REMARK   12  A    between atoms: C_15  and  N_17
REMARK   13  A    between atoms: C_20  and  C_21
REMARK   14  A    between atoms: C_31  and  C_32
REMARK                            x       y       z     vdW  Elec       q    Type
REMARK                         _______ _______ _______ _____ _____    ______ ____
ROOT
ATOM      1  N   UNL     1       0.964  11.397  18.483  0.00  0.00    +0.000 N 
ATOM      2  C   UNL     1       1.052  10.298  19.354  0.00  0.00    +0.000 A 
ATOM      3  C   UNL     1       1.678   9.154  18.893  0.00  0.00    +0.000 A 
ATOM      4  C   UNL     1       1.743   8.064  19.742  0.00  0.00    +0.000 A 
ATOM      5  N   UNL     1       1.226   8.113  20.986  0.00  0.00    +0.000 NA
ATOM      6  C   UNL     1       0.645   9.263  21.362  0.00  0.00    +0.000 A 
ATOM      7  C   UNL     1       0.138   9.361  22.767  0.00  0.00    +0.000 C 
ATOM      8  N   UNL     1       0.526  10.354  20.585  0.00  0.00    +0.000 NA
ATOM      9  H   UNL     1       1.899  11.644  18.169  0.00  0.00    +0.000 HD
ENDROOT
BRANCH   4  10
ATOM     10  C   UNL     1       2.386   6.786  19.368  0.00  0.00    +0.000 A 
ATOM     11  C   UNL     1       3.136   6.683  18.183  0.00  0.00    +0.000 A 
ATOM     12  C   UNL     1       3.737   5.481  17.784  0.00  0.00    +0.000 A 
ATOM     13  C   UNL     1       3.588   4.329  18.577  0.00  0.00    +0.000 A 
ATOM     14  N   UNL     1       4.105   3.074  18.299  0.00  0.00    +0.000 NA
ATOM     15  C   UNL     1       3.756   2.237  19.249  0.00  0.00    +0.000 A 
ATOM     16  S   UNL     1       2.813   2.882  20.523  0.00  0.00    +0.000 S 
ATOM     17  C   UNL     1       2.846   4.425  19.755  0.00  0.00    +0.000 A 
ATOM     18  C   UNL     1       2.249   5.632  20.166  0.00  0.00    +0.000 A 
ENDBRANCH   4  10
BRANCH   1  19
ATOM     19  C   UNL     1       0.227  12.572  18.961  0.00  0.00    +0.000 C 
ATOM     20  C   UNL     1      -1.052  12.750  18.132  0.00  0.00    +0.000 C 
BRANCH  19  25
ATOM     21  C   UNL     1       3.444  14.637  18.880  0.00  0.00    +0.000 A 
ATOM     22  C   UNL     1       2.951  15.940  18.808  0.00  0.00    +0.000 A 
ATOM     23  C   UNL     1       1.579  16.174  18.763  0.00  0.00    +0.000 A 
ATOM     24  C   UNL     1       0.687  15.102  18.798  0.00  0.00    +0.000 A 
ATOM     25  C   UNL     1       1.155  13.784  18.891  0.00  0.00    +0.000 A 
ATOM     26  C   UNL     1       2.548  13.567  18.909  0.00  0.00    +0.000 A 
BRANCH  21  27
ATOM     27  O   UNL     1       4.807  14.545  18.927  0.00  0.00    +0.000 OA
BRANCH  27  28
ATOM     28  C   UNL     1       5.522  14.950  17.757  0.00  0.00    +0.000 C 
BRANCH  28  29
ATOM     29  C   UNL     1       6.756  14.064  17.644  0.00  0.00    +0.000 C 
BRANCH  29  30
ATOM     30  C   UNL     1       7.975  14.645  18.367  0.00  0.00    +0.000 C 
BRANCH  30  31
ATOM     31  N   UNL     1       9.047  13.676  18.658  0.00  0.00    +0.000 NA
BRANCH  31  33
ATOM     32  C   UNL     1      10.178  11.550  17.892  0.00  0.00    +0.000 C 
ATOM     33  C   UNL     1       9.010  12.521  17.743  0.00  0.00    +0.000 C 
ENDBRANCH  31  33
BRANCH  31  34
ATOM     34  C   UNL     1      10.362  14.340  18.733  0.00  0.00    +0.000 C 
ATOM     35  C   UNL     1      10.614  15.455  17.721  0.00  0.00    +0.000 C 
ENDBRANCH  31  34
ENDBRANCH  30  31
ENDBRANCH  29  30
ENDBRANCH  28  29
ENDBRANCH  27  28
ENDBRANCH  21  27
ENDBRANCH  19  25
ENDBRANCH   1  19
TORSDOF 10
ENDMDL
MODEL 3
REMARK VINA RESULT:      -7.4      3.278      9.014
REMARK  Name = 
REMARK  14 active torsions:
REMARK  status: ('A' for Active; 'I' for Inactive)
REMARK    1  A    between atoms: C_1  and  C_2
REMARK    2  A    between atoms: C_2  and  N_3
REMARK    3  A    between atoms: N_3  and  C_4
REMARK    4  A    between atoms: N_3  and  C_6
REMARK    5  A    between atoms: C_4  and  C_5
REMARK    6  A    between atoms: C_6  and  C_7
REMARK    7  A    between atoms: C_7  and  C_8
REMARK    8  A    between atoms: C_8  and  O_9
REMARK    9  A    between atoms: O_9  and  C_10
REMARK   10  A    between atoms: C_14  and  C_15
REMARK   11  A    between atoms: C_15  and  C_16
REMARK   12  A    between atoms: C_15  and  N_17
REMARK   13  A    between atoms: C_20  and  C_21
REMARK   14  A    between atoms: C_31  and  C_32
REMARK                            x       y       z     vdW  Elec       q    Type
REMARK                         _______ _______ _______ _____ _____    ______ ____
ROOT
ATOM      1  N   UNL     1       0.330  10.806  17.881  0.00  0.00    +0.000 N 
ATOM      2  C   UNL     1       0.908   9.768  18.631  0.00  0.00    +0.000 A 
ATOM      3  C   UNL     1       1.610   8.789  17.950  0.00  0.00    +0.000 A 
ATOM      4  C   UNL     1       2.158   7.755  18.685  0.00  0.00    +0.000 A 
ATOM      5  N   UNL     1       2.027   7.702  20.027  0.00  0.00    +0.000 NA
ATOM      6  C   UNL     1       1.341   8.695  20.613  0.00  0.00    +0.000 A 
ATOM      7  C   UNL     1       1.255   8.695  22.108  0.00  0.00    +0.000 C 
ATOM      8  N   UNL     1       0.763   9.720  19.962  0.00  0.00    +0.000 NA
ATOM      9  H   UNL     1       1.055  11.255  17.326  0.00  0.00    +0.000 HD
ENDROOT
BRANCH   4  10
ATOM     10  C   UNL     1       2.931   6.651  18.077  0.00  0.00    +0.000 A 
ATOM     11  C   UNL     1       2.425   5.340  18.077  0.00  0.00    +0.000 A 
ATOM     12  C   UNL     1       3.141   4.264  17.533  0.00  0.00    +0.000 A 
ATOM     13  C   UNL     1       4.413   4.484  16.974  0.00  0.00    +0.000 A 
ATOM     14  N   UNL     1       5.239   3.519  16.421  0.00  0.00    +0.000 NA
ATOM     15  C   UNL     1       6.353   4.081  16.010  0.00  0.00    +0.000 A 
ATOM     16  S   UNL     1       6.483   5.772  16.241  0.00  0.00    +0.000 S 
ATOM     17  C   UNL     1       4.920   5.784  16.969  0.00  0.00    +0.000 A 
ATOM     18  C   UNL     1       4.201   6.870  17.504  0.00  0.00    +0.000 A 
ENDBRANCH   4  10
BRANCH   1  19
ATOM     19  C   UNL     1      -0.478  11.790  18.611  0.00  0.00    +0.000 C 
ATOM     20  C   UNL     1      -1.834  11.961  17.915  0.00  0.00    +0.000 C 
BRANCH  19  25
ATOM     21  C   UNL     1       2.485  14.206  18.566  0.00  0.00    +0.000 A 
ATOM     22  C   UNL     1       1.874  15.421  18.877  0.00  0.00    +0.000 A 
ATOM     23  C   UNL     1       0.498  15.486  19.084  0.00  0.00    +0.000 A 
ATOM     24  C   UNL     1      -0.277  14.330  18.990  0.00  0.00    +0.000 A 
ATOM     25  C   UNL     1       0.315  13.093  18.700  0.00  0.00    +0.000 A 
ATOM     26  C   UNL     1       1.704  13.053  18.466  0.00  0.00    +0.000 A 
BRANCH  21  27
ATOM     27  O   UNL     1       3.840  14.277  18.394  0.00  0.00    +0.000 OA
BRANCH  27  28
ATOM     28  C   UNL     1       4.361  15.500  17.870  0.00  0.00    +0.000 C 
BRANCH  28  29
ATOM     29  C   UNL     1       5.807  15.618  18.334  0.00  0.00    +0.000 C 
BRANCH  29  30
ATOM     30  C   UNL     1       6.691  14.476  17.822  0.00  0.00    +0.000 C 
BRANCH  30  31
ATOM     31  N   UNL     1       7.853  14.160  18.673  0.00  0.00    +0.000 NA
BRANCH  31  33
ATOM     32  C   UNL     1      10.121  13.584  17.721  0.00  0.00    +0.000 C 
ATOM     33  C   UNL     1       9.113  14.666  18.098  0.00  0.00    +0.000 C 
ENDBRANCH  31  33
BRANCH  31  34
ATOM     34  C   UNL     1       7.622  14.575  20.069  0.00  0.00    +0.000 C 
ATOM     35  C   UNL     1       8.732  15.391  20.725  0.00  0.00    +0.000 C 
ENDBRANCH  31  34
ENDBRANCH  30  31
ENDBRANCH  29  30
ENDBRANCH  28  29
ENDBRANCH  27  28
ENDBRANCH  21  27
ENDBRANCH  19  25
ENDBRANCH   1  19
TORSDOF 10
ENDMDL
MODEL 4
REMARK VINA RESULT:      -7.4      3.350      9.067
REMARK  Name = 
REMARK  14 active torsions:
REMARK  status: ('A' for Active; 'I' for Inactive)
REMARK    1  A    between atoms: C_1  and  C_2
REMARK    2  A    between atoms: C_2  and  N_3
REMARK    3  A    between atoms: N_3  and  C_4
REMARK    4  A    between atoms: N_3  and  C_6
REMARK    5  A    between atoms: C_4  and  C_5
REMARK    6  A    between atoms: C_6  and  C_7
REMARK    7  A    between atoms: C_7  and  C_8
REMARK    8  A    between atoms: C_8  and  O_9
REMARK    9  A    between atoms: O_9  and  C_10
REMARK   10  A    between atoms: C_14  and  C_15
REMARK   11  A    between atoms: C_15  and  C_16
REMARK   12  A    between atoms: C_15  and  N_17
REMARK   13  A    between atoms: C_20  and  C_21
REMARK   14  A    between atoms: C_31  and  C_32
REMARK                            x       y       z     vdW  Elec       q    Type
REMARK                         _______ _______ _______ _____ _____    ______ ____
ROOT
ATOM      1  N   UNL     1       0.773  11.179  18.047  0.00  0.00    +0.000 N 
ATOM      2  C   UNL     1       1.166  10.030  18.754  0.00  0.00    +0.000 A 
ATOM      3  C   UNL     1       1.836   9.038  18.060  0.00  0.00    +0.000 A 
ATOM      4  C   UNL     1       2.201   7.898  18.751  0.00  0.00    +0.000 A 
ATOM      5  N   UNL     1       1.927   7.755  20.064  0.00  0.00    +0.000 NA
ATOM      6  C   UNL     1       1.284   8.767  20.667  0.00  0.00    +0.000 A 
ATOM      7  C   UNL     1       1.044   8.660  22.141  0.00  0.00    +0.000 C 
ATOM      8  N   UNL     1       0.880   9.894  20.056  0.00  0.00    +0.000 NA
ATOM      9  H   UNL     1       1.592  11.590  17.605  0.00  0.00    +0.000 HD
ENDROOT
BRANCH   4  10
ATOM     10  C   UNL     1       2.922   6.769  18.124  0.00  0.00    +0.000 A 
ATOM     11  C   UNL     1       2.370   5.476  18.133  0.00  0.00    +0.000 A 
ATOM     12  C   UNL     1       3.036   4.377  17.572  0.00  0.00    +0.000 A 
ATOM     13  C   UNL     1       4.302   4.553  16.986  0.00  0.00    +0.000 A 
ATOM     14  N   UNL     1       5.082   3.561  16.414  0.00  0.00    +0.000 NA
ATOM     15  C   UNL     1       6.206   4.084  15.981  0.00  0.00    +0.000 A 
ATOM     16  S   UNL     1       6.400   5.769  16.211  0.00  0.00    +0.000 S 
ATOM     17  C   UNL     1       4.854   5.835  16.973  0.00  0.00    +0.000 A 
ATOM     18  C   UNL     1       4.186   6.944  17.525  0.00  0.00    +0.000 A 
ENDBRANCH   4  10
BRANCH   1  19
ATOM     19  C   UNL     1      -0.006  12.182  18.780  0.00  0.00    +0.000 C 
ATOM     20  C   UNL     1      -1.399  12.313  18.152  0.00  0.00    +0.000 C 
BRANCH  19  25
ATOM     21  C   UNL     1       2.951  14.608  18.786  0.00  0.00    +0.000 A 
ATOM     22  C   UNL     1       2.310  15.847  18.806  0.00  0.00    +0.000 A 
ATOM     23  C   UNL     1       0.919  15.922  18.796  0.00  0.00    +0.000 A 
ATOM     24  C   UNL     1       0.157  14.754  18.775  0.00  0.00    +0.000 A 
ATOM     25  C   UNL     1       0.775  13.496  18.775  0.00  0.00    +0.000 A 
ATOM     26  C   UNL     1       2.184  13.441  18.758  0.00  0.00    +0.000 A 
BRANCH  21  27
ATOM     27  O   UNL     1       4.316  14.671  18.806  0.00  0.00    +0.000 OA
BRANCH  27  28
ATOM     28  C   UNL     1       4.928  14.996  20.057  0.00  0.00    +0.000 C 
BRANCH  28  29
ATOM     29  C   UNL     1       6.306  15.572  19.756  0.00  0.00    +0.000 C 
BRANCH  29  30
ATOM     30  C   UNL     1       7.133  14.681  18.824  0.00  0.00    +0.000 C 
BRANCH  30  31
ATOM     31  N   UNL     1       8.525  14.452  19.256  0.00  0.00    +0.000 NA
BRANCH  31  33
ATOM     32  C   UNL     1       9.574  14.413  21.553  0.00  0.00    +0.000 C 
ATOM     33  C   UNL     1       8.592  13.785  20.568  0.00  0.00    +0.000 C 
ENDBRANCH  31  33
BRANCH  31  34
ATOM     34  C   UNL     1       9.307  13.782  18.201  0.00  0.00    +0.000 C 
ATOM     35  C   UNL     1       8.731  12.478  17.656  0.00  0.00    +0.000 C 
ENDBRANCH  31  34
ENDBRANCH  30  31
ENDBRANCH  29  30
ENDBRANCH  28  29
ENDBRANCH  27  28
ENDBRANCH  21  27
ENDBRANCH  19  25
ENDBRANCH   1  19
TORSDOF 10
ENDMDL
MODEL 5
REMARK VINA RESULT:      -7.3      4.004      9.969
REMARK  Name = 
REMARK  14 active torsions:
REMARK  status: ('A' for Active; 'I' for Inactive)
REMARK    1  A    between atoms: C_1  and  C_2
REMARK    2  A    between atoms: C_2  and  N_3
REMARK    3  A    between atoms: N_3  and  C_4
REMARK    4  A    between atoms: N_3  and  C_6
REMARK    5  A    between atoms: C_4  and  C_5
REMARK    6  A    between atoms: C_6  and  C_7
REMARK    7  A    between atoms: C_7  and  C_8
REMARK    8  A    between atoms: C_8  and  O_9
REMARK    9  A    between atoms: O_9  and  C_10
REMARK   10  A    between atoms: C_14  and  C_15
REMARK   11  A    between atoms: C_15  and  C_16
REMARK   12  A    between atoms: C_15  and  N_17
REMARK   13  A    between atoms: C_20  and  C_21
REMARK   14  A    between atoms: C_31  and  C_32
REMARK                            x       y       z     vdW  Elec       q    Type
REMARK                         _______ _______ _______ _____ _____    ______ ____
ROOT
ATOM      1  N   UNL     1       1.363  11.830  18.497  0.00  0.00    +0.000 N 
ATOM      2  C   UNL     1       1.227  10.750  19.386  0.00  0.00    +0.000 A 
ATOM      3  C   UNL     1       1.713   9.517  18.988  0.00  0.00    +0.000 A 
ATOM      4  C   UNL     1       1.557   8.450  19.853  0.00  0.00    +0.000 A 
ATOM      5  N   UNL     1       0.962   8.601  21.054  0.00  0.00    +0.000 NA
ATOM      6  C   UNL     1       0.528   9.831  21.370  0.00  0.00    +0.000 A 
ATOM      7  C   UNL     1      -0.062  10.034  22.731  0.00  0.00    +0.000 C 
ATOM      8  N   UNL     1       0.625  10.909  20.573  0.00  0.00    +0.000 NA
ATOM      9  H   UNL     1       2.345  11.933  18.252  0.00  0.00    +0.000 HD
ENDROOT
BRANCH   4  10
ATOM     10  C   UNL     1       2.034   7.084  19.546  0.00  0.00    +0.000 A 
ATOM     11  C   UNL     1       2.661   6.806  18.319  0.00  0.00    +0.000 A 
ATOM     12  C   UNL     1       3.102   5.518  17.982  0.00  0.00    +0.000 A 
ATOM     13  C   UNL     1       2.910   4.457  18.884  0.00  0.00    +0.000 A 
ATOM     14  N   UNL     1       3.274   3.136  18.680  0.00  0.00    +0.000 NA
ATOM     15  C   UNL     1       2.929   2.420  19.726  0.00  0.00    +0.000 A 
ATOM     16  S   UNL     1       2.172   3.263  21.009  0.00  0.00    +0.000 S 
ATOM     17  C   UNL     1       2.289   4.727  20.105  0.00  0.00    +0.000 A 
ATOM     18  C   UNL     1       1.854   6.020  20.453  0.00  0.00    +0.000 A 
ENDBRANCH   4  10
BRANCH   1  19
ATOM     19  C   UNL     1       0.771  13.109  18.903  0.00  0.00    +0.000 C 
ATOM     20  C   UNL     1      -0.556  13.320  18.162  0.00  0.00    +0.000 C 
BRANCH  19  25
ATOM     21  C   UNL     1       4.077  14.821  18.033  0.00  0.00    +0.000 A 
ATOM     22  C   UNL     1       3.745  16.171  18.151  0.00  0.00    +0.000 A 
ATOM     23  C   UNL     1       2.449  16.552  18.491  0.00  0.00    +0.000 A 
ATOM     24  C   UNL     1       1.475  15.581  18.724  0.00  0.00    +0.000 A 
ATOM     25  C   UNL     1       1.787  14.217  18.632  0.00  0.00    +0.000 A 
ATOM     26  C   UNL     1       3.097  13.853  18.261  0.00  0.00    +0.000 A 
BRANCH  21  27
ATOM     27  O   UNL     1       5.382  14.582  17.703  0.00  0.00    +0.000 OA
BRANCH  27  28
ATOM     28  C   UNL     1       6.362  15.454  18.271  0.00  0.00    +0.000 C 
BRANCH  28  29
ATOM     29  C   UNL     1       7.132  14.659  19.317  0.00  0.00    +0.000 C 
BRANCH  29  30
ATOM     30  C   UNL     1       8.651  14.800  19.174  0.00  0.00    +0.000 C 
BRANCH  30  31
ATOM     31  N   UNL     1       9.228  14.140  17.989  0.00  0.00    +0.000 NA
BRANCH  31  33
ATOM     32  C   UNL     1      11.281  15.206  19.004  0.00  0.00    +0.000 C 
ATOM     33  C   UNL     1      10.672  14.404  17.857  0.00  0.00    +0.000 C 
ENDBRANCH  31  33
BRANCH  31  34
ATOM     34  C   UNL     1       8.874  12.709  17.949  0.00  0.00    +0.000 C 
ATOM     35  C   UNL     1      10.039  11.724  17.948  0.00  0.00    +0.000 C 
ENDBRANCH  31  34
ENDBRANCH  30  31
ENDBRANCH  29  30
ENDBRANCH  28  29
ENDBRANCH  27  28
ENDBRANCH  21  27
ENDBRANCH  19  25
ENDBRANCH   1  19
TORSDOF 10
ENDMDL
MODEL 6
REMARK VINA RESULT:      -7.3      3.410      9.351
REMARK  Name = 
REMARK  14 active torsions:
REMARK  status: ('A' for Active; 'I' for Inactive)
REMARK    1  A    between atoms: C_1  and  C_2
REMARK    2  A    between atoms: C_2  and  N_3
REMARK    3  A    between atoms: N_3  and  C_4
REMARK    4  A    between atoms: N_3  and  C_6
REMARK    5  A    between atoms: C_4  and  C_5
REMARK    6  A    between atoms: C_6  and  C_7
REMARK    7  A    between atoms: C_7  and  C_8
REMARK    8  A    between atoms: C_8  and  O_9
REMARK    9  A    between atoms: O_9  and  C_10
REMARK   10  A    between atoms: C_14  and  C_15
REMARK   11  A    between atoms: C_15  and  C_16
REMARK   12  A    between atoms: C_15  and  N_17
REMARK   13  A    between atoms: C_20  and  C_21
REMARK   14  A    between atoms: C_31  and  C_32
REMARK                            x       y       z     vdW  Elec       q    Type
REMARK                         _______ _______ _______ _____ _____    ______ ____
ROOT
ATOM      1  N   UNL     1       1.015  11.327  18.067  0.00  0.00    +0.000 N 
ATOM      2  C   UNL     1       1.295  10.137  18.758  0.00  0.00    +0.000 A 
ATOM      3  C   UNL     1       1.951   9.129  18.075  0.00  0.00    +0.000 A 
ATOM      4  C   UNL     1       2.206   7.949  18.749  0.00  0.00    +0.000 A 
ATOM      5  N   UNL     1       1.839   7.783  20.036  0.00  0.00    +0.000 NA
ATOM      6  C   UNL     1       1.217   8.812  20.632  0.00  0.00    +0.000 A 
ATOM      7  C   UNL     1       0.875   8.675  22.082  0.00  0.00    +0.000 C 
ATOM      8  N   UNL     1       0.917   9.979  20.035  0.00  0.00    +0.000 NA
ATOM      9  H   UNL     1       1.883  11.703  17.692  0.00  0.00    +0.000 HD
ENDROOT
BRANCH   4  10
ATOM     10  C   UNL     1       2.901   6.799  18.131  0.00  0.00    +0.000 A 
ATOM     11  C   UNL     1       2.336   5.513  18.180  0.00  0.00    +0.000 A 
ATOM     12  C   UNL     1       2.978   4.395  17.629  0.00  0.00    +0.000 A 
ATOM     13  C   UNL     1       4.233   4.545  17.011  0.00  0.00    +0.000 A 
ATOM     14  N   UNL     1       4.990   3.532  16.444  0.00  0.00    +0.000 NA
ATOM     15  C   UNL     1       6.109   4.034  15.975  0.00  0.00    +0.000 A 
ATOM     16  S   UNL     1       6.326   5.722  16.165  0.00  0.00    +0.000 S 
ATOM     17  C   UNL     1       4.798   5.820  16.959  0.00  0.00    +0.000 A 
ATOM     18  C   UNL     1       4.153   6.947  17.501  0.00  0.00    +0.000 A 
ENDBRANCH   4  10
BRANCH   1  19
ATOM     19  C   UNL     1       0.248  12.353  18.783  0.00  0.00    +0.000 C 
ATOM     20  C   UNL     1      -1.114  12.546  18.104  0.00  0.00    +0.000 C 
BRANCH  19  25
ATOM     21  C   UNL     1       3.295  14.659  18.914  0.00  0.00    +0.000 A 
ATOM     22  C   UNL     1       2.702  15.921  18.945  0.00  0.00    +0.000 A 
ATOM     23  C   UNL     1       1.316  16.051  18.902  0.00  0.00    +0.000 A 
ATOM     24  C   UNL     1       0.510  14.915  18.837  0.00  0.00    +0.000 A 
ATOM     25  C   UNL     1       1.079  13.634  18.826  0.00  0.00    +0.000 A 
ATOM     26  C   UNL     1       2.484  13.524  18.842  0.00  0.00    +0.000 A 
BRANCH  21  27
ATOM     27  O   UNL     1       4.661  14.668  18.969  0.00  0.00    +0.000 OA
BRANCH  27  28
ATOM     28  C   UNL     1       5.350  15.151  17.813  0.00  0.00    +0.000 C 
BRANCH  28  29
ATOM     29  C   UNL     1       6.698  14.444  17.756  0.00  0.00    +0.000 C 
BRANCH  29  30
ATOM     30  C   UNL     1       7.499  14.582  19.054  0.00  0.00    +0.000 C 
BRANCH  30  31
ATOM     31  N   UNL     1       8.962  14.643  18.879  0.00  0.00    +0.000 NA
BRANCH  31  33
ATOM     32  C   UNL     1      10.040  16.323  17.331  0.00  0.00    +0.000 C 
ATOM     33  C   UNL     1       9.440  16.026  18.702  0.00  0.00    +0.000 C 
ENDBRANCH  31  33
BRANCH  31  34
ATOM     34  C   UNL     1       9.659  13.899  19.945  0.00  0.00    +0.000 C 
ATOM     35  C   UNL     1      10.524  14.726  20.892  0.00  0.00    +0.000 C 
ENDBRANCH  31  34
ENDBRANCH  30  31
ENDBRANCH  29  30
ENDBRANCH  28  29
ENDBRANCH  27  28
ENDBRANCH  21  27
ENDBRANCH  19  25
ENDBRANCH   1  19
TORSDOF 10
ENDMDL
MODEL 7
REMARK VINA RESULT:      -7.3      3.674      9.745
REMARK  Name = 
REMARK  14 active torsions:
REMARK  status: ('A' for Active; 'I' for Inactive)
REMARK    1  A    between atoms: C_1  and  C_2
REMARK    2  A    between atoms: C_2  and  N_3
REMARK    3  A    between atoms: N_3  and  C_4
REMARK    4  A    between atoms: N_3  and  C_6
REMARK    5  A    between atoms: C_4  and  C_5
REMARK    6  A    between atoms: C_6  and  C_7
REMARK    7  A    between atoms: C_7  and  C_8
REMARK    8  A    between atoms: C_8  and  O_9
REMARK    9  A    between atoms: O_9  and  C_10
REMARK   10  A    between atoms: C_14  and  C_15
REMARK   11  A    between atoms: C_15  and  C_16
REMARK   12  A    between atoms: C_15  and  N_17
REMARK   13  A    between atoms: C_20  and  C_21
REMARK   14  A    between atoms: C_31  and  C_32
REMARK                            x       y       z     vdW  Elec       q    Type
REMARK                         _______ _______ _______ _____ _____    ______ ____
ROOT
ATOM      1  N   UNL     1       1.145  11.449  18.535  0.00  0.00    +0.000 N 
ATOM      2  C   UNL     1       1.102  10.411  19.481  0.00  0.00    +0.000 A 
ATOM      3  C   UNL     1       1.592   9.173  19.108  0.00  0.00    +0.000 A 
ATOM      4  C   UNL     1       1.529   8.146  20.032  0.00  0.00    +0.000 A 
ATOM      5  N   UNL     1       1.018   8.343  21.264  0.00  0.00    +0.000 NA
ATOM      6  C   UNL     1       0.574   9.576  21.553  0.00  0.00    +0.000 A 
ATOM      7  C   UNL     1       0.079   9.831  22.942  0.00  0.00    +0.000 C 
ATOM      8  N   UNL     1       0.584  10.615  20.700  0.00  0.00    +0.000 NA
ATOM      9  H   UNL     1       2.103  11.563  18.213  0.00  0.00    +0.000 HD
ENDROOT
BRANCH   4  10
ATOM     10  C   UNL     1       2.020   6.779  19.755  0.00  0.00    +0.000 A 
ATOM     11  C   UNL     1       1.802   5.742  20.679  0.00  0.00    +0.000 A 
ATOM     12  C   UNL     1       2.276   4.439  20.463  0.00  0.00    +0.000 A 
ATOM     13  C   UNL     1       3.002   4.146  19.295  0.00  0.00    +0.000 A 
ATOM     14  N   UNL     1       3.546   2.917  18.960  0.00  0.00    +0.000 NA
ATOM     15  C   UNL     1       4.167   3.014  17.807  0.00  0.00    +0.000 A 
ATOM     16  S   UNL     1       4.135   4.550  17.051  0.00  0.00    +0.000 S 
ATOM     17  C   UNL     1       3.220   5.171  18.374  0.00  0.00    +0.000 A 
ATOM     18  C   UNL     1       2.738   6.478  18.580  0.00  0.00    +0.000 A 
ENDBRANCH   4  10
BRANCH   1  19
ATOM     19  C   UNL     1       0.548  12.732  18.921  0.00  0.00    +0.000 C 
ATOM     20  C   UNL     1      -0.748  12.957  18.131  0.00  0.00    +0.000 C 
BRANCH  19  25
ATOM     21  C   UNL     1       3.914  14.420  18.257  0.00  0.00    +0.000 A 
ATOM     22  C   UNL     1       3.575  15.772  18.300  0.00  0.00    +0.000 A 
ATOM     23  C   UNL     1       2.256  16.162  18.522  0.00  0.00    +0.000 A 
ATOM     24  C   UNL     1       1.266  15.198  18.711  0.00  0.00    +0.000 A 
ATOM     25  C   UNL     1       1.583  13.833  18.693  0.00  0.00    +0.000 A 
ATOM     26  C   UNL     1       2.919  13.458  18.440  0.00  0.00    +0.000 A 
BRANCH  21  27
ATOM     27  O   UNL     1       5.241  14.172  18.040  0.00  0.00    +0.000 OA
BRANCH  27  28
ATOM     28  C   UNL     1       6.081  15.306  17.814  0.00  0.00    +0.000 C 
BRANCH  28  29
ATOM     29  C   UNL     1       7.338  15.121  18.655  0.00  0.00    +0.000 C 
BRANCH  29  30
ATOM     30  C   UNL     1       8.048  13.792  18.377  0.00  0.00    +0.000 C 
BRANCH  30  31
ATOM     31  N   UNL     1       9.447  13.917  17.926  0.00  0.00    +0.000 NA
BRANCH  31  33
ATOM     32  C   UNL     1      10.795  14.141  20.051  0.00  0.00    +0.000 C 
ATOM     33  C   UNL     1      10.231  14.808  18.799  0.00  0.00    +0.000 C 
ENDBRANCH  31  33
BRANCH  31  34
ATOM     34  C   UNL     1      10.060  12.593  17.714  0.00  0.00    +0.000 C 
ATOM     35  C   UNL     1       9.237  11.388  18.163  0.00  0.00    +0.000 C 
ENDBRANCH  31  34
ENDBRANCH  30  31
ENDBRANCH  29  30
ENDBRANCH  28  29
ENDBRANCH  27  28
ENDBRANCH  21  27
ENDBRANCH  19  25
ENDBRANCH   1  19
TORSDOF 10
ENDMDL
MODEL 8
REMARK VINA RESULT:      -7.3      0.869      1.462
REMARK  Name = 
REMARK  14 active torsions:
REMARK  status: ('A' for Active; 'I' for Inactive)
REMARK    1  A    between atoms: C_1  and  C_2
REMARK    2  A    between atoms: C_2  and  N_3
REMARK    3  A    between atoms: N_3  and  C_4
REMARK    4  A    between atoms: N_3  and  C_6
REMARK    5  A    between atoms: C_4  and  C_5
REMARK    6  A    between atoms: C_6  and  C_7
REMARK    7  A    between atoms: C_7  and  C_8
REMARK    8  A    between atoms: C_8  and  O_9
REMARK    9  A    between atoms: O_9  and  C_10
REMARK   10  A    between atoms: C_14  and  C_15
REMARK   11  A    between atoms: C_15  and  C_16
REMARK   12  A    between atoms: C_15  and  N_17
REMARK   13  A    between atoms: C_20  and  C_21
REMARK   14  A    between atoms: C_31  and  C_32
REMARK                            x       y       z     vdW  Elec       q    Type
REMARK                         _______ _______ _______ _____ _____    ______ ____
ROOT
ATOM      1  N   UNL     1       6.125   6.265  16.029  0.00  0.00    +0.000 N 
ATOM      2  C   UNL     1       6.939   6.685  17.094  0.00  0.00    +0.000 A 
ATOM      3  C   UNL     1       7.341   8.008  17.121  0.00  0.00    +0.000 A 
ATOM      4  C   UNL     1       8.161   8.415  18.157  0.00  0.00    +0.000 A 
ATOM      5  N   UNL     1       8.550   7.557  19.122  0.00  0.00    +0.000 NA
ATOM      6  C   UNL     1       8.108   6.293  19.030  0.00  0.00    +0.000 A 
ATOM      7  C   UNL     1       8.464   5.348  20.135  0.00  0.00    +0.000 C 
ATOM      8  N   UNL     1       7.327   5.821  18.043  0.00  0.00    +0.000 NA
ATOM      9  H   UNL     1       5.297   6.856  15.994  0.00  0.00    +0.000 HD
ENDROOT
BRANCH   4  10
ATOM     10  C   UNL     1       8.657   9.801  18.299  0.00  0.00    +0.000 A 
ATOM     11  C   UNL     1       8.117  10.836  17.517  0.00  0.00    +0.000 A 
ATOM     12  C   UNL     1       8.581  12.157  17.605  0.00  0.00    +0.000 A 
ATOM     13  C   UNL     1       9.625  12.472  18.492  0.00  0.00    +0.000 A 
ATOM     14  N   UNL     1      10.196  13.721  18.670  0.00  0.00    +0.000 NA
ATOM     15  C   UNL     1      11.153  13.641  19.566  0.00  0.00    +0.000 A 
ATOM     16  S   UNL     1      11.424  12.098  20.255  0.00  0.00    +0.000 S 
ATOM     17  C   UNL     1      10.165  11.448  19.272  0.00  0.00    +0.000 A 
ATOM     18  C   UNL     1       9.696  10.123  19.196  0.00  0.00    +0.000 A 
ENDBRANCH   4  10
BRANCH   1  19
ATOM     19  C   UNL     1       5.775   4.841  15.974  0.00  0.00    +0.000 C 
ATOM     20  C   UNL     1       5.721   4.380  14.512  0.00  0.00    +0.000 C 
BRANCH  19  25
ATOM     21  C   UNL     1       2.637   5.639  18.010  0.00  0.00    +0.000 A 
ATOM     22  C   UNL     1       2.038   4.384  18.122  0.00  0.00    +0.000 A 
ATOM     23  C   UNL     1       2.621   3.268  17.528  0.00  0.00    +0.000 A 
ATOM     24  C   UNL     1       3.816   3.397  16.821  0.00  0.00    +0.000 A 
ATOM     25  C   UNL     1       4.451   4.642  16.711  0.00  0.00    +0.000 A 
ATOM     26  C   UNL     1       3.831   5.765  17.296  0.00  0.00    +0.000 A 
BRANCH  21  27
ATOM     27  O   UNL     1       1.970   6.649  18.644  0.00  0.00    +0.000 OA
BRANCH  27  28
ATOM     28  C   UNL     1       1.752   7.848  17.896  0.00  0.00    +0.000 C 
BRANCH  28  29
ATOM     29  C   UNL     1       1.978   9.023  18.838  0.00  0.00    +0.000 C 
BRANCH  29  30
ATOM     30  C   UNL     1       1.489   8.747  20.263  0.00  0.00    +0.000 C 
BRANCH  30  31
ATOM     31  N   UNL     1       0.727   9.847  20.884  0.00  0.00    +0.000 NA
BRANCH  31  33
ATOM     32  C   UNL     1      -1.170  10.978  19.657  0.00  0.00    +0.000 C 
ATOM     33  C   UNL     1       0.333  10.870  19.899  0.00  0.00    +0.000 C 
ENDBRANCH  31  33
BRANCH  31  34
ATOM     34  C   UNL     1      -0.392   9.331  21.694  0.00  0.00    +0.000 C 
ATOM     35  C   UNL     1      -0.245   9.458  23.208  0.00  0.00    +0.000 C 
ENDBRANCH  31  34
ENDBRANCH  30  31
ENDBRANCH  29  30
ENDBRANCH  28  29
ENDBRANCH  27  28
ENDBRANCH  21  27
ENDBRANCH  19  25
ENDBRANCH   1  19
TORSDOF 10
ENDMDL
MODEL 9
REMARK VINA RESULT:      -7.2      3.378      9.245
REMARK  Name = 
REMARK  14 active torsions:
REMARK  status: ('A' for Active; 'I' for Inactive)
REMARK    1  A    between atoms: C_1  and  C_2
REMARK    2  A    between atoms: C_2  and  N_3
REMARK    3  A    between atoms: N_3  and  C_4
REMARK    4  A    between atoms: N_3  and  C_6
REMARK    5  A    between atoms: C_4  and  C_5
REMARK    6  A    between atoms: C_6  and  C_7
REMARK    7  A    between atoms: C_7  and  C_8
REMARK    8  A    between atoms: C_8  and  O_9
REMARK    9  A    between atoms: O_9  and  C_10
REMARK   10  A    between atoms: C_14  and  C_15
REMARK   11  A    between atoms: C_15  and  C_16
REMARK   12  A    between atoms: C_15  and  N_17
REMARK   13  A    between atoms: C_20  and  C_21
REMARK   14  A    between atoms: C_31  and  C_32
REMARK                            x       y       z     vdW  Elec       q    Type
REMARK                         _______ _______ _______ _____ _____    ______ ____
ROOT
ATOM      1  N   UNL     1       1.222  11.508  18.104  0.00  0.00    +0.000 N 
ATOM      2  C   UNL     1       1.420  10.294  18.783  0.00  0.00    +0.000 A 
ATOM      3  C   UNL     1       2.039   9.262  18.100  0.00  0.00    +0.000 A 
ATOM      4  C   UNL     1       2.213   8.060  18.762  0.00  0.00    +0.000 A 
ATOM      5  N   UNL     1       1.806   7.897  20.037  0.00  0.00    +0.000 NA
ATOM      6  C   UNL     1       1.225   8.949  20.634  0.00  0.00    +0.000 A 
ATOM      7  C   UNL     1       0.841   8.811  22.073  0.00  0.00    +0.000 C 
ATOM      8  N   UNL     1       1.004  10.139  20.048  0.00  0.00    +0.000 NA
ATOM      9  H   UNL     1       2.118  11.841  17.756  0.00  0.00    +0.000 HD
ENDROOT
BRANCH   4  10
ATOM     10  C   UNL     1       2.859   6.883  18.143  0.00  0.00    +0.000 A 
ATOM     11  C   UNL     1       2.261   5.614  18.227  0.00  0.00    +0.000 A 
ATOM     12  C   UNL     1       2.858   4.471  17.675  0.00  0.00    +0.000 A 
ATOM     13  C   UNL     1       4.099   4.578  17.023  0.00  0.00    +0.000 A 
ATOM     14  N   UNL     1       4.813   3.537  16.452  0.00  0.00    +0.000 NA
ATOM     15  C   UNL     1       5.933   4.001  15.947  0.00  0.00    +0.000 A 
ATOM     16  S   UNL     1       6.201   5.684  16.105  0.00  0.00    +0.000 S 
ATOM     17  C   UNL     1       4.698   5.835  16.937  0.00  0.00    +0.000 A 
ATOM     18  C   UNL     1       4.098   6.988  17.479  0.00  0.00    +0.000 A 
ENDBRANCH   4  10
BRANCH   1  19
ATOM     19  C   UNL     1       0.494  12.563  18.817  0.00  0.00    +0.000 C 
ATOM     20  C   UNL     1      -0.627  13.109  17.924  0.00  0.00    +0.000 C 
BRANCH  19  25
ATOM     21  C   UNL     1       3.459  14.973  18.668  0.00  0.00    +0.000 A 
ATOM     22  C   UNL     1       3.410  15.572  19.927  0.00  0.00    +0.000 A 
ATOM     23  C   UNL     1       2.411  15.226  20.834  0.00  0.00    +0.000 A 
ATOM     24  C   UNL     1       1.456  14.269  20.490  0.00  0.00    +0.000 A 
ATOM     25  C   UNL     1       1.495  13.637  19.240  0.00  0.00    +0.000 A 
ATOM     26  C   UNL     1       2.497  14.020  18.326  0.00  0.00    +0.000 A 
BRANCH  21  27
ATOM     27  O   UNL     1       4.491  15.393  17.876  0.00  0.00    +0.000 OA
BRANCH  27  28
ATOM     28  C   UNL     1       5.647  14.552  17.822  0.00  0.00    +0.000 C 
BRANCH  28  29
ATOM     29  C   UNL     1       6.859  15.419  18.134  0.00  0.00    +0.000 C 
BRANCH  29  30
ATOM     30  C   UNL     1       7.577  14.999  19.420  0.00  0.00    +0.000 C 
BRANCH  30  31
ATOM     31  N   UNL     1       8.400  13.781  19.304  0.00  0.00    +0.000 NA
BRANCH  31  33
ATOM     32  C   UNL     1       9.932  12.612  17.671  0.00  0.00    +0.000 C 
ATOM     33  C   UNL     1       9.457  13.925  18.287  0.00  0.00    +0.000 C 
ENDBRANCH  31  33
BRANCH  31  34
ATOM     34  C   UNL     1       8.892  13.341  20.623  0.00  0.00    +0.000 C 
ATOM     35  C   UNL     1      10.088  14.103  21.187  0.00  0.00    +0.000 C 
ENDBRANCH  31  34
ENDBRANCH  30  31
ENDBRANCH  29  30
ENDBRANCH  28  29
ENDBRANCH  27  28
ENDBRANCH  21  27
ENDBRANCH  19  25
ENDBRANCH   1  19
TORSDOF 10
ENDMDL
