MODEL 1
REMARK VINA RESULT:      -7.6      0.000      0.000
REMARK  Name = 
REMARK  11 active torsions:
REMARK  status: ('A' for Active; 'I' for Inactive)
REMARK    1  A    between atoms: O5*_1  and  C5*_2
REMARK    2  A    between atoms: C5*_2  and  C4*_3
REMARK    3  A    between atoms: C1*_5  and  N_6
REMARK    4  A    between atoms: N_11  and  C_12
REMARK    5  A    between atoms: N_19  and  C_20
REMARK    6  A    between atoms: C_20  and  C_21
REMARK    7  A    between atoms: C_21  and  O_22
REMARK    8  A    between atoms: O_22  and  C_23
REMARK    9  A    between atoms: C_23  and  C_24
REMARK   10  A    between atoms: C2*_32  and  O2*_33
REMARK   11  A    between atoms: C3*_34  and  O3*_35
REMARK                            x       y       z     vdW  Elec       q    Type
REMARK                         _______ _______ _______ _____ _____    ______ ____
ROOT
ATOM      1  N   UNL     1       3.469   6.354  18.026  0.00  0.00    +0.000 N 
ATOM      2  C   UNL     1       3.782   7.013  16.869  0.00  0.00    +0.000 A 
ATOM      3  N   UNL     1       3.295   8.240  16.844  0.00  0.00    +0.000 NA
ATOM      4  C   UNL     1       2.599   8.365  18.036  0.00  0.00    +0.000 A 
ATOM      5  C   UNL     1       1.835   9.413  18.589  0.00  0.00    +0.000 A 
ATOM      6  N   UNL     1       1.662  10.635  17.921  0.00  0.00    +0.000 N 
ATOM      7  N   UNL     1       1.213   9.164  19.776  0.00  0.00    +0.000 NA
ATOM      8  C   UNL     1       1.397   7.984  20.410  0.00  0.00    +0.000 A 
ATOM      9  N   UNL     1       0.682   7.692  21.559  0.00  0.00    +0.000 N 
ATOM     10  N   UNL     1       2.207   6.991  20.004  0.00  0.00    +0.000 NA
ATOM     11  C   UNL     1       2.728   7.219  18.792  0.00  0.00    +0.000 A 
ATOM     12  H   UNL     1       2.289  10.673  17.116  0.00  0.00    +0.000 HD
ATOM     13  H   UNL     1       1.325   7.417  22.293  0.00  0.00    +0.000 HD
ENDROOT
BRANCH   1  16
ATOM     14  C4* UNL     1       2.805   3.432  19.862  0.00  0.00    +0.000 C 
ATOM     15  O4* UNL     1       2.571   4.261  18.696  0.00  0.00    +0.000 OA
ATOM     16  C1* UNL     1       3.787   4.984  18.385  0.00  0.00    +0.000 C 
ATOM     17  C2* UNL     1       4.727   4.846  19.584  0.00  0.00    +0.000 C 
ATOM     18  C3* UNL     1       4.298   3.507  20.168  0.00  0.00    +0.000 C 
BRANCH  17  19
ATOM     19  O2* UNL     1       6.105   4.818  19.228  0.00  0.00    +0.000 OA
ATOM     20  H2* UNL     1       6.148   4.743  18.252  0.00  0.00    +0.000 HD
ENDBRANCH  17  19
BRANCH  18  21
ATOM     21  O3* UNL     1       5.012   2.457  19.480  0.00  0.00    +0.000 OA
ATOM     22  H3* UNL     1       4.496   1.631  19.535  0.00  0.00    +0.000 HD
ENDBRANCH  18  21
BRANCH  14  23
ATOM     23  C5* UNL     1       1.910   3.895  21.015  0.00  0.00    +0.000 C 
BRANCH  23  24
ATOM     24  O5* UNL     1       0.756   4.570  20.530  0.00  0.00    +0.000 OA
ATOM     25  H5* UNL     1       0.498   4.127  19.699  0.00  0.00    +0.000 HD
ENDBRANCH  23  24
ENDBRANCH  14  23
ENDBRANCH   1  16
BRANCH   6  26
ATOM     26  C   UNL     1       1.610  11.837  18.744  0.00  0.00    +0.000 C 
ATOM     27  C   UNL     1       2.508  12.936  18.164  0.00  0.00    +0.000 C 
ATOM     28  C   UNL     1       1.935  14.236  18.715  0.00  0.00    +0.000 C 
ATOM     29  C   UNL     1       0.449  13.975  18.932  0.00  0.00    +0.000 C 
ATOM     30  C   UNL     1       0.226  12.482  18.688  0.00  0.00    +0.000 C 
ENDBRANCH   6  26
BRANCH   9  31
ATOM     31  C   UNL     1      -0.381   8.596  21.953  0.00  0.00    +0.000 C 
BRANCH  31  32
ATOM     32  C   UNL     1       0.083   9.443  23.146  0.00  0.00    +0.000 C 
BRANCH  32  33
ATOM     33  O   UNL     1       0.157  10.817  22.752  0.00  0.00    +0.000 OA
BRANCH  33  34
ATOM     34  C   UNL     1      -1.035  11.238  22.095  0.00  0.00    +0.000 C 
BRANCH  34  35
ATOM     35  C   UNL     1      -1.706  12.309  22.916  0.00  0.00    +0.000 A 
ATOM     36  C   UNL     1      -1.018  13.489  23.242  0.00  0.00    +0.000 A 
ATOM     37  C   UNL     1      -1.644  14.493  23.983  0.00  0.00    +0.000 A 
ATOM     38  C   UNL     1      -2.962  14.334  24.404  0.00  0.00    +0.000 A 
ATOM     39  C   UNL     1      -3.656  13.165  24.086  0.00  0.00    +0.000 A 
ATOM     40  C   UNL     1      -3.032  12.160  23.347  0.00  0.00    +0.000 A 
ENDBRANCH  34  35
ENDBRANCH  33  34
ENDBRANCH  32  33
ENDBRANCH  31  32
ENDBRANCH   9  31
TORSDOF 11
ENDMDL
MODEL 2
REMARK VINA RESULT:      -7.4      1.393      2.427
REMARK  Name = 
REMARK  11 active torsions:
REMARK  status: ('A' for Active; 'I' for Inactive)
REMARK    1  A    between atoms: O5*_1  and  C5*_2
REMARK    2  A    between atoms: C5*_2  and  C4*_3
REMARK    3  A    between atoms: C1*_5  and  N_6
REMARK    4  A    between atoms: N_11  and  C_12
REMARK    5  A    between atoms: N_19  and  C_20
REMARK    6  A    between atoms: C_20  and  C_21
REMARK    7  A    between atoms: C_21  and  O_22
REMARK    8  A    between atoms: O_22  and  C_23
REMARK    9  A    between atoms: C_23  and  C_24
REMARK   10  A    between atoms: C2*_32  and  O2*_33
REMARK   11  A    between atoms: C3*_34  and  O3*_35
REMARK                            x       y       z     vdW  Elec       q    Type
REMARK                         _______ _______ _______ _____ _____    ______ ____
ROOT
ATOM      1  N   UNL     1       3.036   6.858  18.612  0.00  0.00    +0.000 N 
ATOM      2  C   UNL     1       3.302   7.421  17.394  0.00  0.00    +0.000 A 
ATOM      3  N   UNL     1       2.733   8.605  17.256  0.00  0.00    +0.000 NA
ATOM      4  C   UNL     1       2.033   8.798  18.436  0.00  0.00    +0.000 A 
ATOM      5  C   UNL     1       1.201   9.841  18.892  0.00  0.00    +0.000 A 
ATOM      6  N   UNL     1       0.946  10.979  18.111  0.00  0.00    +0.000 N 
ATOM      7  N   UNL     1       0.600   9.667  20.103  0.00  0.00    +0.000 NA
ATOM      8  C   UNL     1       0.863   8.568  20.845  0.00  0.00    +0.000 A 
ATOM      9  N   UNL     1       0.172   8.342  22.022  0.00  0.00    +0.000 N 
ATOM     10  N   UNL     1       1.737   7.597  20.530  0.00  0.00    +0.000 NA
ATOM     11  C   UNL     1       2.240   7.741  19.297  0.00  0.00    +0.000 A 
ATOM     12  H   UNL     1       1.568  10.981  17.301  0.00  0.00    +0.000 HD
ATOM     13  H   UNL     1       0.833   8.182  22.775  0.00  0.00    +0.000 HD
ENDROOT
BRANCH   1  16
ATOM     14  C4* UNL     1       5.419   4.286  18.858  0.00  0.00    +0.000 C 
ATOM     15  O4* UNL     1       4.874   5.541  19.338  0.00  0.00    +0.000 OA
ATOM     16  C1* UNL     1       3.445   5.553  19.098  0.00  0.00    +0.000 C 
ATOM     17  C2* UNL     1       3.127   4.396  18.148  0.00  0.00    +0.000 C 
ATOM     18  C3* UNL     1       4.233   3.404  18.476  0.00  0.00    +0.000 C 
BRANCH  17  19
ATOM     19  O2* UNL     1       1.848   3.811  18.370  0.00  0.00    +0.000 OA
ATOM     20  H2* UNL     1       1.238   4.192  17.703  0.00  0.00    +0.000 HD
ENDBRANCH  17  19
BRANCH  18  21
ATOM     21  O3* UNL     1       3.812   2.603  19.602  0.00  0.00    +0.000 OA
ATOM     22  H3* UNL     1       4.454   2.710  20.328  0.00  0.00    +0.000 HD
ENDBRANCH  18  21
BRANCH  14  23
ATOM     23  C5* UNL     1       6.393   4.551  17.706  0.00  0.00    +0.000 C 
BRANCH  23  24
ATOM     24  O5* UNL     1       7.727   4.228  18.079  0.00  0.00    +0.000 OA
ATOM     25  H5* UNL     1       7.680   3.787  18.948  0.00  0.00    +0.000 HD
ENDBRANCH  23  24
ENDBRANCH  14  23
ENDBRANCH   1  16
BRANCH   6  26
ATOM     26  C   UNL     1       0.816  12.248  18.815  0.00  0.00    +0.000 C 
ATOM     27  C   UNL     1       2.020  13.155  18.537  0.00  0.00    +0.000 C 
ATOM     28  C   UNL     1       1.513  14.567  18.802  0.00  0.00    +0.000 C 
ATOM     29  C   UNL     1       0.019  14.533  18.503  0.00  0.00    +0.000 C 
ATOM     30  C   UNL     1      -0.346  13.070  18.258  0.00  0.00    +0.000 C 
ENDBRANCH   6  26
BRANCH   9  31
ATOM     31  C   UNL     1      -0.949   9.207  22.337  0.00  0.00    +0.000 C 
BRANCH  31  32
ATOM     32  C   UNL     1      -0.513  10.254  23.372  0.00  0.00    +0.000 C 
BRANCH  32  33
ATOM     33  O   UNL     1      -0.438  11.539  22.743  0.00  0.00    +0.000 OA
BRANCH  33  34
ATOM     34  C   UNL     1      -1.371  12.454  23.311  0.00  0.00    +0.000 C 
BRANCH  34  35
ATOM     35  C   UNL     1      -2.564  12.583  22.400  0.00  0.00    +0.000 A 
ATOM     36  C   UNL     1      -2.399  12.542  21.006  0.00  0.00    +0.000 A 
ATOM     37  C   UNL     1      -3.504  12.638  20.158  0.00  0.00    +0.000 A 
ATOM     38  C   UNL     1      -4.785  12.772  20.689  0.00  0.00    +0.000 A 
ATOM     39  C   UNL     1      -4.960  12.814  22.074  0.00  0.00    +0.000 A 
ATOM     40  C   UNL     1      -3.857  12.719  22.923  0.00  0.00    +0.000 A 
ENDBRANCH  34  35
ENDBRANCH  33  34
ENDBRANCH  32  33
ENDBRANCH  31  32
ENDBRANCH   9  31
TORSDOF 11
ENDMDL
MODEL 3
REMARK VINA RESULT:      -7.4      0.900      1.209
REMARK  Name = 
REMARK  11 active torsions:
REMARK  status: ('A' for Active; 'I' for Inactive)
REMARK    1  A    between atoms: O5*_1  and  C5*_2
REMARK    2  A    between atoms: C5*_2  and  C4*_3
REMARK    3  A    between atoms: C1*_5  and  N_6
REMARK    4  A    between atoms: N_11  and  C_12
REMARK    5  A    between atoms: N_19  and  C_20
REMARK    6  A    between atoms: C_20  and  C_21
REMARK    7  A    between atoms: C_21  and  O_22
REMARK    8  A    between atoms: O_22  and  C_23
REMARK    9  A    between atoms: C_23  and  C_24
REMARK   10  A    between atoms: C2*_32  and  O2*_33
REMARK   11  A    between atoms: C3*_34  and  O3*_35
REMARK                            x       y       z     vdW  Elec       q    Type
REMARK                         _______ _______ _______ _____ _____    ______ ____
ROOT
ATOM      1  N   UNL     1       3.469   6.287  18.011  0.00  0.00    +0.000 N 
ATOM      2  C   UNL     1       3.797   6.935  16.851  0.00  0.00    +0.000 A 
ATOM      3  N   UNL     1       3.334   8.171  16.820  0.00  0.00    +0.000 NA
ATOM      4  C   UNL     1       2.639   8.315  18.010  0.00  0.00    +0.000 A 
ATOM      5  C   UNL     1       1.894   9.380  18.558  0.00  0.00    +0.000 A 
ATOM      6  N   UNL     1       1.747  10.603  17.884  0.00  0.00    +0.000 N 
ATOM      7  N   UNL     1       1.266   9.148  19.745  0.00  0.00    +0.000 NA
ATOM      8  C   UNL     1       1.425   7.967  20.384  0.00  0.00    +0.000 A 
ATOM      9  N   UNL     1       0.703   7.694  21.532  0.00  0.00    +0.000 N 
ATOM     10  N   UNL     1       2.217   6.957  19.983  0.00  0.00    +0.000 NA
ATOM     11  C   UNL     1       2.744   7.169  18.771  0.00  0.00    +0.000 A 
ATOM     12  H   UNL     1       2.375  10.625  17.080  0.00  0.00    +0.000 HD
ATOM     13  H   UNL     1       1.339   7.410  22.269  0.00  0.00    +0.000 HD
ENDROOT
BRANCH   1  16
ATOM     14  C4* UNL     1       2.767   3.399  19.885  0.00  0.00    +0.000 C 
ATOM     15  O4* UNL     1       2.531   4.224  18.717  0.00  0.00    +0.000 OA
ATOM     16  C1* UNL     1       3.759   4.913  18.375  0.00  0.00    +0.000 C 
ATOM     17  C2* UNL     1       4.719   4.761  19.557  0.00  0.00    +0.000 C 
ATOM     18  C3* UNL     1       4.268   3.439  20.161  0.00  0.00    +0.000 C 
BRANCH  17  19
ATOM     19  O2* UNL     1       6.089   4.695  19.174  0.00  0.00    +0.000 OA
ATOM     20  H2* UNL     1       6.237   3.805  18.790  0.00  0.00    +0.000 HD
ENDBRANCH  17  19
BRANCH  18  21
ATOM     21  O3* UNL     1       4.942   2.365  19.469  0.00  0.00    +0.000 OA
ATOM     22  H3* UNL     1       5.820   2.226  19.872  0.00  0.00    +0.000 HD
ENDBRANCH  18  21
BRANCH  14  23
ATOM     23  C5* UNL     1       1.908   3.895  21.052  0.00  0.00    +0.000 C 
BRANCH  23  24
ATOM     24  O5* UNL     1       2.095   3.085  22.206  0.00  0.00    +0.000 OA
ATOM     25  H5* UNL     1       1.349   3.271  22.807  0.00  0.00    +0.000 HD
ENDBRANCH  23  24
ENDBRANCH  14  23
ENDBRANCH   1  16
BRANCH   6  26
ATOM     26  C   UNL     1       1.717  11.808  18.702  0.00  0.00    +0.000 C 
ATOM     27  C   UNL     1       2.614  12.898  18.103  0.00  0.00    +0.000 C 
ATOM     28  C   UNL     1       2.060  14.204  18.657  0.00  0.00    +0.000 C 
ATOM     29  C   UNL     1       0.576  13.956  18.899  0.00  0.00    +0.000 C 
ATOM     30  C   UNL     1       0.338  12.464  18.666  0.00  0.00    +0.000 C 
ENDBRANCH   6  26
BRANCH   9  31
ATOM     31  C   UNL     1      -0.343   8.621  21.922  0.00  0.00    +0.000 C 
BRANCH  31  32
ATOM     32  C   UNL     1       0.131   9.453  23.122  0.00  0.00    +0.000 C 
BRANCH  32  33
ATOM     33  O   UNL     1      -0.843  10.462  23.412  0.00  0.00    +0.000 OA
BRANCH  33  34
ATOM     34  C   UNL     1      -0.757  11.551  22.496  0.00  0.00    +0.000 C 
BRANCH  34  35
ATOM     35  C   UNL     1      -2.127  12.148  22.301  0.00  0.00    +0.000 A 
ATOM     36  C   UNL     1      -3.006  12.275  23.388  0.00  0.00    +0.000 A 
ATOM     37  C   UNL     1      -4.267  12.849  23.216  0.00  0.00    +0.000 A 
ATOM     38  C   UNL     1      -4.665  13.305  21.961  0.00  0.00    +0.000 A 
ATOM     39  C   UNL     1      -3.798  13.183  20.873  0.00  0.00    +0.000 A 
ATOM     40  C   UNL     1      -2.538  12.609  21.042  0.00  0.00    +0.000 A 
ENDBRANCH  34  35
ENDBRANCH  33  34
ENDBRANCH  32  33
ENDBRANCH  31  32
ENDBRANCH   9  31
TORSDOF 11
ENDMDL
MODEL 4
REMARK VINA RESULT:      -7.4      0.832      1.204
REMARK  Name = 
REMARK  11 active torsions:
REMARK  status: ('A' for Active; 'I' for Inactive)
REMARK    1  A    between atoms: O5*_1  and  C5*_2
REMARK    2  A    between atoms: C5*_2  and  C4*_3
REMARK    3  A    between atoms: C1*_5  and  N_6
REMARK    4  A    between atoms: N_11  and  C_12
REMARK    5  A    between atoms: N_19  and  C_20
REMARK    6  A    between atoms: C_20  and  C_21
REMARK    7  A    between atoms: C_21  and  O_22
REMARK    8  A    between atoms: O_22  and  C_23
REMARK    9  A    between atoms: C_23  and  C_24
REMARK   10  A    between atoms: C2*_32  and  O2*_33
REMARK   11  A    between atoms: C3*_34  and  O3*_35
REMARK                            x       y       z     vdW  Elec       q    Type
REMARK                         _______ _______ _______ _____ _____    ______ ____
ROOT
ATOM      1  N   UNL     1       3.514   6.153  18.009  0.00  0.00    +0.000 N 
ATOM      2  C   UNL     1       3.875   6.793  16.855  0.00  0.00    +0.000 A 
ATOM      3  N   UNL     1       3.431   8.035  16.813  0.00  0.00    +0.000 NA
ATOM      4  C   UNL     1       2.713   8.192  17.987  0.00  0.00    +0.000 A 
ATOM      5  C   UNL     1       1.973   9.269  18.517  0.00  0.00    +0.000 A 
ATOM      6  N   UNL     1       1.857  10.492  17.838  0.00  0.00    +0.000 N 
ATOM      7  N   UNL     1       1.317   9.050  19.692  0.00  0.00    +0.000 NA
ATOM      8  C   UNL     1       1.446   7.868  20.336  0.00  0.00    +0.000 A 
ATOM      9  N   UNL     1       0.696   7.608  21.470  0.00  0.00    +0.000 N 
ATOM     10  N   UNL     1       2.231   6.845  19.954  0.00  0.00    +0.000 NA
ATOM     11  C   UNL     1       2.786   7.047  18.753  0.00  0.00    +0.000 A 
ATOM     12  H   UNL     1       2.503  10.504  17.047  0.00  0.00    +0.000 HD
ATOM     13  H   UNL     1       1.313   7.317  22.221  0.00  0.00    +0.000 HD
ENDROOT
BRANCH   1  16
ATOM     14  C4* UNL     1       2.705   3.265  19.841  0.00  0.00    +0.000 C 
ATOM     15  O4* UNL     1       2.530   4.094  18.665  0.00  0.00    +0.000 OA
ATOM     16  C1* UNL     1       3.777   4.775  18.383  0.00  0.00    +0.000 C 
ATOM     17  C2* UNL     1       4.679   4.613  19.608  0.00  0.00    +0.000 C 
ATOM     18  C3* UNL     1       4.191   3.293  20.187  0.00  0.00    +0.000 C 
BRANCH  17  19
ATOM     19  O2* UNL     1       6.065   4.538  19.289  0.00  0.00    +0.000 OA
ATOM     20  H2* UNL     1       6.440   3.797  19.811  0.00  0.00    +0.000 HD
ENDBRANCH  17  19
BRANCH  18  21
ATOM     21  O3* UNL     1       4.888   2.216  19.524  0.00  0.00    +0.000 OA
ATOM     22  H3* UNL     1       4.653   2.218  18.576  0.00  0.00    +0.000 HD
ENDBRANCH  18  21
BRANCH  14  23
ATOM     23  C5* UNL     1       1.796   3.764  20.967  0.00  0.00    +0.000 C 
BRANCH  23  24
ATOM     24  O5* UNL     1       0.617   4.366  20.446  0.00  0.00    +0.000 OA
ATOM     25  H5* UNL     1      -0.100   3.710  20.535  0.00  0.00    +0.000 HD
ENDBRANCH  23  24
ENDBRANCH  14  23
ENDBRANCH   1  16
BRANCH   6  26
ATOM     26  C   UNL     1       1.828  11.700  18.652  0.00  0.00    +0.000 C 
ATOM     27  C   UNL     1       2.664  12.813  18.010  0.00  0.00    +0.000 C 
ATOM     28  C   UNL     1       2.096  14.105  18.584  0.00  0.00    +0.000 C 
ATOM     29  C   UNL     1       0.633  13.814  18.894  0.00  0.00    +0.000 C 
ATOM     30  C   UNL     1       0.429  12.314  18.676  0.00  0.00    +0.000 C 
ENDBRANCH   6  26
BRANCH   9  31
ATOM     31  C   UNL     1      -0.344   8.550  21.836  0.00  0.00    +0.000 C 
BRANCH  31  32
ATOM     32  C   UNL     1       0.058   9.282  23.124  0.00  0.00    +0.000 C 
BRANCH  32  33
ATOM     33  O   UNL     1      -0.065  10.694  22.925  0.00  0.00    +0.000 OA
BRANCH  33  34
ATOM     34  C   UNL     1      -1.393  11.145  23.179  0.00  0.00    +0.000 C 
BRANCH  34  35
ATOM     35  C   UNL     1      -1.616  12.461  22.479  0.00  0.00    +0.000 A 
ATOM     36  C   UNL     1      -2.355  12.513  21.286  0.00  0.00    +0.000 A 
ATOM     37  C   UNL     1      -2.583  13.733  20.646  0.00  0.00    +0.000 A 
ATOM     38  C   UNL     1      -2.082  14.914  21.190  0.00  0.00    +0.000 A 
ATOM     39  C   UNL     1      -1.347  14.873  22.375  0.00  0.00    +0.000 A 
ATOM     40  C   UNL     1      -1.116  13.655  23.016  0.00  0.00    +0.000 A 
ENDBRANCH  34  35
ENDBRANCH  33  34
ENDBRANCH  32  33
ENDBRANCH  31  32
ENDBRANCH   9  31
TORSDOF 11
ENDMDL
MODEL 5
REMARK VINA RESULT:      -7.3      1.452      2.132
REMARK  Name = 
REMARK  11 active torsions:
REMARK  status: ('A' for Active; 'I' for Inactive)
REMARK    1  A    between atoms: O5*_1  and  C5*_2
REMARK    2  A    between atoms: C5*_2  and  C4*_3
REMARK    3  A    between atoms: C1*_5  and  N_6
REMARK    4  A    between atoms: N_11  and  C_12
REMARK    5  A    between atoms: N_19  and  C_20
REMARK    6  A    between atoms: C_20  and  C_21
REMARK    7  A    between atoms: C_21  and  O_22
REMARK    8  A    between atoms: O_22  and  C_23
REMARK    9  A    between atoms: C_23  and  C_24
REMARK   10  A    between atoms: C2*_32  and  O2*_33
REMARK   11  A    between atoms: C3*_34  and  O3*_35
REMARK                            x       y       z     vdW  Elec       q    Type
REMARK                         _______ _______ _______ _____ _____    ______ ____
ROOT
ATOM      1  N   UNL     1       3.185   6.837  18.267  0.00  0.00    +0.000 N 
ATOM      2  C   UNL     1       3.382   7.497  17.084  0.00  0.00    +0.000 A 
ATOM      3  N   UNL     1       2.784   8.674  17.063  0.00  0.00    +0.000 NA
ATOM      4  C   UNL     1       2.137   8.762  18.285  0.00  0.00    +0.000 A 
ATOM      5  C   UNL     1       1.307   9.747  18.857  0.00  0.00    +0.000 A 
ATOM      6  N   UNL     1       0.993  10.935  18.177  0.00  0.00    +0.000 N 
ATOM      7  N   UNL     1       0.768   9.469  20.078  0.00  0.00    +0.000 NA
ATOM      8  C   UNL     1       1.089   8.324  20.722  0.00  0.00    +0.000 A 
ATOM      9  N   UNL     1       0.459   7.994  21.909  0.00  0.00    +0.000 N 
ATOM     10  N   UNL     1       1.966   7.400  20.293  0.00  0.00    +0.000 NA
ATOM     11  C   UNL     1       2.406   7.648  19.053  0.00  0.00    +0.000 A 
ATOM     12  H   UNL     1       1.574  11.012  17.342  0.00  0.00    +0.000 HD
ATOM     13  H   UNL     1       1.159   7.794  22.616  0.00  0.00    +0.000 HD
ENDROOT
BRANCH   1  16
ATOM     14  C4* UNL     1       5.715   4.663  19.373  0.00  0.00    +0.000 C 
ATOM     15  O4* UNL     1       4.652   5.604  19.668  0.00  0.00    +0.000 OA
ATOM     16  C1* UNL     1       3.643   5.510  18.632  0.00  0.00    +0.000 C 
ATOM     17  C2* UNL     1       4.243   4.707  17.476  0.00  0.00    +0.000 C 
ATOM     18  C3* UNL     1       5.243   3.814  18.196  0.00  0.00    +0.000 C 
BRANCH  17  19
ATOM     19  O2* UNL     1       3.287   3.921  16.772  0.00  0.00    +0.000 OA
ATOM     20  H2* UNL     1       3.149   4.349  15.900  0.00  0.00    +0.000 HD
ENDBRANCH  17  19
BRANCH  18  21
ATOM     21  O3* UNL     1       4.551   2.635  18.664  0.00  0.00    +0.000 OA
ATOM     22  H3* UNL     1       5.196   2.030  19.077  0.00  0.00    +0.000 HD
ENDBRANCH  18  21
BRANCH  14  23
ATOM     23  C5* UNL     1       7.019   5.421  19.109  0.00  0.00    +0.000 C 
BRANCH  23  24
ATOM     24  O5* UNL     1       7.818   5.490  20.284  0.00  0.00    +0.000 OA
ATOM     25  H5* UNL     1       8.641   5.002  20.095  0.00  0.00    +0.000 HD
ENDBRANCH  23  24
ENDBRANCH  14  23
ENDBRANCH   1  16
BRANCH   6  26
ATOM     26  C   UNL     1       0.871  12.144  18.981  0.00  0.00    +0.000 C 
ATOM     27  C   UNL     1       1.631  13.309  18.336  0.00  0.00    +0.000 C 
ATOM     28  C   UNL     1       0.968  14.561  18.895  0.00  0.00    +0.000 C 
ATOM     29  C   UNL     1      -0.474  14.169  19.194  0.00  0.00    +0.000 C 
ATOM     30  C   UNL     1      -0.568  12.658  18.988  0.00  0.00    +0.000 C 
ENDBRANCH   6  26
BRANCH   9  31
ATOM     31  C   UNL     1      -0.662   8.807  22.340  0.00  0.00    +0.000 C 
BRANCH  31  32
ATOM     32  C   UNL     1      -0.195   9.789  23.424  0.00  0.00    +0.000 C 
BRANCH  32  33
ATOM     33  O   UNL     1      -0.410  11.131  22.971  0.00  0.00    +0.000 OA
BRANCH  33  34
ATOM     34  C   UNL     1      -1.785  11.495  23.047  0.00  0.00    +0.000 C 
BRANCH  34  35
ATOM     35  C   UNL     1      -1.928  12.968  22.762  0.00  0.00    +0.000 A 
ATOM     36  C   UNL     1      -0.937  13.871  23.181  0.00  0.00    +0.000 A 
ATOM     37  C   UNL     1      -1.055  15.233  22.899  0.00  0.00    +0.000 A 
ATOM     38  C   UNL     1      -2.158  15.710  22.195  0.00  0.00    +0.000 A 
ATOM     39  C   UNL     1      -3.148  14.822  21.774  0.00  0.00    +0.000 A 
ATOM     40  C   UNL     1      -3.034  13.460  22.055  0.00  0.00    +0.000 A 
ENDBRANCH  34  35
ENDBRANCH  33  34
ENDBRANCH  32  33
ENDBRANCH  31  32
ENDBRANCH   9  31
TORSDOF 11
ENDMDL
MODEL 6
REMARK VINA RESULT:      -7.3      1.123      1.936
REMARK  Name = 
REMARK  11 active torsions:
REMARK  status: ('A' for Active; 'I' for Inactive)
REMARK    1  A    between atoms: O5*_1  and  C5*_2
REMARK    2  A    between atoms: C5*_2  and  C4*_3
REMARK    3  A    between atoms: C1*_5  and  N_6
REMARK    4  A    between atoms: N_11  and  C_12
REMARK    5  A    between atoms: N_19  and  C_20
REMARK    6  A    between atoms: C_20  and  C_21
REMARK    7  A    between atoms: C_21  and  O_22
REMARK    8  A    between atoms: O_22  and  C_23
REMARK    9  A    between atoms: C_23  and  C_24
REMARK   10  A    between atoms: C2*_32  and  O2*_33
REMARK   11  A    between atoms: C3*_34  and  O3*_35
REMARK                            x       y       z     vdW  Elec       q    Type
REMARK                         _______ _______ _______ _____ _____    ______ ____
ROOT
ATOM      1  N   UNL     1       3.173   6.813  18.552  0.00  0.00    +0.000 N 
ATOM      2  C   UNL     1       3.419   7.403  17.343  0.00  0.00    +0.000 A 
ATOM      3  N   UNL     1       2.821   8.575  17.227  0.00  0.00    +0.000 NA
ATOM      4  C   UNL     1       2.123   8.732  18.413  0.00  0.00    +0.000 A 
ATOM      5  C   UNL     1       1.269   9.747  18.891  0.00  0.00    +0.000 A 
ATOM      6  N   UNL     1       0.982  10.891  18.130  0.00  0.00    +0.000 N 
ATOM      7  N   UNL     1       0.678   9.538  20.101  0.00  0.00    +0.000 NA
ATOM      8  C   UNL     1       0.972   8.434  20.824  0.00  0.00    +0.000 A 
ATOM      9  N   UNL     1       0.292   8.171  22.001  0.00  0.00    +0.000 N 
ATOM     10  N   UNL     1       1.867   7.489  20.488  0.00  0.00    +0.000 NA
ATOM     11  C   UNL     1       2.359   7.666  19.256  0.00  0.00    +0.000 A 
ATOM     12  H   UNL     1       1.599  10.922  17.317  0.00  0.00    +0.000 HD
ATOM     13  H   UNL     1       0.961   8.015  22.747  0.00  0.00    +0.000 HD
ENDROOT
BRANCH   1  16
ATOM     14  C4* UNL     1       4.859   3.778  18.009  0.00  0.00    +0.000 C 
ATOM     15  O4* UNL     1       4.883   5.174  18.399  0.00  0.00    +0.000 OA
ATOM     16  C1* UNL     1       3.615   5.511  19.014  0.00  0.00    +0.000 C 
ATOM     17  C2* UNL     1       2.641   4.369  18.717  0.00  0.00    +0.000 C 
ATOM     18  C3* UNL     1       3.579   3.178  18.586  0.00  0.00    +0.000 C 
BRANCH  17  19
ATOM     19  O2* UNL     1       1.691   4.146  19.754  0.00  0.00    +0.000 OA
ATOM     20  H2* UNL     1       0.823   4.459  19.420  0.00  0.00    +0.000 HD
ENDBRANCH  17  19
BRANCH  18  21
ATOM     21  O3* UNL     1       3.820   2.637  19.903  0.00  0.00    +0.000 OA
ATOM     22  H3* UNL     1       4.040   3.367  20.513  0.00  0.00    +0.000 HD
ENDBRANCH  18  21
BRANCH  14  23
ATOM     23  C5* UNL     1       4.966   3.663  16.486  0.00  0.00    +0.000 C 
BRANCH  23  24
ATOM     24  O5* UNL     1       5.413   4.885  15.910  0.00  0.00    +0.000 OA
ATOM     25  H5* UNL     1       5.354   4.781  14.942  0.00  0.00    +0.000 HD
ENDBRANCH  23  24
ENDBRANCH  14  23
ENDBRANCH   1  16
BRANCH   6  26
ATOM     26  C   UNL     1       0.825  12.145  18.856  0.00  0.00    +0.000 C 
ATOM     27  C   UNL     1       1.847  13.184  18.381  0.00  0.00    +0.000 C 
ATOM     28  C   UNL     1       1.229  14.529  18.741  0.00  0.00    +0.000 C 
ATOM     29  C   UNL     1      -0.280  14.315  18.704  0.00  0.00    +0.000 C 
ATOM     30  C   UNL     1      -0.505  12.815  18.515  0.00  0.00    +0.000 C 
ENDBRANCH   6  26
BRANCH   9  31
ATOM     31  C   UNL     1      -0.847   9.004  22.336  0.00  0.00    +0.000 C 
BRANCH  31  32
ATOM     32  C   UNL     1      -0.432  10.042  23.388  0.00  0.00    +0.000 C 
BRANCH  32  33
ATOM     33  O   UNL     1      -0.114  11.276  22.736  0.00  0.00    +0.000 OA
BRANCH  33  34
ATOM     34  C   UNL     1      -1.260  11.847  22.109  0.00  0.00    +0.000 C 
BRANCH  34  35
ATOM     35  C   UNL     1      -1.978  12.735  23.094  0.00  0.00    +0.000 A 
ATOM     36  C   UNL     1      -1.386  13.929  23.534  0.00  0.00    +0.000 A 
ATOM     37  C   UNL     1      -2.057  14.765  24.428  0.00  0.00    +0.000 A 
ATOM     38  C   UNL     1      -3.326  14.422  24.890  0.00  0.00    +0.000 A 
ATOM     39  C   UNL     1      -3.923  13.237  24.459  0.00  0.00    +0.000 A 
ATOM     40  C   UNL     1      -3.254  12.399  23.566  0.00  0.00    +0.000 A 
ENDBRANCH  34  35
ENDBRANCH  33  34
ENDBRANCH  32  33
ENDBRANCH  31  32
ENDBRANCH   9  31
TORSDOF 11
ENDMDL
MODEL 7
REMARK VINA RESULT:      -7.1      1.412      2.371
REMARK  Name = 
REMARK  11 active torsions:
REMARK  status: ('A' for Active; 'I' for Inactive)
REMARK    1  A    between atoms: O5*_1  and  C5*_2
REMARK    2  A    between atoms: C5*_2  and  C4*_3
REMARK    3  A    between atoms: C1*_5  and  N_6
REMARK    4  A    between atoms: N_11  and  C_12
REMARK    5  A    between atoms: N_19  and  C_20
REMARK    6  A    between atoms: C_20  and  C_21
REMARK    7  A    between atoms: C_21  and  O_22
REMARK    8  A    between atoms: O_22  and  C_23
REMARK    9  A    between atoms: C_23  and  C_24
REMARK   10  A    between atoms: C2*_32  and  O2*_33
REMARK   11  A    between atoms: C3*_34  and  O3*_35
REMARK                            x       y       z     vdW  Elec       q    Type
REMARK                         _______ _______ _______ _____ _____    ______ ____
ROOT
ATOM      1  N   UNL     1       3.144   6.824  18.363  0.00  0.00    +0.000 N 
ATOM      2  C   UNL     1       3.343   7.440  17.157  0.00  0.00    +0.000 A 
ATOM      3  N   UNL     1       2.750   8.618  17.094  0.00  0.00    +0.000 NA
ATOM      4  C   UNL     1       2.104   8.752  18.312  0.00  0.00    +0.000 A 
ATOM      5  C   UNL     1       1.279   9.761  18.850  0.00  0.00    +0.000 A 
ATOM      6  N   UNL     1       0.969  10.925  18.128  0.00  0.00    +0.000 N 
ATOM      7  N   UNL     1       0.739   9.529  20.079  0.00  0.00    +0.000 NA
ATOM      8  C   UNL     1       1.055   8.406  20.763  0.00  0.00    +0.000 A 
ATOM      9  N   UNL     1       0.424   8.121  21.961  0.00  0.00    +0.000 N 
ATOM     10  N   UNL     1       1.928   7.463  20.368  0.00  0.00    +0.000 NA
ATOM     11  C   UNL     1       2.368   7.665  19.120  0.00  0.00    +0.000 A 
ATOM     12  H   UNL     1       1.551  10.970  17.290  0.00  0.00    +0.000 HD
ATOM     13  H   UNL     1       1.123   7.943  22.675  0.00  0.00    +0.000 HD
ENDROOT
BRANCH   1  16
ATOM     14  C4* UNL     1       5.731   4.556  19.079  0.00  0.00    +0.000 C 
ATOM     15  O4* UNL     1       4.844   5.620  19.503  0.00  0.00    +0.000 OA
ATOM     16  C1* UNL     1       3.596   5.508  18.775  0.00  0.00    +0.000 C 
ATOM     17  C2* UNL     1       3.822   4.526  17.623  0.00  0.00    +0.000 C 
ATOM     18  C3* UNL     1       4.916   3.629  18.181  0.00  0.00    +0.000 C 
BRANCH  17  19
ATOM     19  O2* UNL     1       2.667   3.761  17.292  0.00  0.00    +0.000 OA
ATOM     20  H2* UNL     1       2.672   2.970  17.871  0.00  0.00    +0.000 HD
ENDBRANCH  17  19
BRANCH  18  21
ATOM     21  O3* UNL     1       4.297   2.581  18.960  0.00  0.00    +0.000 OA
ATOM     22  H3* UNL     1       3.516   2.944  19.419  0.00  0.00    +0.000 HD
ENDBRANCH  18  21
BRANCH  14  23
ATOM     23  C5* UNL     1       6.967   5.151  18.398  0.00  0.00    +0.000 C 
BRANCH  23  24
ATOM     24  O5* UNL     1       7.568   4.212  17.515  0.00  0.00    +0.000 OA
ATOM     25  H5* UNL     1       6.844   3.690  17.120  0.00  0.00    +0.000 HD
ENDBRANCH  23  24
ENDBRANCH  14  23
ENDBRANCH   1  16
BRANCH   6  26
ATOM     26  C   UNL     1       0.853  12.162  18.888  0.00  0.00    +0.000 C 
ATOM     27  C   UNL     1       1.849  13.212  18.381  0.00  0.00    +0.000 C 
ATOM     28  C   UNL     1       1.253  14.548  18.804  0.00  0.00    +0.000 C 
ATOM     29  C   UNL     1      -0.256  14.336  18.843  0.00  0.00    +0.000 C 
ATOM     30  C   UNL     1      -0.493  12.840  18.634  0.00  0.00    +0.000 C 
ENDBRANCH   6  26
BRANCH   9  31
ATOM     31  C   UNL     1      -0.694   8.953  22.364  0.00  0.00    +0.000 C 
BRANCH  31  32
ATOM     32  C   UNL     1      -0.171  10.312  22.851  0.00  0.00    +0.000 C 
BRANCH  32  33
ATOM     33  O   UNL     1      -1.235  11.029  23.485  0.00  0.00    +0.000 OA
BRANCH  33  34
ATOM     34  C   UNL     1      -1.536  12.239  22.796  0.00  0.00    +0.000 C 
BRANCH  34  35
ATOM     35  C   UNL     1      -3.020  12.491  22.852  0.00  0.00    +0.000 A 
ATOM     36  C   UNL     1      -3.687  12.525  24.087  0.00  0.00    +0.000 A 
ATOM     37  C   UNL     1      -5.059  12.781  24.145  0.00  0.00    +0.000 A 
ATOM     38  C   UNL     1      -5.779  13.008  22.974  0.00  0.00    +0.000 A 
ATOM     39  C   UNL     1      -5.125  12.977  21.741  0.00  0.00    +0.000 A 
ATOM     40  C   UNL     1      -3.755  12.721  21.681  0.00  0.00    +0.000 A 
ENDBRANCH  34  35
ENDBRANCH  33  34
ENDBRANCH  32  33
ENDBRANCH  31  32
ENDBRANCH   9  31
TORSDOF 11
ENDMDL
MODEL 8
REMARK VINA RESULT:      -7.1      4.258      9.221
REMARK  Name = 
REMARK  11 active torsions:
REMARK  status: ('A' for Active; 'I' for Inactive)
REMARK    1  A    between atoms: O5*_1  and  C5*_2
REMARK    2  A    between atoms: C5*_2  and  C4*_3
REMARK    3  A    between atoms: C1*_5  and  N_6
REMARK    4  A    between atoms: N_11  and  C_12
REMARK    5  A    between atoms: N_19  and  C_20
REMARK    6  A    between atoms: C_20  and  C_21
REMARK    7  A    between atoms: C_21  and  O_22
REMARK    8  A    between atoms: O_22  and  C_23
REMARK    9  A    between atoms: C_23  and  C_24
REMARK   10  A    between atoms: C2*_32  and  O2*_33
REMARK   11  A    between atoms: C3*_34  and  O3*_35
REMARK                            x       y       z     vdW  Elec       q    Type
REMARK                         _______ _______ _______ _____ _____    ______ ____
ROOT
ATOM      1  N   UNL     1      -3.785  12.654  19.865  0.00  0.00    +0.000 N 
ATOM      2  C   UNL     1      -3.849  13.783  20.635  0.00  0.00    +0.000 A 
ATOM      3  N   UNL     1      -2.658  14.305  20.858  0.00  0.00    +0.000 NA
ATOM      4  C   UNL     1      -1.774  13.446  20.225  0.00  0.00    +0.000 A 
ATOM      5  C   UNL     1      -0.368  13.430  20.120  0.00  0.00    +0.000 A 
ATOM      6  N   UNL     1       0.429  14.422  20.714  0.00  0.00    +0.000 N 
ATOM      7  N   UNL     1       0.192  12.371  19.471  0.00  0.00    +0.000 NA
ATOM      8  C   UNL     1      -0.591  11.429  18.899  0.00  0.00    +0.000 A 
ATOM      9  N   UNL     1      -0.023  10.301  18.334  0.00  0.00    +0.000 N 
ATOM     10  N   UNL     1      -1.935  11.445  18.852  0.00  0.00    +0.000 NA
ATOM     11  C   UNL     1      -2.460  12.440  19.578  0.00  0.00    +0.000 A 
ATOM     12  H   UNL     1      -0.166  15.180  21.050  0.00  0.00    +0.000 HD
ATOM     13  H   UNL     1      -0.360  10.195  17.383  0.00  0.00    +0.000 HD
ENDROOT
BRANCH   1  16
ATOM     14  C4* UNL     1      -6.477  11.905  17.734  0.00  0.00    +0.000 C 
ATOM     15  O4* UNL     1      -5.058  11.858  18.026  0.00  0.00    +0.000 OA
ATOM     16  C1* UNL     1      -4.877  11.788  19.461  0.00  0.00    +0.000 C 
ATOM     17  C2* UNL     1      -6.221  12.119  20.113  0.00  0.00    +0.000 C 
ATOM     18  C3* UNL     1      -7.209  11.659  19.051  0.00  0.00    +0.000 C 
BRANCH  17  19
ATOM     19  O2* UNL     1      -6.446  11.430  21.339  0.00  0.00    +0.000 OA
ATOM     20  H2* UNL     1      -5.606  11.462  21.844  0.00  0.00    +0.000 HD
ENDBRANCH  17  19
BRANCH  18  21
ATOM     21  O3* UNL     1      -7.460  10.249  19.239  0.00  0.00    +0.000 OA
ATOM     22  H3* UNL     1      -8.303  10.135  19.717  0.00  0.00    +0.000 HD
ENDBRANCH  18  21
BRANCH  14  23
ATOM     23  C5* UNL     1      -6.826  13.239  17.069  0.00  0.00    +0.000 C 
BRANCH  23  24
ATOM     24  O5* UNL     1      -6.285  14.333  17.800  0.00  0.00    +0.000 OA
ATOM     25  H5* UNL     1      -6.259  15.095  17.191  0.00  0.00    +0.000 HD
ENDBRANCH  23  24
ENDBRANCH  14  23
ENDBRANCH   1  16
BRANCH   6  26
ATOM     26  C   UNL     1       1.627  14.829  19.990  0.00  0.00    +0.000 C 
ATOM     27  C   UNL     1       1.273  15.767  18.830  0.00  0.00    +0.000 C 
ATOM     28  C   UNL     1       2.552  16.549  18.560  0.00  0.00    +0.000 C 
ATOM     29  C   UNL     1       3.288  16.613  19.893  0.00  0.00    +0.000 C 
ATOM     30  C   UNL     1       2.524  15.708  20.859  0.00  0.00    +0.000 C 
ENDBRANCH   6  26
BRANCH   9  31
ATOM     31  C   UNL     1       1.396  10.076  18.531  0.00  0.00    +0.000 C 
BRANCH  31  32
ATOM     32  C   UNL     1       1.820   8.799  17.790  0.00  0.00    +0.000 C 
BRANCH  32  33
ATOM     33  O   UNL     1       2.424   7.892  18.717  0.00  0.00    +0.000 OA
BRANCH  33  34
ATOM     34  C   UNL     1       2.911   6.722  18.064  0.00  0.00    +0.000 C 
BRANCH  34  35
ATOM     35  C   UNL     1       2.248   5.506  18.657  0.00  0.00    +0.000 A 
ATOM     36  C   UNL     1       1.960   5.455  20.030  0.00  0.00    +0.000 A 
ATOM     37  C   UNL     1       1.325   4.339  20.580  0.00  0.00    +0.000 A 
ATOM     38  C   UNL     1       0.968   3.265  19.768  0.00  0.00    +0.000 A 
ATOM     39  C   UNL     1       1.250   3.306  18.401  0.00  0.00    +0.000 A 
ATOM     40  C   UNL     1       1.885   4.419  17.850  0.00  0.00    +0.000 A 
ENDBRANCH  34  35
ENDBRANCH  33  34
ENDBRANCH  32  33
ENDBRANCH  31  32
ENDBRANCH   9  31
TORSDOF 11
ENDMDL
MODEL 9
REMARK VINA RESULT:      -7.0      1.474      2.411
REMARK  Name = 
REMARK  11 active torsions:
REMARK  status: ('A' for Active; 'I' for Inactive)
REMARK    1  A    between atoms: O5*_1  and  C5*_2
REMARK    2  A    between atoms: C5*_2  and  C4*_3
REMARK    3  A    between atoms: C1*_5  and  N_6
REMARK    4  A    between atoms: N_11  and  C_12
REMARK    5  A    between atoms: N_19  and  C_20
REMARK    6  A    between atoms: C_20  and  C_21
REMARK    7  A    between atoms: C_21  and  O_22
REMARK    8  A    between atoms: O_22  and  C_23
REMARK    9  A    between atoms: C_23  and  C_24
REMARK   10  A    between atoms: C2*_32  and  O2*_33
REMARK   11  A    between atoms: C3*_34  and  O3*_35
REMARK                            x       y       z     vdW  Elec       q    Type
REMARK                         _______ _______ _______ _____ _____    ______ ____
ROOT
ATOM      1  N   UNL     1       3.093   6.921  18.262  0.00  0.00    +0.000 N 
ATOM      2  C   UNL     1       3.313   7.559  17.071  0.00  0.00    +0.000 A 
ATOM      3  N   UNL     1       2.746   8.750  17.030  0.00  0.00    +0.000 NA
ATOM      4  C   UNL     1       2.096   8.872  18.247  0.00  0.00    +0.000 A 
ATOM      5  C   UNL     1       1.289   9.887  18.802  0.00  0.00    +0.000 A 
ATOM      6  N   UNL     1       1.009  11.072  18.104  0.00  0.00    +0.000 N 
ATOM      7  N   UNL     1       0.736   9.640  20.022  0.00  0.00    +0.000 NA
ATOM      8  C   UNL     1       1.023   8.496  20.684  0.00  0.00    +0.000 A 
ATOM      9  N   UNL     1       0.379   8.198  21.872  0.00  0.00    +0.000 N 
ATOM     10  N   UNL     1       1.878   7.543  20.273  0.00  0.00    +0.000 NA
ATOM     11  C   UNL     1       2.331   7.762  19.032  0.00  0.00    +0.000 A 
ATOM     12  H   UNL     1       1.596  11.123  17.270  0.00  0.00    +0.000 HD
ATOM     13  H   UNL     1       1.069   7.990  22.585  0.00  0.00    +0.000 HD
ENDROOT
BRANCH   1  16
ATOM     14  C4* UNL     1       4.961   4.004  17.669  0.00  0.00    +0.000 C 
ATOM     15  O4* UNL     1       4.872   5.350  18.201  0.00  0.00    +0.000 OA
ATOM     16  C1* UNL     1       3.515   5.587  18.648  0.00  0.00    +0.000 C 
ATOM     17  C2* UNL     1       2.641   4.462  18.090  0.00  0.00    +0.000 C 
ATOM     18  C3* UNL     1       3.635   3.315  17.981  0.00  0.00    +0.000 C 
BRANCH  17  19
ATOM     19  O2* UNL     1       1.557   4.105  18.943  0.00  0.00    +0.000 OA
ATOM     20  H2* UNL     1       1.727   4.524  19.813  0.00  0.00    +0.000 HD
ENDBRANCH  17  19
BRANCH  18  21
ATOM     21  O3* UNL     1       3.699   2.640  19.256  0.00  0.00    +0.000 OA
ATOM     22  H3* UNL     1       4.324   3.115  19.837  0.00  0.00    +0.000 HD
ENDBRANCH  18  21
BRANCH  14  23
ATOM     23  C5* UNL     1       5.298   4.057  16.176  0.00  0.00    +0.000 C 
BRANCH  23  24
ATOM     24  O5* UNL     1       6.072   2.929  15.785  0.00  0.00    +0.000 OA
ATOM     25  H5* UNL     1       7.003   3.218  15.765  0.00  0.00    +0.000 HD
ENDBRANCH  23  24
ENDBRANCH  14  23
ENDBRANCH   1  16
BRANCH   6  26
ATOM     26  C   UNL     1       0.914  12.296  18.890  0.00  0.00    +0.000 C 
ATOM     27  C   UNL     1       1.934  13.334  18.411  0.00  0.00    +0.000 C 
ATOM     28  C   UNL     1       1.364  14.674  18.859  0.00  0.00    +0.000 C 
ATOM     29  C   UNL     1      -0.149  14.492  18.887  0.00  0.00    +0.000 C 
ATOM     30  C   UNL     1      -0.416  13.007  18.644  0.00  0.00    +0.000 C 
ENDBRANCH   6  26
BRANCH   9  31
ATOM     31  C   UNL     1      -0.723   9.046  22.285  0.00  0.00    +0.000 C 
BRANCH  31  32
ATOM     32  C   UNL     1      -0.251   9.994  23.397  0.00  0.00    +0.000 C 
BRANCH  32  33
ATOM     33  O   UNL     1      -1.186  11.070  23.530  0.00  0.00    +0.000 OA
BRANCH  33  34
ATOM     34  C   UNL     1      -1.286  11.828  22.328  0.00  0.00    +0.000 C 
BRANCH  34  35
ATOM     35  C   UNL     1      -2.681  12.386  22.204  0.00  0.00    +0.000 A 
ATOM     36  C   UNL     1      -3.496  12.517  23.340  0.00  0.00    +0.000 A 
ATOM     37  C   UNL     1      -4.780  13.054  23.232  0.00  0.00    +0.000 A 
ATOM     38  C   UNL     1      -5.264  13.470  21.994  0.00  0.00    +0.000 A 
ATOM     39  C   UNL     1      -4.461  13.345  20.859  0.00  0.00    +0.000 A 
ATOM     40  C   UNL     1      -3.178  12.808  20.963  0.00  0.00    +0.000 A 
ENDBRANCH  34  35
ENDBRANCH  33  34
ENDBRANCH  32  33
ENDBRANCH  31  32
ENDBRANCH   9  31
TORSDOF 11
ENDMDL
