MODEL 1
REMARK VINA RESULT:      -7.7      0.000      0.000
REMARK  Name = 
REMARK  5 active torsions:
REMARK  status: ('A' for Active; 'I' for Inactive)
REMARK    1  A    between atoms: C_1  and  C_2
REMARK    2  A    between atoms: C_2  and  N_3
REMARK    3  A    between atoms: C_2  and  C_13
REMARK    4  A    between atoms: C_4  and  C_6
REMARK    5  A    between atoms: C_6  and  C_7
REMARK                            x       y       z     vdW  Elec       q    Type
REMARK                         _______ _______ _______ _____ _____    ______ ____
ROOT
ATOM      1  C   UNL     1       7.194   5.944  15.673  0.00  0.00    +0.000 C 
ATOM      2  C   UNL     1       7.061   6.511  17.091  0.00  0.00    +0.000 C 
ENDROOT
BRANCH   2   3
ATOM      3  C   UNL     1       5.931   5.916  17.926  0.00  0.00    +0.000 A 
ATOM      4  C   UNL     1       4.583   5.898  17.502  0.00  0.00    +0.000 A 
ATOM      5  C   UNL     1       3.701   4.924  17.995  0.00  0.00    +0.000 A 
ATOM      6  C   UNL     1       4.209   3.903  18.791  0.00  0.00    +0.000 A 
ATOM      7  C   UNL     1       5.442   4.058  19.409  0.00  0.00    +0.000 A 
ATOM      8  C   UNL     1       6.270   5.110  19.037  0.00  0.00    +0.000 A 
ATOM      9 BR   UNL     1       7.901   5.294  19.993  0.00  0.00    +0.000 Br
ATOM     10  O   UNL     1       3.744   2.619  18.706  0.00  0.00    +0.000 OA
ATOM     11  C   UNL     1       2.496   2.368  19.325  0.00  0.00    +0.000 C 
ATOM     12  C   UNL     1       1.321   3.036  18.633  0.00  0.00    +0.000 C 
ATOM     13  C   UNL     1       1.481   4.549  18.609  0.00  0.00    +0.000 C 
ATOM     14  O   UNL     1       2.397   4.962  17.577  0.00  0.00    +0.000 OA
ENDBRANCH   2   3
BRANCH   2  15
ATOM     15  N   UNL     1       7.120   7.961  17.091  0.00  0.00    +0.000 N 
ATOM     16  C   UNL     1       8.025   8.600  17.923  0.00  0.00    +0.000 C 
ATOM     17  O   UNL     1       8.743   7.994  18.719  0.00  0.00    +0.000 OA
ATOM     18  H   UNL     1       6.690   8.472  16.331  0.00  0.00    +0.000 HD
BRANCH  16  19
ATOM     19  C   UNL     1       8.080  10.112  17.806  0.00  0.00    +0.000 C 
BRANCH  19  20
ATOM     20  C   UNL     1       9.258  10.728  18.527  0.00  0.00    +0.000 A 
ATOM     21  C   UNL     1      10.384  11.152  17.811  0.00  0.00    +0.000 A 
ATOM     22  C   UNL     1      11.467  11.739  18.472  0.00  0.00    +0.000 A 
ATOM     23  C   UNL     1      11.432  11.916  19.853  0.00  0.00    +0.000 A 
ATOM     24  C   UNL     1      10.311  11.517  20.575  0.00  0.00    +0.000 A 
ATOM     25  C   UNL     1       9.226  10.929  19.915  0.00  0.00    +0.000 A 
ENDBRANCH  19  20
ENDBRANCH  16  19
ENDBRANCH   2  15
TORSDOF 4
ENDMDL
MODEL 2
REMARK VINA RESULT:      -7.6      5.131      7.580
REMARK  Name = 
REMARK  5 active torsions:
REMARK  status: ('A' for Active; 'I' for Inactive)
REMARK    1  A    between atoms: C_1  and  C_2
REMARK    2  A    between atoms: C_2  and  N_3
REMARK    3  A    between atoms: C_2  and  C_13
REMARK    4  A    between atoms: C_4  and  C_6
REMARK    5  A    between atoms: C_6  and  C_7
REMARK                            x       y       z     vdW  Elec       q    Type
REMARK                         _______ _______ _______ _____ _____    ______ ____
ROOT
ATOM      1  C   UNL     1       2.127   4.564  21.304  0.00  0.00    +0.000 C 
ATOM      2  C   UNL     1       1.854   5.650  20.256  0.00  0.00    +0.000 C 
ENDROOT
BRANCH   2   3
ATOM      3  C   UNL     1       2.424   5.372  18.869  0.00  0.00    +0.000 A 
ATOM      4  C   UNL     1       3.355   6.223  18.232  0.00  0.00    +0.000 A 
ATOM      5  C   UNL     1       4.230   5.711  17.261  0.00  0.00    +0.000 A 
ATOM      6  C   UNL     1       4.257   4.337  17.043  0.00  0.00    +0.000 A 
ATOM      7  C   UNL     1       3.193   3.551  17.462  0.00  0.00    +0.000 A 
ATOM      8  C   UNL     1       2.232   4.089  18.308  0.00  0.00    +0.000 A 
ATOM      9 BR   UNL     1       0.768   2.967  18.763  0.00  0.00    +0.000 Br
ATOM     10  O   UNL     1       5.421   3.669  16.777  0.00  0.00    +0.000 OA
ATOM     11  C   UNL     1       5.928   3.803  15.462  0.00  0.00    +0.000 C 
ATOM     12  C   UNL     1       6.437   5.197  15.139  0.00  0.00    +0.000 C 
ATOM     13  C   UNL     1       5.331   6.233  15.270  0.00  0.00    +0.000 C 
ATOM     14  O   UNL     1       5.097   6.577  16.650  0.00  0.00    +0.000 OA
ENDBRANCH   2   3
BRANCH   2  15
ATOM     15  N   UNL     1       2.137   6.975  20.778  0.00  0.00    +0.000 N 
ATOM     16  C   UNL     1       1.090   7.753  21.246  0.00  0.00    +0.000 C 
ATOM     17  O   UNL     1      -0.088   7.398  21.179  0.00  0.00    +0.000 OA
ATOM     18  H   UNL     1       3.089   7.217  21.018  0.00  0.00    +0.000 HD
BRANCH  16  19
ATOM     19  C   UNL     1       1.477   9.091  21.847  0.00  0.00    +0.000 C 
BRANCH  19  20
ATOM     20  C   UNL     1       0.344  10.093  21.861  0.00  0.00    +0.000 A 
ATOM     21  C   UNL     1      -0.435  10.266  23.011  0.00  0.00    +0.000 A 
ATOM     22  C   UNL     1      -1.470  11.205  23.034  0.00  0.00    +0.000 A 
ATOM     23  C   UNL     1      -1.731  11.986  21.912  0.00  0.00    +0.000 A 
ATOM     24  C   UNL     1      -0.952  11.840  20.767  0.00  0.00    +0.000 A 
ATOM     25  C   UNL     1       0.085  10.901  20.743  0.00  0.00    +0.000 A 
ENDBRANCH  19  20
ENDBRANCH  16  19
ENDBRANCH   2  15
TORSDOF 4
ENDMDL
MODEL 3
REMARK VINA RESULT:      -7.6      5.217      7.822
REMARK  Name = 
REMARK  5 active torsions:
REMARK  status: ('A' for Active; 'I' for Inactive)
REMARK    1  A    between atoms: C_1  and  C_2
REMARK    2  A    between atoms: C_2  and  N_3
REMARK    3  A    between atoms: C_2  and  C_13
REMARK    4  A    between atoms: C_4  and  C_6
REMARK    5  A    between atoms: C_6  and  C_7
REMARK                            x       y       z     vdW  Elec       q    Type
REMARK                         _______ _______ _______ _____ _____    ______ ____
ROOT
ATOM      1  C   UNL     1       1.582   5.213  20.763  0.00  0.00    +0.000 C 
ATOM      2  C   UNL     1       1.943   6.580  20.172  0.00  0.00    +0.000 C 
ENDROOT
BRANCH   2   3
ATOM      3  C   UNL     1       3.190   6.600  19.295  0.00  0.00    +0.000 A 
ATOM      4  C   UNL     1       4.261   5.690  19.452  0.00  0.00    +0.000 A 
ATOM      5  C   UNL     1       5.093   5.385  18.364  0.00  0.00    +0.000 A 
ATOM      6  C   UNL     1       4.762   5.883  17.108  0.00  0.00    +0.000 A 
ATOM      7  C   UNL     1       3.892   6.958  16.999  0.00  0.00    +0.000 A 
ATOM      8  C   UNL     1       3.166   7.371  18.110  0.00  0.00    +0.000 A 
ATOM      9 BR   UNL     1       2.063   8.901  17.891  0.00  0.00    +0.000 Br
ATOM     10  O   UNL     1       4.948   5.151  15.967  0.00  0.00    +0.000 OA
ATOM     11  C   UNL     1       6.279   5.069  15.491  0.00  0.00    +0.000 C 
ATOM     12  C   UNL     1       7.201   4.257  16.384  0.00  0.00    +0.000 C 
ATOM     13  C   UNL     1       7.291   4.858  17.779  0.00  0.00    +0.000 C 
ATOM     14  O   UNL     1       6.135   4.520  18.569  0.00  0.00    +0.000 OA
ENDBRANCH   2   3
BRANCH   2  15
ATOM     15  N   UNL     1       1.889   7.625  21.178  0.00  0.00    +0.000 N 
ATOM     16  C   UNL     1       0.663   8.184  21.504  0.00  0.00    +0.000 C 
ATOM     17  O   UNL     1      -0.383   7.882  20.930  0.00  0.00    +0.000 OA
ATOM     18  H   UNL     1       2.681   7.761  21.791  0.00  0.00    +0.000 HD
BRANCH  16  19
ATOM     19  C   UNL     1       0.681   9.213  22.621  0.00  0.00    +0.000 C 
BRANCH  19  20
ATOM     20  C   UNL     1      -0.152  10.438  22.320  0.00  0.00    +0.000 A 
ATOM     21  C   UNL     1      -1.211  10.799  23.162  0.00  0.00    +0.000 A 
ATOM     22  C   UNL     1      -1.971  11.942  22.898  0.00  0.00    +0.000 A 
ATOM     23  C   UNL     1      -1.675  12.740  21.796  0.00  0.00    +0.000 A 
ATOM     24  C   UNL     1      -0.613  12.405  20.961  0.00  0.00    +0.000 A 
ATOM     25  C   UNL     1       0.149  11.262  21.224  0.00  0.00    +0.000 A 
ENDBRANCH  19  20
ENDBRANCH  16  19
ENDBRANCH   2  15
TORSDOF 4
ENDMDL
MODEL 4
REMARK VINA RESULT:      -7.5      6.712      9.757
REMARK  Name = 
REMARK  5 active torsions:
REMARK  status: ('A' for Active; 'I' for Inactive)
REMARK    1  A    between atoms: C_1  and  C_2
REMARK    2  A    between atoms: C_2  and  N_3
REMARK    3  A    between atoms: C_2  and  C_13
REMARK    4  A    between atoms: C_4  and  C_6
REMARK    5  A    between atoms: C_6  and  C_7
REMARK                            x       y       z     vdW  Elec       q    Type
REMARK                         _______ _______ _______ _____ _____    ______ ____
ROOT
ATOM      1  C   UNL     1       2.045  10.777  18.122  0.00  0.00    +0.000 C 
ATOM      2  C   UNL     1       1.049   9.718  18.608  0.00  0.00    +0.000 C 
ENDROOT
BRANCH   2   3
ATOM      3  C   UNL     1      -0.080  10.243  19.489  0.00  0.00    +0.000 A 
ATOM      4  C   UNL     1       0.091  10.564  20.854  0.00  0.00    +0.000 A 
ATOM      5  C   UNL     1      -0.752  11.501  21.470  0.00  0.00    +0.000 A 
ATOM      6  C   UNL     1      -1.659  12.204  20.683  0.00  0.00    +0.000 A 
ATOM      7  C   UNL     1      -2.005  11.720  19.429  0.00  0.00    +0.000 A 
ATOM      8  C   UNL     1      -1.269  10.686  18.865  0.00  0.00    +0.000 A 
ATOM      9 BR   UNL     1      -1.863  10.032  17.183  0.00  0.00    +0.000 Br
ATOM     10  O   UNL     1      -1.947  13.522  20.912  0.00  0.00    +0.000 OA
ATOM     11  C   UNL     1      -2.811  13.790  22.000  0.00  0.00    +0.000 C 
ATOM     12  C   UNL     1      -2.199  13.496  23.358  0.00  0.00    +0.000 C 
ATOM     13  C   UNL     1      -1.808  12.031  23.484  0.00  0.00    +0.000 C 
ATOM     14  O   UNL     1      -0.568  11.761  22.802  0.00  0.00    +0.000 OA
ENDBRANCH   2   3
BRANCH   2  15
ATOM     15  N   UNL     1       1.730   8.545  19.124  0.00  0.00    +0.000 N 
ATOM     16  C   UNL     1       2.524   7.796  18.270  0.00  0.00    +0.000 C 
ATOM     17  O   UNL     1       2.629   8.041  17.068  0.00  0.00    +0.000 OA
ATOM     18  H   UNL     1       1.818   8.426  20.124  0.00  0.00    +0.000 HD
BRANCH  16  19
ATOM     19  C   UNL     1       3.264   6.632  18.905  0.00  0.00    +0.000 C 
BRANCH  19  20
ATOM     20  C   UNL     1       2.393   5.416  19.126  0.00  0.00    +0.000 A 
ATOM     21  C   UNL     1       2.108   4.547  18.067  0.00  0.00    +0.000 A 
ATOM     22  C   UNL     1       1.319   3.411  18.271  0.00  0.00    +0.000 A 
ATOM     23  C   UNL     1       0.815   3.128  19.538  0.00  0.00    +0.000 A 
ATOM     24  C   UNL     1       1.106   3.973  20.606  0.00  0.00    +0.000 A 
ATOM     25  C   UNL     1       1.896   5.109  20.402  0.00  0.00    +0.000 A 
ENDBRANCH  19  20
ENDBRANCH  16  19
ENDBRANCH   2  15
TORSDOF 4
ENDMDL
MODEL 5
REMARK VINA RESULT:      -7.5      6.741      9.871
REMARK  Name = 
REMARK  5 active torsions:
REMARK  status: ('A' for Active; 'I' for Inactive)
REMARK    1  A    between atoms: C_1  and  C_2
REMARK    2  A    between atoms: C_2  and  N_3
REMARK    3  A    between atoms: C_2  and  C_13
REMARK    4  A    between atoms: C_4  and  C_6
REMARK    5  A    between atoms: C_6  and  C_7
REMARK                            x       y       z     vdW  Elec       q    Type
REMARK                         _______ _______ _______ _____ _____    ______ ____
ROOT
ATOM      1  C   UNL     1       2.019  10.565  18.066  0.00  0.00    +0.000 C 
ATOM      2  C   UNL     1       0.999   9.586  18.658  0.00  0.00    +0.000 C 
ENDROOT
BRANCH   2   3
ATOM      3  C   UNL     1      -0.095  10.223  19.508  0.00  0.00    +0.000 A 
ATOM      4  C   UNL     1       0.098  10.610  20.853  0.00  0.00    +0.000 A 
ATOM      5  C   UNL     1      -0.690  11.627  21.416  0.00  0.00    +0.000 A 
ATOM      6  C   UNL     1      -1.558  12.334  20.590  0.00  0.00    +0.000 A 
ATOM      7  C   UNL     1      -1.934  11.800  19.365  0.00  0.00    +0.000 A 
ATOM      8  C   UNL     1      -1.259  10.696  18.860  0.00  0.00    +0.000 A 
ATOM      9 BR   UNL     1      -1.896   9.982  17.219  0.00  0.00    +0.000 Br
ATOM     10  O   UNL     1      -1.770  13.677  20.744  0.00  0.00    +0.000 OA
ATOM     11  C   UNL     1      -2.615  14.054  21.815  0.00  0.00    +0.000 C 
ATOM     12  C   UNL     1      -2.015  13.803  23.188  0.00  0.00    +0.000 C 
ATOM     13  C   UNL     1      -1.707  12.328  23.396  0.00  0.00    +0.000 C 
ATOM     14  O   UNL     1      -0.486  11.950  22.731  0.00  0.00    +0.000 OA
ENDBRANCH   2   3
BRANCH   2  15
ATOM     15  N   UNL     1       1.652   8.440  19.263  0.00  0.00    +0.000 N 
ATOM     16  C   UNL     1       2.491   7.655  18.489  0.00  0.00    +0.000 C 
ATOM     17  O   UNL     1       2.659   7.844  17.284  0.00  0.00    +0.000 OA
ATOM     18  H   UNL     1       1.687   8.367  20.272  0.00  0.00    +0.000 HD
BRANCH  16  19
ATOM     19  C   UNL     1       3.197   6.524  19.215  0.00  0.00    +0.000 C 
BRANCH  19  20
ATOM     20  C   UNL     1       2.374   5.258  19.297  0.00  0.00    +0.000 A 
ATOM     21  C   UNL     1       1.821   4.849  20.517  0.00  0.00    +0.000 A 
ATOM     22  C   UNL     1       1.044   3.690  20.593  0.00  0.00    +0.000 A 
ATOM     23  C   UNL     1       0.804   2.933  19.449  0.00  0.00    +0.000 A 
ATOM     24  C   UNL     1       1.330   3.337  18.226  0.00  0.00    +0.000 A 
ATOM     25  C   UNL     1       2.108   4.497  18.148  0.00  0.00    +0.000 A 
ENDBRANCH  19  20
ENDBRANCH  16  19
ENDBRANCH   2  15
TORSDOF 4
ENDMDL
MODEL 6
REMARK VINA RESULT:      -7.4      4.318      6.833
REMARK  Name = 
REMARK  5 active torsions:
REMARK  status: ('A' for Active; 'I' for Inactive)
REMARK    1  A    between atoms: C_1  and  C_2
REMARK    2  A    between atoms: C_2  and  N_3
REMARK    3  A    between atoms: C_2  and  C_13
REMARK    4  A    between atoms: C_4  and  C_6
REMARK    5  A    between atoms: C_6  and  C_7
REMARK                            x       y       z     vdW  Elec       q    Type
REMARK                         _______ _______ _______ _____ _____    ______ ____
ROOT
ATOM      1  C   UNL     1       7.881   4.630  18.151  0.00  0.00    +0.000 C 
ATOM      2  C   UNL     1       6.798   5.429  17.417  0.00  0.00    +0.000 C 
ENDROOT
BRANCH   2   3
ATOM      3  C   UNL     1       5.365   4.999  17.707  0.00  0.00    +0.000 A 
ATOM      4  C   UNL     1       5.038   3.801  18.383  0.00  0.00    +0.000 A 
ATOM      5  C   UNL     1       3.827   3.693  19.083  0.00  0.00    +0.000 A 
ATOM      6  C   UNL     1       3.027   4.824  19.214  0.00  0.00    +0.000 A 
ATOM      7  C   UNL     1       3.206   5.899  18.355  0.00  0.00    +0.000 A 
ATOM      8  C   UNL     1       4.331   5.949  17.542  0.00  0.00    +0.000 A 
ATOM      9 BR   UNL     1       4.453   7.415  16.339  0.00  0.00    +0.000 Br
ATOM     10  O   UNL     1       2.329   5.089  20.361  0.00  0.00    +0.000 OA
ATOM     11  C   UNL     1       1.149   4.333  20.560  0.00  0.00    +0.000 C 
ATOM     12  C   UNL     1       1.402   2.860  20.833  0.00  0.00    +0.000 C 
ATOM     13  C   UNL     1       2.132   2.200  19.673  0.00  0.00    +0.000 C 
ATOM     14  O   UNL     1       3.540   2.505  19.701  0.00  0.00    +0.000 OA
ENDBRANCH   2   3
BRANCH   2  15
ATOM     15  N   UNL     1       7.115   5.585  16.009  0.00  0.00    +0.000 N 
ATOM     16  C   UNL     1       6.817   4.554  15.133  0.00  0.00    +0.000 C 
ATOM     17  O   UNL     1       6.353   3.475  15.503  0.00  0.00    +0.000 OA
ATOM     18  H   UNL     1       7.316   6.508  15.647  0.00  0.00    +0.000 HD
BRANCH  16  19
ATOM     19  C   UNL     1       7.106   4.825  13.667  0.00  0.00    +0.000 C 
BRANCH  19  20
ATOM     20  C   UNL     1       6.395   3.876  12.729  0.00  0.00    +0.000 A 
ATOM     21  C   UNL     1       7.103   2.853  12.086  0.00  0.00    +0.000 A 
ATOM     22  C   UNL     1       6.446   1.962  11.233  0.00  0.00    +0.000 A 
ATOM     23  C   UNL     1       5.074   2.077  11.023  0.00  0.00    +0.000 A 
ATOM     24  C   UNL     1       4.354   3.076  11.671  0.00  0.00    +0.000 A 
ATOM     25  C   UNL     1       5.010   3.969  12.525  0.00  0.00    +0.000 A 
ENDBRANCH  19  20
ENDBRANCH  16  19
ENDBRANCH   2  15
TORSDOF 4
ENDMDL
MODEL 7
REMARK VINA RESULT:      -7.4      4.402      6.951
REMARK  Name = 
REMARK  5 active torsions:
REMARK  status: ('A' for Active; 'I' for Inactive)
REMARK    1  A    between atoms: C_1  and  C_2
REMARK    2  A    between atoms: C_2  and  N_3
REMARK    3  A    between atoms: C_2  and  C_13
REMARK    4  A    between atoms: C_4  and  C_6
REMARK    5  A    between atoms: C_6  and  C_7
REMARK                            x       y       z     vdW  Elec       q    Type
REMARK                         _______ _______ _______ _____ _____    ______ ____
ROOT
ATOM      1  C   UNL     1       7.581   4.716  17.747  0.00  0.00    +0.000 C 
ATOM      2  C   UNL     1       6.441   5.543  17.141  0.00  0.00    +0.000 C 
ENDROOT
BRANCH   2   3
ATOM      3  C   UNL     1       5.037   5.117  17.556  0.00  0.00    +0.000 A 
ATOM      4  C   UNL     1       4.718   3.804  17.969  0.00  0.00    +0.000 A 
ATOM      5  C   UNL     1       3.622   3.576  18.816  0.00  0.00    +0.000 A 
ATOM      6  C   UNL     1       2.949   4.671  19.347  0.00  0.00    +0.000 A 
ATOM      7  C   UNL     1       3.086   5.919  18.756  0.00  0.00    +0.000 A 
ATOM      8  C   UNL     1       4.074   6.123  17.801  0.00  0.00    +0.000 A 
ATOM      9 BR   UNL     1       4.134   7.837  16.984  0.00  0.00    +0.000 Br
ATOM     10  O   UNL     1       2.459   4.670  20.625  0.00  0.00    +0.000 OA
ATOM     11  C   UNL     1       1.264   3.941  20.832  0.00  0.00    +0.000 C 
ATOM     12  C   UNL     1       1.430   2.437  20.696  0.00  0.00    +0.000 C 
ATOM     13  C   UNL     1       1.918   2.058  19.306  0.00  0.00    +0.000 C 
ATOM     14  O   UNL     1       3.334   2.285  19.169  0.00  0.00    +0.000 OA
ENDBRANCH   2   3
BRANCH   2  15
ATOM     15  N   UNL     1       6.624   5.735  15.714  0.00  0.00    +0.000 N 
ATOM     16  C   UNL     1       6.638   4.627  14.882  0.00  0.00    +0.000 C 
ATOM     17  O   UNL     1       6.569   3.473  15.304  0.00  0.00    +0.000 OA
ATOM     18  H   UNL     1       6.495   6.657  15.320  0.00  0.00    +0.000 HD
BRANCH  16  19
ATOM     19  C   UNL     1       6.753   4.917  13.396  0.00  0.00    +0.000 C 
BRANCH  19  20
ATOM     20  C   UNL     1       6.435   3.723  12.525  0.00  0.00    +0.000 A 
ATOM     21  C   UNL     1       5.107   3.407  12.213  0.00  0.00    +0.000 A 
ATOM     22  C   UNL     1       4.810   2.315  11.393  0.00  0.00    +0.000 A 
ATOM     23  C   UNL     1       5.836   1.534  10.868  0.00  0.00    +0.000 A 
ATOM     24  C   UNL     1       7.162   1.847  11.153  0.00  0.00    +0.000 A 
ATOM     25  C   UNL     1       7.461   2.940  11.974  0.00  0.00    +0.000 A 
ENDBRANCH  19  20
ENDBRANCH  16  19
ENDBRANCH   2  15
TORSDOF 4
ENDMDL
MODEL 8
REMARK VINA RESULT:      -7.3      6.411     10.105
REMARK  Name = 
REMARK  5 active torsions:
REMARK  status: ('A' for Active; 'I' for Inactive)
REMARK    1  A    between atoms: C_1  and  C_2
REMARK    2  A    between atoms: C_2  and  N_3
REMARK    3  A    between atoms: C_2  and  C_13
REMARK    4  A    between atoms: C_4  and  C_6
REMARK    5  A    between atoms: C_6  and  C_7
REMARK                            x       y       z     vdW  Elec       q    Type
REMARK                         _______ _______ _______ _____ _____    ______ ____
ROOT
ATOM      1  C   UNL     1      -0.678  10.011  18.019  0.00  0.00    +0.000 C 
ATOM      2  C   UNL     1       0.456   9.991  19.051  0.00  0.00    +0.000 C 
ENDROOT
BRANCH   2   3
ATOM      3  C   UNL     1       1.058  11.353  19.381  0.00  0.00    +0.000 A 
ATOM      4  C   UNL     1       1.971  12.020  18.534  0.00  0.00    +0.000 A 
ATOM      5  C   UNL     1       2.085  13.418  18.579  0.00  0.00    +0.000 A 
ATOM      6  C   UNL     1       1.190  14.136  19.365  0.00  0.00    +0.000 A 
ATOM      7  C   UNL     1       0.484  13.492  20.372  0.00  0.00    +0.000 A 
ATOM      8  C   UNL     1       0.483  12.104  20.432  0.00  0.00    +0.000 A 
ATOM      9 BR   UNL     1      -0.439  11.311  21.891  0.00  0.00    +0.000 Br
ATOM     10  O   UNL     1       0.690  15.348  18.971  0.00  0.00    +0.000 OA
ATOM     11  C   UNL     1       1.563  16.453  19.103  0.00  0.00    +0.000 C 
ATOM     12  C   UNL     1       2.745  16.420  18.149  0.00  0.00    +0.000 C 
ATOM     13  C   UNL     1       3.599  15.181  18.369  0.00  0.00    +0.000 C 
ATOM     14  O   UNL     1       3.002  14.020  17.760  0.00  0.00    +0.000 OA
ENDBRANCH   2   3
BRANCH   2  15
ATOM     15  N   UNL     1       1.424   8.951  18.757  0.00  0.00    +0.000 N 
ATOM     16  C   UNL     1       1.814   8.086  19.767  0.00  0.00    +0.000 C 
ATOM     17  O   UNL     1       1.426   8.200  20.930  0.00  0.00    +0.000 OA
ATOM     18  H   UNL     1       1.616   8.714  17.792  0.00  0.00    +0.000 HD
BRANCH  16  19
ATOM     19  C   UNL     1       2.769   6.979  19.359  0.00  0.00    +0.000 C 
BRANCH  19  20
ATOM     20  C   UNL     1       2.129   5.609  19.350  0.00  0.00    +0.000 A 
ATOM     21  C   UNL     1       2.022   4.884  18.157  0.00  0.00    +0.000 A 
ATOM     22  C   UNL     1       1.449   3.610  18.148  0.00  0.00    +0.000 A 
ATOM     23  C   UNL     1       0.986   3.042  19.332  0.00  0.00    +0.000 A 
ATOM     24  C   UNL     1       1.103   3.742  20.530  0.00  0.00    +0.000 A 
ATOM     25  C   UNL     1       1.677   5.018  20.540  0.00  0.00    +0.000 A 
ENDBRANCH  19  20
ENDBRANCH  16  19
ENDBRANCH   2  15
TORSDOF 4
ENDMDL
MODEL 9
REMARK VINA RESULT:      -7.2      1.868      2.443
REMARK  Name = 
REMARK  5 active torsions:
REMARK  status: ('A' for Active; 'I' for Inactive)
REMARK    1  A    between atoms: C_1  and  C_2
REMARK    2  A    between atoms: C_2  and  N_3
REMARK    3  A    between atoms: C_2  and  C_13
REMARK    4  A    between atoms: C_4  and  C_6
REMARK    5  A    between atoms: C_6  and  C_7
REMARK                            x       y       z     vdW  Elec       q    Type
REMARK                         _______ _______ _______ _____ _____    ______ ____
ROOT
ATOM      1  C   UNL     1       4.935   7.433  16.454  0.00  0.00    +0.000 C 
ATOM      2  C   UNL     1       5.793   6.473  17.286  0.00  0.00    +0.000 C 
ENDROOT
BRANCH   2   3
ATOM      3  C   UNL     1       5.044   5.291  17.891  0.00  0.00    +0.000 A 
ATOM      4  C   UNL     1       4.414   5.339  19.155  0.00  0.00    +0.000 A 
ATOM      5  C   UNL     1       3.336   4.487  19.440  0.00  0.00    +0.000 A 
ATOM      6  C   UNL     1       2.815   3.703  18.416  0.00  0.00    +0.000 A 
ATOM      7  C   UNL     1       3.572   3.461  17.278  0.00  0.00    +0.000 A 
ATOM      8  C   UNL     1       4.730   4.195  17.054  0.00  0.00    +0.000 A 
ATOM      9 BR   UNL     1       5.747   3.740  15.515  0.00  0.00    +0.000 Br
ATOM     10  O   UNL     1       1.473   3.462  18.299  0.00  0.00    +0.000 OA
ATOM     11  C   UNL     1       0.933   2.507  19.193  0.00  0.00    +0.000 C 
ATOM     12  C   UNL     1       0.913   2.963  20.641  0.00  0.00    +0.000 C 
ATOM     13  C   UNL     1       2.317   3.262  21.146  0.00  0.00    +0.000 C 
ATOM     14  O   UNL     1       2.774   4.549  20.687  0.00  0.00    +0.000 OA
ENDBRANCH   2   3
BRANCH   2  15
ATOM     15  N   UNL     1       6.647   7.193  18.213  0.00  0.00    +0.000 N 
ATOM     16  C   UNL     1       7.836   7.736  17.752  0.00  0.00    +0.000 C 
ATOM     17  O   UNL     1       8.239   7.580  16.599  0.00  0.00    +0.000 OA
ATOM     18  H   UNL     1       6.267   7.497  19.100  0.00  0.00    +0.000 HD
BRANCH  16  19
ATOM     19  C   UNL     1       8.633   8.540  18.764  0.00  0.00    +0.000 C 
BRANCH  19  20
ATOM     20  C   UNL     1       8.825   9.985  18.364  0.00  0.00    +0.000 A 
ATOM     21  C   UNL     1       7.805  10.680  17.702  0.00  0.00    +0.000 A 
ATOM     22  C   UNL     1       7.972  12.021  17.348  0.00  0.00    +0.000 A 
ATOM     23  C   UNL     1       9.156  12.685  17.660  0.00  0.00    +0.000 A 
ATOM     24  C   UNL     1      10.171  12.014  18.334  0.00  0.00    +0.000 A 
ATOM     25  C   UNL     1      10.005  10.671  18.690  0.00  0.00    +0.000 A 
ENDBRANCH  19  20
ENDBRANCH  16  19
ENDBRANCH   2  15
TORSDOF 4
ENDMDL
