MODEL 1
REMARK VINA RESULT:      -8.3      0.000      0.000
REMARK  Name = 
REMARK  9 active torsions:
REMARK  status: ('A' for Active; 'I' for Inactive)
REMARK    1  A    between atoms: C_1  and  O_2
REMARK    2  A    between atoms: O_2  and  C_3
REMARK    3  A    between atoms: C_3  and  C_5
REMARK    4  A    between atoms: C_5  and  C_6
REMARK    5  A    between atoms: C_10  and  O_11
REMARK    6  A    between atoms: O_11  and  C_12
REMARK    7  A    between atoms: C_12  and  C_13
REMARK    8  A    between atoms: C_22  and  C_23
REMARK    9  A    between atoms: N_25  and  O_26
REMARK                            x       y       z     vdW  Elec       q    Type
REMARK                         _______ _______ _______ _____ _____    ______ ____
ROOT
ATOM      1  C   UNL     1       4.799   5.683  17.095  0.00  0.00    +0.000 A 
ATOM      2  C   UNL     1       4.405   6.866  17.725  0.00  0.00    +0.000 A 
ATOM      3  C   UNL     1       3.079   7.047  18.139  0.00  0.00    +0.000 A 
ATOM      4  C   UNL     1       2.172   6.027  17.971  0.00  0.00    +0.000 A 
ATOM      5  C   UNL     1       2.518   4.837  17.363  0.00  0.00    +0.000 A 
ATOM      6  C   UNL     1       3.845   4.659  16.920  0.00  0.00    +0.000 A 
ENDROOT
BRANCH   1   7
ATOM      7  C   UNL     1       6.231   5.460  16.630  0.00  0.00    +0.000 C 
ATOM      8  C   UNL     1       7.226   6.556  17.003  0.00  0.00    +0.000 C 
ATOM      9  C   UNL     1       7.391   5.184  17.599  0.00  0.00    +0.000 C 
BRANCH   9  10
ATOM     10  C   UNL     1       7.243   4.973  19.062  0.00  0.00    +0.000 C 
ATOM     11  O   UNL     1       6.256   4.461  19.577  0.00  0.00    +0.000 OA
ATOM     12  N   UNL     1       8.301   5.439  19.800  0.00  0.00    +0.000 N 
ATOM     13  H   UNL     1       9.165   5.805  19.417  0.00  0.00    +0.000 HD
BRANCH  12  14
ATOM     14  O   UNL     1       8.237   5.279  21.203  0.00  0.00    +0.000 OA
ATOM     15  H   UNL     1       7.317   5.555  21.405  0.00  0.00    +0.000 HD
ENDBRANCH  12  14
ENDBRANCH   9  10
BRANCH   7  16
ATOM     16  C   UNL     1       6.316   4.732  15.317  0.00  0.00    +0.000 C 
ATOM     17  O   UNL     1       6.108   3.532  15.249  0.00  0.00    +0.000 OA
BRANCH  16  19
ATOM     18  C   UNL     1       7.467   4.982  13.305  0.00  0.00    +0.000 C 
ATOM     19  O   UNL     1       6.588   5.562  14.271  0.00  0.00    +0.000 OA
ENDBRANCH  16  19
ENDBRANCH   7  16
ENDBRANCH   1   7
BRANCH   5  20
ATOM     20  O   UNL     1       1.609   3.825  17.190  0.00  0.00    +0.000 OA
BRANCH  20  21
ATOM     21  C   UNL     1       2.133   2.537  17.552  0.00  0.00    +0.000 C 
BRANCH  21  22
ATOM     22  C   UNL     1       2.300   2.499  19.041  0.00  0.00    +0.000 A 
ATOM     23  C   UNL     1       1.210   2.808  19.866  0.00  0.00    +0.000 A 
ATOM     24  C   UNL     1       1.357   2.802  21.251  0.00  0.00    +0.000 A 
ATOM     25  C   UNL     1       2.584   2.473  21.816  0.00  0.00    +0.000 A 
ATOM     26  C   UNL     1       3.656   2.134  20.994  0.00  0.00    +0.000 A 
ATOM     27  F   UNL     1       4.831   1.808  21.541  0.00  0.00    +0.000 F 
ATOM     28  C   UNL     1       3.525   2.144  19.612  0.00  0.00    +0.000 A 
ENDBRANCH  21  22
ENDBRANCH  20  21
ENDBRANCH   5  20
TORSDOF 8
ENDMDL
MODEL 2
REMARK VINA RESULT:      -8.2      0.885      1.294
REMARK  Name = 
REMARK  9 active torsions:
REMARK  status: ('A' for Active; 'I' for Inactive)
REMARK    1  A    between atoms: C_1  and  O_2
REMARK    2  A    between atoms: O_2  and  C_3
REMARK    3  A    between atoms: C_3  and  C_5
REMARK    4  A    between atoms: C_5  and  C_6
REMARK    5  A    between atoms: C_10  and  O_11
REMARK    6  A    between atoms: O_11  and  C_12
REMARK    7  A    between atoms: C_12  and  C_13
REMARK    8  A    between atoms: C_22  and  C_23
REMARK    9  A    between atoms: N_25  and  O_26
REMARK                            x       y       z     vdW  Elec       q    Type
REMARK                         _______ _______ _______ _____ _____    ______ ____
ROOT
ATOM      1  C   UNL     1       4.882   5.594  17.049  0.00  0.00    +0.000 A 
ATOM      2  C   UNL     1       4.377   6.745  17.660  0.00  0.00    +0.000 A 
ATOM      3  C   UNL     1       3.031   6.819  18.039  0.00  0.00    +0.000 A 
ATOM      4  C   UNL     1       2.214   5.728  17.855  0.00  0.00    +0.000 A 
ATOM      5  C   UNL     1       2.670   4.568  17.266  0.00  0.00    +0.000 A 
ATOM      6  C   UNL     1       4.018   4.495  16.857  0.00  0.00    +0.000 A 
ENDROOT
BRANCH   1   7
ATOM      7  C   UNL     1       6.339   5.486  16.622  0.00  0.00    +0.000 C 
ATOM      8  C   UNL     1       7.240   6.643  17.044  0.00  0.00    +0.000 C 
ATOM      9  C   UNL     1       7.488   5.275  17.618  0.00  0.00    +0.000 C 
BRANCH   9  10
ATOM     10  C   UNL     1       7.316   5.022  19.071  0.00  0.00    +0.000 C 
ATOM     11  O   UNL     1       6.311   4.517  19.558  0.00  0.00    +0.000 OA
ATOM     12  N   UNL     1       8.375   5.440  19.837  0.00  0.00    +0.000 N 
ATOM     13  H   UNL     1       9.251   5.797  19.476  0.00  0.00    +0.000 HD
BRANCH  12  14
ATOM     14  O   UNL     1       8.288   5.238  21.233  0.00  0.00    +0.000 OA
ATOM     15  H   UNL     1       7.381   4.880  21.339  0.00  0.00    +0.000 HD
ENDBRANCH  12  14
ENDBRANCH   9  10
BRANCH   7  16
ATOM     16  C   UNL     1       6.513   4.794  15.297  0.00  0.00    +0.000 C 
ATOM     17  O   UNL     1       6.219   3.619  15.158  0.00  0.00    +0.000 OA
BRANCH  16  19
ATOM     18  C   UNL     1       7.389   4.944  13.142  0.00  0.00    +0.000 C 
ATOM     19  O   UNL     1       6.965   5.631  14.321  0.00  0.00    +0.000 OA
ENDBRANCH  16  19
ENDBRANCH   7  16
ENDBRANCH   1   7
BRANCH   5  20
ATOM     20  O   UNL     1       1.852   3.484  17.077  0.00  0.00    +0.000 OA
BRANCH  20  21
ATOM     21  C   UNL     1       2.460   2.247  17.483  0.00  0.00    +0.000 C 
BRANCH  21  22
ATOM     22  C   UNL     1       2.641   2.279  18.971  0.00  0.00    +0.000 A 
ATOM     23  C   UNL     1       3.923   2.117  19.514  0.00  0.00    +0.000 A 
ATOM     24  C   UNL     1       4.103   2.118  20.895  0.00  0.00    +0.000 A 
ATOM     25  C   UNL     1       3.011   2.298  21.736  0.00  0.00    +0.000 A 
ATOM     26  C   UNL     1       1.744   2.492  21.193  0.00  0.00    +0.000 A 
ATOM     27  F   UNL     1       0.697   2.675  22.004  0.00  0.00    +0.000 F 
ATOM     28  C   UNL     1       1.549   2.484  19.818  0.00  0.00    +0.000 A 
ENDBRANCH  21  22
ENDBRANCH  20  21
ENDBRANCH   5  20
TORSDOF 8
ENDMDL
MODEL 3
REMARK VINA RESULT:      -8.1      3.291      6.507
REMARK  Name = 
REMARK  9 active torsions:
REMARK  status: ('A' for Active; 'I' for Inactive)
REMARK    1  A    between atoms: C_1  and  O_2
REMARK    2  A    between atoms: O_2  and  C_3
REMARK    3  A    between atoms: C_3  and  C_5
REMARK    4  A    between atoms: C_5  and  C_6
REMARK    5  A    between atoms: C_10  and  O_11
REMARK    6  A    between atoms: O_11  and  C_12
REMARK    7  A    between atoms: C_12  and  C_13
REMARK    8  A    between atoms: C_22  and  C_23
REMARK    9  A    between atoms: N_25  and  O_26
REMARK                            x       y       z     vdW  Elec       q    Type
REMARK                         _______ _______ _______ _____ _____    ______ ____
ROOT
ATOM      1  C   UNL     1       4.861   4.998  18.170  0.00  0.00    +0.000 A 
ATOM      2  C   UNL     1       5.662   5.521  19.189  0.00  0.00    +0.000 A 
ATOM      3  C   UNL     1       7.046   5.645  19.015  0.00  0.00    +0.000 A 
ATOM      4  C   UNL     1       7.612   5.298  17.810  0.00  0.00    +0.000 A 
ATOM      5  C   UNL     1       6.860   4.787  16.773  0.00  0.00    +0.000 A 
ATOM      6  C   UNL     1       5.469   4.634  16.950  0.00  0.00    +0.000 A 
ENDROOT
BRANCH   1   7
ATOM      7  C   UNL     1       3.355   4.847  18.332  0.00  0.00    +0.000 C 
ATOM      8  C   UNL     1       2.679   3.878  17.367  0.00  0.00    +0.000 C 
ATOM      9  C   UNL     1       2.694   3.556  18.836  0.00  0.00    +0.000 C 
BRANCH   9  10
ATOM     10  C   UNL     1       3.428   2.368  19.343  0.00  0.00    +0.000 C 
ATOM     11  O   UNL     1       3.690   2.187  20.526  0.00  0.00    +0.000 OA
ATOM     12  N   UNL     1       3.825   1.499  18.358  0.00  0.00    +0.000 N 
ATOM     13  H   UNL     1       3.573   1.571  17.380  0.00  0.00    +0.000 HD
BRANCH  12  14
ATOM     14  O   UNL     1       4.534   0.344  18.758  0.00  0.00    +0.000 OA
ATOM     15  H   UNL     1       3.997   0.016  19.510  0.00  0.00    +0.000 HD
ENDBRANCH  12  14
ENDBRANCH   9  10
BRANCH   7  16
ATOM     16  C   UNL     1       2.682   6.118  18.774  0.00  0.00    +0.000 C 
ATOM     17  O   UNL     1       2.548   6.380  19.958  0.00  0.00    +0.000 OA
BRANCH  16  19
ATOM     18  C   UNL     1       2.621   8.292  17.935  0.00  0.00    +0.000 C 
ATOM     19  O   UNL     1       2.316   6.911  17.728  0.00  0.00    +0.000 OA
ENDBRANCH  16  19
ENDBRANCH   7  16
ENDBRANCH   1   7
BRANCH   5  20
ATOM     20  O   UNL     1       7.427   4.434  15.576  0.00  0.00    +0.000 OA
BRANCH  20  21
ATOM     21  C   UNL     1       6.932   5.211  14.473  0.00  0.00    +0.000 C 
BRANCH  21  22
ATOM     22  C   UNL     1       6.453   4.267  13.411  0.00  0.00    +0.000 A 
ATOM     23  C   UNL     1       5.076   4.068  13.235  0.00  0.00    +0.000 A 
ATOM     24  C   UNL     1       4.617   3.174  12.270  0.00  0.00    +0.000 A 
ATOM     25  C   UNL     1       5.525   2.491  11.470  0.00  0.00    +0.000 A 
ATOM     26  C   UNL     1       6.890   2.715  11.626  0.00  0.00    +0.000 A 
ATOM     27  F   UNL     1       7.761   2.065  10.848  0.00  0.00    +0.000 F 
ATOM     28  C   UNL     1       7.362   3.597  12.589  0.00  0.00    +0.000 A 
ENDBRANCH  21  22
ENDBRANCH  20  21
ENDBRANCH   5  20
TORSDOF 8
ENDMDL
MODEL 4
REMARK VINA RESULT:      -8.0      3.321      4.653
REMARK  Name = 
REMARK  9 active torsions:
REMARK  status: ('A' for Active; 'I' for Inactive)
REMARK    1  A    between atoms: C_1  and  O_2
REMARK    2  A    between atoms: O_2  and  C_3
REMARK    3  A    between atoms: C_3  and  C_5
REMARK    4  A    between atoms: C_5  and  C_6
REMARK    5  A    between atoms: C_10  and  O_11
REMARK    6  A    between atoms: O_11  and  C_12
REMARK    7  A    between atoms: C_12  and  C_13
REMARK    8  A    between atoms: C_22  and  C_23
REMARK    9  A    between atoms: N_25  and  O_26
REMARK                            x       y       z     vdW  Elec       q    Type
REMARK                         _______ _______ _______ _____ _____    ______ ____
ROOT
ATOM      1  C   UNL     1       4.623   5.451  17.267  0.00  0.00    +0.000 A 
ATOM      2  C   UNL     1       3.834   4.303  17.155  0.00  0.00    +0.000 A 
ATOM      3  C   UNL     1       2.511   4.300  17.616  0.00  0.00    +0.000 A 
ATOM      4  C   UNL     1       1.971   5.453  18.133  0.00  0.00    +0.000 A 
ATOM      5  C   UNL     1       2.708   6.612  18.255  0.00  0.00    +0.000 A 
ATOM      6  C   UNL     1       4.049   6.616  17.817  0.00  0.00    +0.000 A 
ENDROOT
BRANCH   1   7
ATOM      7  C   UNL     1       6.065   5.483  16.779  0.00  0.00    +0.000 C 
ATOM      8  C   UNL     1       6.854   6.743  17.127  0.00  0.00    +0.000 C 
ATOM      9  C   UNL     1       7.270   5.429  17.730  0.00  0.00    +0.000 C 
BRANCH   9  10
ATOM     10  C   UNL     1       7.185   5.209  19.196  0.00  0.00    +0.000 C 
ATOM     11  O   UNL     1       6.140   4.956  19.786  0.00  0.00    +0.000 OA
ATOM     12  N   UNL     1       8.383   5.353  19.850  0.00  0.00    +0.000 N 
ATOM     13  H   UNL     1       9.280   5.493  19.400  0.00  0.00    +0.000 HD
BRANCH  12  14
ATOM     14  O   UNL     1       8.387   5.164  21.250  0.00  0.00    +0.000 OA
ATOM     15  H   UNL     1       8.096   6.040  21.583  0.00  0.00    +0.000 HD
ENDBRANCH  12  14
ENDBRANCH   9  10
BRANCH   7  16
ATOM     16  C   UNL     1       6.258   4.768  15.470  0.00  0.00    +0.000 C 
ATOM     17  O   UNL     1       6.093   3.563  15.382  0.00  0.00    +0.000 OA
BRANCH  16  19
ATOM     18  C   UNL     1       7.366   5.002  13.432  0.00  0.00    +0.000 C 
ATOM     19  O   UNL     1       6.570   5.615  14.449  0.00  0.00    +0.000 OA
ENDBRANCH  16  19
ENDBRANCH   7  16
ENDBRANCH   1   7
BRANCH   5  20
ATOM     20  O   UNL     1       2.170   7.759  18.779  0.00  0.00    +0.000 OA
BRANCH  20  21
ATOM     21  C   UNL     1       1.891   7.654  20.185  0.00  0.00    +0.000 C 
BRANCH  21  22
ATOM     22  C   UNL     1       1.014   8.805  20.577  0.00  0.00    +0.000 A 
ATOM     23  C   UNL     1       0.597   9.719  19.600  0.00  0.00    +0.000 A 
ATOM     24  C   UNL     1      -0.196  10.808  19.955  0.00  0.00    +0.000 A 
ATOM     25  C   UNL     1      -0.588  10.979  21.277  0.00  0.00    +0.000 A 
ATOM     26  C   UNL     1      -0.199  10.050  22.240  0.00  0.00    +0.000 A 
ATOM     27  F   UNL     1      -0.586  10.211  23.509  0.00  0.00    +0.000 F 
ATOM     28  C   UNL     1       0.599   8.965  21.901  0.00  0.00    +0.000 A 
ENDBRANCH  21  22
ENDBRANCH  20  21
ENDBRANCH   5  20
TORSDOF 8
ENDMDL
MODEL 5
REMARK VINA RESULT:      -8.0      3.376      4.643
REMARK  Name = 
REMARK  9 active torsions:
REMARK  status: ('A' for Active; 'I' for Inactive)
REMARK    1  A    between atoms: C_1  and  O_2
REMARK    2  A    between atoms: O_2  and  C_3
REMARK    3  A    between atoms: C_3  and  C_5
REMARK    4  A    between atoms: C_5  and  C_6
REMARK    5  A    between atoms: C_10  and  O_11
REMARK    6  A    between atoms: O_11  and  C_12
REMARK    7  A    between atoms: C_12  and  C_13
REMARK    8  A    between atoms: C_22  and  C_23
REMARK    9  A    between atoms: N_25  and  O_26
REMARK                            x       y       z     vdW  Elec       q    Type
REMARK                         _______ _______ _______ _____ _____    ______ ____
ROOT
ATOM      1  C   UNL     1       4.180   5.494  17.599  0.00  0.00    +0.000 A 
ATOM      2  C   UNL     1       3.508   4.320  17.247  0.00  0.00    +0.000 A 
ATOM      3  C   UNL     1       2.295   3.983  17.860  0.00  0.00    +0.000 A 
ATOM      4  C   UNL     1       1.736   4.842  18.776  0.00  0.00    +0.000 A 
ATOM      5  C   UNL     1       2.358   6.016  19.147  0.00  0.00    +0.000 A 
ATOM      6  C   UNL     1       3.593   6.351  18.554  0.00  0.00    +0.000 A 
ENDROOT
BRANCH   1   7
ATOM      7  C   UNL     1       5.502   5.885  16.954  0.00  0.00    +0.000 C 
ATOM      8  C   UNL     1       6.174   7.132  17.522  0.00  0.00    +0.000 C 
ATOM      9  C   UNL     1       6.849   5.798  17.688  0.00  0.00    +0.000 C 
BRANCH   9  10
ATOM     10  C   UNL     1       7.043   5.211  19.038  0.00  0.00    +0.000 C 
ATOM     11  O   UNL     1       6.296   4.371  19.527  0.00  0.00    +0.000 OA
ATOM     12  N   UNL     1       8.120   5.723  19.717  0.00  0.00    +0.000 N 
ATOM     13  H   UNL     1       8.802   6.364  19.330  0.00  0.00    +0.000 HD
BRANCH  12  14
ATOM     14  O   UNL     1       8.372   5.219  21.013  0.00  0.00    +0.000 OA
ATOM     15  H   UNL     1       8.612   6.029  21.511  0.00  0.00    +0.000 HD
ENDBRANCH  12  14
ENDBRANCH   9  10
BRANCH   7  16
ATOM     16  C   UNL     1       5.559   5.559  15.486  0.00  0.00    +0.000 C 
ATOM     17  O   UNL     1       5.356   6.416  14.643  0.00  0.00    +0.000 OA
BRANCH  16  19
ATOM     18  C   UNL     1       6.386   4.042  13.921  0.00  0.00    +0.000 C 
ATOM     19  O   UNL     1       5.903   4.262  15.248  0.00  0.00    +0.000 OA
ENDBRANCH  16  19
ENDBRANCH   7  16
ENDBRANCH   1   7
BRANCH   5  20
ATOM     20  O   UNL     1       1.802   6.868  20.067  0.00  0.00    +0.000 OA
BRANCH  20  21
ATOM     21  C   UNL     1       1.852   8.244  19.655  0.00  0.00    +0.000 C 
BRANCH  21  22
ATOM     22  C   UNL     1       0.992   9.044  20.586  0.00  0.00    +0.000 A 
ATOM     23  C   UNL     1       0.173  10.058  20.069  0.00  0.00    +0.000 A 
ATOM     24  C   UNL     1      -0.612  10.827  20.925  0.00  0.00    +0.000 A 
ATOM     25  C   UNL     1      -0.596  10.578  22.292  0.00  0.00    +0.000 A 
ATOM     26  C   UNL     1       0.193   9.549  22.798  0.00  0.00    +0.000 A 
ATOM     27  F   UNL     1       0.199   9.304  24.113  0.00  0.00    +0.000 F 
ATOM     28  C   UNL     1       0.987   8.780  21.958  0.00  0.00    +0.000 A 
ENDBRANCH  21  22
ENDBRANCH  20  21
ENDBRANCH   5  20
TORSDOF 8
ENDMDL
MODEL 6
REMARK VINA RESULT:      -7.9      3.263      6.454
REMARK  Name = 
REMARK  9 active torsions:
REMARK  status: ('A' for Active; 'I' for Inactive)
REMARK    1  A    between atoms: C_1  and  O_2
REMARK    2  A    between atoms: O_2  and  C_3
REMARK    3  A    between atoms: C_3  and  C_5
REMARK    4  A    between atoms: C_5  and  C_6
REMARK    5  A    between atoms: C_10  and  O_11
REMARK    6  A    between atoms: O_11  and  C_12
REMARK    7  A    between atoms: C_12  and  C_13
REMARK    8  A    between atoms: C_22  and  C_23
REMARK    9  A    between atoms: N_25  and  O_26
REMARK                            x       y       z     vdW  Elec       q    Type
REMARK                         _______ _______ _______ _____ _____    ______ ____
ROOT
ATOM      1  C   UNL     1       4.586   5.259  17.698  0.00  0.00    +0.000 A 
ATOM      2  C   UNL     1       5.635   5.576  18.566  0.00  0.00    +0.000 A 
ATOM      3  C   UNL     1       6.916   5.846  18.068  0.00  0.00    +0.000 A 
ATOM      4  C   UNL     1       7.128   5.850  16.709  0.00  0.00    +0.000 A 
ATOM      5  C   UNL     1       6.121   5.553  15.814  0.00  0.00    +0.000 A 
ATOM      6  C   UNL     1       4.835   5.255  16.309  0.00  0.00    +0.000 A 
ENDROOT
BRANCH   1   7
ATOM      7  C   UNL     1       3.185   4.957  18.210  0.00  0.00    +0.000 C 
ATOM      8  C   UNL     1       2.356   4.008  17.350  0.00  0.00    +0.000 C 
ATOM      9  C   UNL     1       2.765   3.575  18.731  0.00  0.00    +0.000 C 
BRANCH   9  10
ATOM     10  C   UNL     1       3.685   2.424  18.920  0.00  0.00    +0.000 C 
ATOM     11  O   UNL     1       3.735   1.463  18.160  0.00  0.00    +0.000 OA
ATOM     12  N   UNL     1       4.457   2.509  20.051  0.00  0.00    +0.000 N 
ATOM     13  H   UNL     1       4.500   3.311  20.668  0.00  0.00    +0.000 HD
BRANCH  12  14
ATOM     14  O   UNL     1       5.357   1.451  20.306  0.00  0.00    +0.000 OA
ATOM     15  H   UNL     1       5.423   1.460  21.285  0.00  0.00    +0.000 HD
ENDBRANCH  12  14
ENDBRANCH   9  10
BRANCH   7  16
ATOM     16  C   UNL     1       2.559   6.121  18.929  0.00  0.00    +0.000 C 
ATOM     17  O   UNL     1       2.636   6.227  20.141  0.00  0.00    +0.000 OA
BRANCH  16  19
ATOM     18  C   UNL     1       2.657   8.271  18.031  0.00  0.00    +0.000 C 
ATOM     19  O   UNL     1       1.978   7.014  18.079  0.00  0.00    +0.000 OA
ENDBRANCH  16  19
ENDBRANCH   7  16
ENDBRANCH   1   7
BRANCH   5  20
ATOM     20  O   UNL     1       6.337   5.551  14.460  0.00  0.00    +0.000 OA
BRANCH  20  21
ATOM     21  C   UNL     1       7.083   4.406  14.015  0.00  0.00    +0.000 C 
BRANCH  21  22
ATOM     22  C   UNL     1       6.273   3.693  12.975  0.00  0.00    +0.000 A 
ATOM     23  C   UNL     1       4.953   4.097  12.731  0.00  0.00    +0.000 A 
ATOM     24  C   UNL     1       4.180   3.426  11.785  0.00  0.00    +0.000 A 
ATOM     25  C   UNL     1       4.725   2.366  11.071  0.00  0.00    +0.000 A 
ATOM     26  C   UNL     1       6.047   1.988  11.292  0.00  0.00    +0.000 A 
ATOM     27  F   UNL     1       6.571   0.975  10.596  0.00  0.00    +0.000 F 
ATOM     28  C   UNL     1       6.825   2.642  12.238  0.00  0.00    +0.000 A 
ENDBRANCH  21  22
ENDBRANCH  20  21
ENDBRANCH   5  20
TORSDOF 8
ENDMDL
MODEL 7
REMARK VINA RESULT:      -7.7      4.196      6.252
REMARK  Name = 
REMARK  9 active torsions:
REMARK  status: ('A' for Active; 'I' for Inactive)
REMARK    1  A    between atoms: C_1  and  O_2
REMARK    2  A    between atoms: O_2  and  C_3
REMARK    3  A    between atoms: C_3  and  C_5
REMARK    4  A    between atoms: C_5  and  C_6
REMARK    5  A    between atoms: C_10  and  O_11
REMARK    6  A    between atoms: O_11  and  C_12
REMARK    7  A    between atoms: C_12  and  C_13
REMARK    8  A    between atoms: C_22  and  C_23
REMARK    9  A    between atoms: N_25  and  O_26
REMARK                            x       y       z     vdW  Elec       q    Type
REMARK                         _______ _______ _______ _____ _____    ______ ____
ROOT
ATOM      1  C   UNL     1       3.165   5.897  18.471  0.00  0.00    +0.000 A 
ATOM      2  C   UNL     1       2.858   5.659  19.813  0.00  0.00    +0.000 A 
ATOM      3  C   UNL     1       2.210   6.634  20.581  0.00  0.00    +0.000 A 
ATOM      4  C   UNL     1       1.825   7.816  19.991  0.00  0.00    +0.000 A 
ATOM      5  C   UNL     1       2.098   8.091  18.667  0.00  0.00    +0.000 A 
ATOM      6  C   UNL     1       2.774   7.124  17.895  0.00  0.00    +0.000 A 
ENDROOT
BRANCH   1   7
ATOM      7  C   UNL     1       3.873   4.858  17.613  0.00  0.00    +0.000 C 
ATOM      8  C   UNL     1       4.637   5.402  16.409  0.00  0.00    +0.000 C 
ATOM      9  C   UNL     1       5.403   4.747  17.527  0.00  0.00    +0.000 C 
BRANCH   9  10
ATOM     10  C   UNL     1       6.358   5.531  18.350  0.00  0.00    +0.000 C 
ATOM     11  O   UNL     1       6.758   6.650  18.045  0.00  0.00    +0.000 OA
ATOM     12  N   UNL     1       6.792   4.876  19.474  0.00  0.00    +0.000 N 
ATOM     13  H   UNL     1       6.440   3.984  19.802  0.00  0.00    +0.000 HD
BRANCH  12  14
ATOM     14  O   UNL     1       7.708   5.553  20.310  0.00  0.00    +0.000 OA
ATOM     15  H   UNL     1       8.030   6.275  19.730  0.00  0.00    +0.000 HD
ENDBRANCH  12  14
ENDBRANCH   9  10
BRANCH   7  16
ATOM     16  C   UNL     1       3.139   3.546  17.554  0.00  0.00    +0.000 C 
ATOM     17  O   UNL     1       2.286   3.341  16.707  0.00  0.00    +0.000 OA
BRANCH  16  19
ATOM     18  C   UNL     1       2.513   1.945  19.129  0.00  0.00    +0.000 C 
ATOM     19  O   UNL     1       3.575   2.656  18.489  0.00  0.00    +0.000 OA
ENDBRANCH  16  19
ENDBRANCH   7  16
ENDBRANCH   1   7
BRANCH   5  20
ATOM     20  O   UNL     1       1.721   9.273  18.084  0.00  0.00    +0.000 OA
BRANCH  20  21
ATOM     21  C   UNL     1       1.192  10.219  19.028  0.00  0.00    +0.000 C 
BRANCH  21  22
ATOM     22  C   UNL     1      -0.223  10.526  18.644  0.00  0.00    +0.000 A 
ATOM     23  C   UNL     1      -0.924  11.526  19.331  0.00  0.00    +0.000 A 
ATOM     24  C   UNL     1      -2.249  11.804  19.003  0.00  0.00    +0.000 A 
ATOM     25  C   UNL     1      -2.872  11.099  17.980  0.00  0.00    +0.000 A 
ATOM     26  C   UNL     1      -2.163  10.129  17.277  0.00  0.00    +0.000 A 
ATOM     27  F   UNL     1      -2.761   9.459  16.286  0.00  0.00    +0.000 F 
ATOM     28  C   UNL     1      -0.845   9.836  17.600  0.00  0.00    +0.000 A 
ENDBRANCH  21  22
ENDBRANCH  20  21
ENDBRANCH   5  20
TORSDOF 8
ENDMDL
MODEL 8
REMARK VINA RESULT:      -7.7      4.483      6.263
REMARK  Name = 
REMARK  9 active torsions:
REMARK  status: ('A' for Active; 'I' for Inactive)
REMARK    1  A    between atoms: C_1  and  O_2
REMARK    2  A    between atoms: O_2  and  C_3
REMARK    3  A    between atoms: C_3  and  C_5
REMARK    4  A    between atoms: C_5  and  C_6
REMARK    5  A    between atoms: C_10  and  O_11
REMARK    6  A    between atoms: O_11  and  C_12
REMARK    7  A    between atoms: C_12  and  C_13
REMARK    8  A    between atoms: C_22  and  C_23
REMARK    9  A    between atoms: N_25  and  O_26
REMARK                            x       y       z     vdW  Elec       q    Type
REMARK                         _______ _______ _______ _____ _____    ______ ____
ROOT
ATOM      1  C   UNL     1       3.654   5.633  18.766  0.00  0.00    +0.000 A 
ATOM      2  C   UNL     1       3.806   6.567  17.738  0.00  0.00    +0.000 A 
ATOM      3  C   UNL     1       3.068   7.757  17.742  0.00  0.00    +0.000 A 
ATOM      4  C   UNL     1       2.227   8.031  18.795  0.00  0.00    +0.000 A 
ATOM      5  C   UNL     1       2.052   7.143  19.836  0.00  0.00    +0.000 A 
ATOM      6  C   UNL     1       2.772   5.930  19.827  0.00  0.00    +0.000 A 
ENDROOT
BRANCH   1   7
ATOM      7  C   UNL     1       4.438   4.328  18.787  0.00  0.00    +0.000 C 
ATOM      8  C   UNL     1       4.048   3.338  19.881  0.00  0.00    +0.000 C 
ATOM      9  C   UNL     1       3.810   2.970  18.442  0.00  0.00    +0.000 C 
BRANCH   9  10
ATOM     10  C   UNL     1       2.430   2.778  17.929  0.00  0.00    +0.000 C 
ATOM     11  O   UNL     1       2.011   3.294  16.899  0.00  0.00    +0.000 OA
ATOM     12  N   UNL     1       1.640   1.997  18.735  0.00  0.00    +0.000 N 
ATOM     13  H   UNL     1       1.960   1.496  19.555  0.00  0.00    +0.000 HD
BRANCH  12  14
ATOM     14  O   UNL     1       0.309   1.769  18.319  0.00  0.00    +0.000 OA
ATOM     15  H   UNL     1       0.432   1.268  17.484  0.00  0.00    +0.000 HD
ENDBRANCH  12  14
ENDBRANCH   9  10
BRANCH   7  16
ATOM     16  C   UNL     1       5.867   4.495  18.348  0.00  0.00    +0.000 C 
ATOM     17  O   UNL     1       6.743   4.772  19.150  0.00  0.00    +0.000 OA
BRANCH  16  19
ATOM     18  C   UNL     1       7.033   5.089  16.418  0.00  0.00    +0.000 C 
ATOM     19  O   UNL     1       6.041   4.253  17.018  0.00  0.00    +0.000 OA
ENDBRANCH  16  19
ENDBRANCH   7  16
ENDBRANCH   1   7
BRANCH   5  20
ATOM     20  O   UNL     1       1.207   7.415  20.882  0.00  0.00    +0.000 OA
BRANCH  20  21
ATOM     21  C   UNL     1       1.697   8.457  21.740  0.00  0.00    +0.000 C 
BRANCH  21  22
ATOM     22  C   UNL     1       0.634   9.507  21.859  0.00  0.00    +0.000 A 
ATOM     23  C   UNL     1      -0.070   9.643  23.064  0.00  0.00    +0.000 A 
ATOM     24  C   UNL     1      -1.079  10.597  23.181  0.00  0.00    +0.000 A 
ATOM     25  C   UNL     1      -1.377  11.425  22.106  0.00  0.00    +0.000 A 
ATOM     26  C   UNL     1      -0.654  11.310  20.921  0.00  0.00    +0.000 A 
ATOM     27  F   UNL     1      -0.935  12.115  19.892  0.00  0.00    +0.000 F 
ATOM     28  C   UNL     1       0.349  10.358  20.789  0.00  0.00    +0.000 A 
ENDBRANCH  21  22
ENDBRANCH  20  21
ENDBRANCH   5  20
TORSDOF 8
ENDMDL
MODEL 9
REMARK VINA RESULT:      -7.7      3.367      6.647
REMARK  Name = 
REMARK  9 active torsions:
REMARK  status: ('A' for Active; 'I' for Inactive)
REMARK    1  A    between atoms: C_1  and  O_2
REMARK    2  A    between atoms: O_2  and  C_3
REMARK    3  A    between atoms: C_3  and  C_5
REMARK    4  A    between atoms: C_5  and  C_6
REMARK    5  A    between atoms: C_10  and  O_11
REMARK    6  A    between atoms: O_11  and  C_12
REMARK    7  A    between atoms: C_12  and  C_13
REMARK    8  A    between atoms: C_22  and  C_23
REMARK    9  A    between atoms: N_25  and  O_26
REMARK                            x       y       z     vdW  Elec       q    Type
REMARK                         _______ _______ _______ _____ _____    ______ ____
ROOT
ATOM      1  C   UNL     1       4.808   5.026  17.959  0.00  0.00    +0.000 A 
ATOM      2  C   UNL     1       5.742   5.468  18.899  0.00  0.00    +0.000 A 
ATOM      3  C   UNL     1       7.113   5.423  18.618  0.00  0.00    +0.000 A 
ATOM      4  C   UNL     1       7.538   4.990  17.384  0.00  0.00    +0.000 A 
ATOM      5  C   UNL     1       6.652   4.554  16.421  0.00  0.00    +0.000 A 
ATOM      6  C   UNL     1       5.271   4.571  16.707  0.00  0.00    +0.000 A 
ENDROOT
BRANCH   1   7
ATOM      7  C   UNL     1       3.312   5.059  18.238  0.00  0.00    +0.000 C 
ATOM      8  C   UNL     1       2.449   4.187  17.330  0.00  0.00    +0.000 C 
ATOM      9  C   UNL     1       2.539   3.853  18.793  0.00  0.00    +0.000 C 
BRANCH   9  10
ATOM     10  C   UNL     1       3.159   2.580  19.242  0.00  0.00    +0.000 C 
ATOM     11  O   UNL     1       3.404   2.321  20.415  0.00  0.00    +0.000 OA
ATOM     12  N   UNL     1       3.474   1.724  18.217  0.00  0.00    +0.000 N 
ATOM     13  H   UNL     1       3.230   1.864  17.244  0.00  0.00    +0.000 HD
BRANCH  12  14
ATOM     14  O   UNL     1       4.073   0.491  18.560  0.00  0.00    +0.000 OA
ATOM     15  H   UNL     1       3.886   0.425  19.521  0.00  0.00    +0.000 HD
ENDBRANCH  12  14
ENDBRANCH   9  10
BRANCH   7  16
ATOM     16  C   UNL     1       2.835   6.398  18.730  0.00  0.00    +0.000 C 
ATOM     17  O   UNL     1       2.382   6.530  19.855  0.00  0.00    +0.000 OA
BRANCH  16  19
ATOM     18  C   UNL     1       2.013   8.402  17.869  0.00  0.00    +0.000 C 
ATOM     19  O   UNL     1       3.022   7.392  17.817  0.00  0.00    +0.000 OA
ENDBRANCH  16  19
ENDBRANCH   7  16
ENDBRANCH   1   7
BRANCH   5  20
ATOM     20  O   UNL     1       7.079   4.115  15.194  0.00  0.00    +0.000 OA
BRANCH  20  21
ATOM     21  C   UNL     1       6.516   4.865  14.105  0.00  0.00    +0.000 C 
BRANCH  21  22
ATOM     22  C   UNL     1       6.132   3.904  13.021  0.00  0.00    +0.000 A 
ATOM     23  C   UNL     1       7.105   3.057  12.472  0.00  0.00    +0.000 A 
ATOM     24  C   UNL     1       6.769   2.177  11.446  0.00  0.00    +0.000 A 
ATOM     25  C   UNL     1       5.462   2.128  10.977  0.00  0.00    +0.000 A 
ATOM     26  C   UNL     1       4.490   2.947  11.546  0.00  0.00    +0.000 A 
ATOM     27  F   UNL     1       3.231   2.890  11.100  0.00  0.00    +0.000 F 
ATOM     28  C   UNL     1       4.814   3.834  12.564  0.00  0.00    +0.000 A 
ENDBRANCH  21  22
ENDBRANCH  20  21
ENDBRANCH   5  20
TORSDOF 8
ENDMDL
