MODEL 1
REMARK VINA RESULT:      -5.1      0.000      0.000
REMARK  Name = 
REMARK  3 active torsions:
REMARK  status: ('A' for Active; 'I' for Inactive)
REMARK    1  A    between atoms: N_4  and  C_5
REMARK    2  A    between atoms: C_5  and  C_6
REMARK    3  A    between atoms: C_6  and  N_7
REMARK                            x       y       z     vdW  Elec       q    Type
REMARK                         _______ _______ _______ _____ _____    ______ ____
ROOT
ATOM      1  C   UNL     1       4.508   4.185  18.395  0.00  0.00    +0.000 C 
ENDROOT
BRANCH   1   5
ATOM      2  N   UNL     1       3.292   2.556  20.438  0.00  0.00    +0.000 NA
ATOM      3  C   UNL     1       4.488   2.330  20.036  0.00  0.00    +0.000 C 
ATOM      4  N   UNL     1       5.273   1.382  20.580  0.00  0.00    +0.000 N 
ATOM      5  N   UNL     1       5.102   3.037  19.065  0.00  0.00    +0.000 N 
ATOM      6  H   UNL     1       3.064   1.924  21.207  0.00  0.00    +0.000 HD
ATOM      7  H   UNL     1       4.797   0.686  21.140  0.00  0.00    +0.000 HD
ATOM      8  H   UNL     1       5.961   0.968  19.967  0.00  0.00    +0.000 HD
ATOM      9  H   UNL     1       6.022   2.763  18.751  0.00  0.00    +0.000 HD
ENDBRANCH   1   5
BRANCH   1  10
ATOM     10  C   UNL     1       5.384   5.445  18.518  0.00  0.00    +0.000 C 
BRANCH  10  11
ATOM     11  N   UNL     1       6.143   5.715  17.302  0.00  0.00    +0.000 N 
ATOM     12  C   UNL     1       7.213   5.021  16.872  0.00  0.00    +0.000 C 
ATOM     13  N   UNL     1       7.907   4.152  17.511  0.00  0.00    +0.000 NA
ATOM     14  N   UNL     1       7.563   5.349  15.616  0.00  0.00    +0.000 N 
ATOM     15  H   UNL     1       5.588   6.137  16.569  0.00  0.00    +0.000 HD
ATOM     16  H   UNL     1       7.539   4.045  18.455  0.00  0.00    +0.000 HD
ATOM     17  H   UNL     1       7.492   6.337  15.415  0.00  0.00    +0.000 HD
ATOM     18  H   UNL     1       8.500   5.008  15.426  0.00  0.00    +0.000 HD
ENDBRANCH  10  11
ENDBRANCH   1  10
TORSDOF 3
ENDMDL
MODEL 2
REMARK VINA RESULT:      -5.0      1.716      4.822
REMARK  Name = 
REMARK  3 active torsions:
REMARK  status: ('A' for Active; 'I' for Inactive)
REMARK    1  A    between atoms: N_4  and  C_5
REMARK    2  A    between atoms: C_5  and  C_6
REMARK    3  A    between atoms: C_6  and  N_7
REMARK                            x       y       z     vdW  Elec       q    Type
REMARK                         _______ _______ _______ _____ _____    ______ ____
ROOT
ATOM      1  C   UNL     1       7.005   4.871  16.004  0.00  0.00    +0.000 C 
ENDROOT
BRANCH   1   5
ATOM      2  N   UNL     1       7.693   6.162  18.487  0.00  0.00    +0.000 NA
ATOM      3  C   UNL     1       7.544   6.838  17.409  0.00  0.00    +0.000 C 
ATOM      4  N   UNL     1       7.624   8.181  17.373  0.00  0.00    +0.000 N 
ATOM      5  N   UNL     1       7.251   6.291  16.211  0.00  0.00    +0.000 N 
ATOM      6  H   UNL     1       7.865   6.796  19.268  0.00  0.00    +0.000 HD
ATOM      7  H   UNL     1       8.059   8.616  18.177  0.00  0.00    +0.000 HD
ATOM      8  H   UNL     1       7.945   8.585  16.505  0.00  0.00    +0.000 HD
ATOM      9  H   UNL     1       7.213   6.875  15.389  0.00  0.00    +0.000 HD
ENDBRANCH   1   5
BRANCH   1  10
ATOM     10  C   UNL     1       5.573   4.467  16.402  0.00  0.00    +0.000 C 
BRANCH  10  11
ATOM     11  N   UNL     1       5.546   3.603  17.578  0.00  0.00    +0.000 N 
ATOM     12  C   UNL     1       5.093   3.949  18.798  0.00  0.00    +0.000 C 
ATOM     13  N   UNL     1       4.806   5.119  19.237  0.00  0.00    +0.000 NA
ATOM     14  N   UNL     1       4.977   2.889  19.618  0.00  0.00    +0.000 N 
ATOM     15  H   UNL     1       5.451   2.622  17.351  0.00  0.00    +0.000 HD
ATOM     16  H   UNL     1       4.982   5.812  18.512  0.00  0.00    +0.000 HD
ATOM     17  H   UNL     1       5.730   2.221  19.533  0.00  0.00    +0.000 HD
ATOM     18  H   UNL     1       4.886   3.213  20.576  0.00  0.00    +0.000 HD
ENDBRANCH  10  11
ENDBRANCH   1  10
TORSDOF 3
ENDMDL
MODEL 3
REMARK VINA RESULT:      -5.0      2.947      5.041
REMARK  Name = 
REMARK  3 active torsions:
REMARK  status: ('A' for Active; 'I' for Inactive)
REMARK    1  A    between atoms: N_4  and  C_5
REMARK    2  A    between atoms: C_5  and  C_6
REMARK    3  A    between atoms: C_6  and  N_7
REMARK                            x       y       z     vdW  Elec       q    Type
REMARK                         _______ _______ _______ _____ _____    ______ ____
ROOT
ATOM      1  C   UNL     1       3.957   4.479  18.910  0.00  0.00    +0.000 C 
ENDROOT
BRANCH   1   5
ATOM      2  N   UNL     1       4.892   2.033  20.114  0.00  0.00    +0.000 NA
ATOM      3  C   UNL     1       4.209   2.018  19.029  0.00  0.00    +0.000 C 
ATOM      4  N   UNL     1       3.947   0.888  18.348  0.00  0.00    +0.000 N 
ATOM      5  N   UNL     1       3.719   3.124  18.433  0.00  0.00    +0.000 N 
ATOM      6  H   UNL     1       5.188   1.083  20.345  0.00  0.00    +0.000 HD
ATOM      7  H   UNL     1       4.088   0.025  18.858  0.00  0.00    +0.000 HD
ATOM      8  H   UNL     1       3.087   0.876  17.818  0.00  0.00    +0.000 HD
ATOM      9  H   UNL     1       3.133   3.035  17.616  0.00  0.00    +0.000 HD
ENDBRANCH   1   5
BRANCH   1  10
ATOM     10  C   UNL     1       2.767   5.026  19.720  0.00  0.00    +0.000 C 
BRANCH  10  11
ATOM     11  N   UNL     1       2.491   4.227  20.910  0.00  0.00    +0.000 N 
ATOM     12  C   UNL     1       1.483   3.345  21.048  0.00  0.00    +0.000 C 
ATOM     13  N   UNL     1       0.461   3.180  20.291  0.00  0.00    +0.000 NA
ATOM     14  N   UNL     1       1.611   2.595  22.156  0.00  0.00    +0.000 N 
ATOM     15  H   UNL     1       3.319   4.015  21.450  0.00  0.00    +0.000 HD
ATOM     16  H   UNL     1       0.492   3.846  19.521  0.00  0.00    +0.000 HD
ATOM     17  H   UNL     1       1.945   3.105  22.962  0.00  0.00    +0.000 HD
ATOM     18  H   UNL     1       0.727   2.138  22.359  0.00  0.00    +0.000 HD
ENDBRANCH  10  11
ENDBRANCH   1  10
TORSDOF 3
ENDMDL
MODEL 4
REMARK VINA RESULT:      -5.0      3.472      4.922
REMARK  Name = 
REMARK  3 active torsions:
REMARK  status: ('A' for Active; 'I' for Inactive)
REMARK    1  A    between atoms: N_4  and  C_5
REMARK    2  A    between atoms: C_5  and  C_6
REMARK    3  A    between atoms: C_6  and  N_7
REMARK                            x       y       z     vdW  Elec       q    Type
REMARK                         _______ _______ _______ _____ _____    ______ ____
ROOT
ATOM      1  C   UNL     1       1.128   3.071  20.283  0.00  0.00    +0.000 C 
ENDROOT
BRANCH   1   5
ATOM      2  N   UNL     1       3.302   4.962  20.328  0.00  0.00    +0.000 NA
ATOM      3  C   UNL     1       2.088   5.345  20.479  0.00  0.00    +0.000 C 
ATOM      4  N   UNL     1       1.754   6.622  20.738  0.00  0.00    +0.000 N 
ATOM      5  N   UNL     1       1.026   4.515  20.439  0.00  0.00    +0.000 N 
ATOM      6  H   UNL     1       3.929   5.759  20.442  0.00  0.00    +0.000 HD
ATOM      7  H   UNL     1       2.473   7.310  20.554  0.00  0.00    +0.000 HD
ATOM      8  H   UNL     1       0.849   6.923  20.403  0.00  0.00    +0.000 HD
ATOM      9  H   UNL     1       0.092   4.892  20.500  0.00  0.00    +0.000 HD
ENDBRANCH   1   5
BRANCH   1  10
ATOM     10  C   UNL     1       1.168   2.650  18.802  0.00  0.00    +0.000 C 
BRANCH  10  11
ATOM     11  N   UNL     1       2.152   1.602  18.549  0.00  0.00    +0.000 N 
ATOM     12  C   UNL     1       3.468   1.791  18.345  0.00  0.00    +0.000 C 
ATOM     13  N   UNL     1       4.088   2.890  18.116  0.00  0.00    +0.000 NA
ATOM     14  N   UNL     1       4.159   0.637  18.367  0.00  0.00    +0.000 N 
ATOM     15  H   UNL     1       1.910   0.716  18.974  0.00  0.00    +0.000 HD
ATOM     16  H   UNL     1       3.423   3.661  18.094  0.00  0.00    +0.000 HD
ATOM     17  H   UNL     1       3.687  -0.133  17.914  0.00  0.00    +0.000 HD
ATOM     18  H   UNL     1       5.078   0.786  17.963  0.00  0.00    +0.000 HD
ENDBRANCH  10  11
ENDBRANCH   1  10
TORSDOF 3
ENDMDL
MODEL 5
REMARK VINA RESULT:      -4.9      1.303      4.595
REMARK  Name = 
REMARK  3 active torsions:
REMARK  status: ('A' for Active; 'I' for Inactive)
REMARK    1  A    between atoms: N_4  and  C_5
REMARK    2  A    between atoms: C_5  and  C_6
REMARK    3  A    between atoms: C_6  and  N_7
REMARK                            x       y       z     vdW  Elec       q    Type
REMARK                         _______ _______ _______ _____ _____    ______ ____
ROOT
ATOM      1  C   UNL     1       6.028   6.520  17.612  0.00  0.00    +0.000 C 
ENDROOT
BRANCH   1   5
ATOM      2  N   UNL     1       7.654   4.327  16.689  0.00  0.00    +0.000 NA
ATOM      3  C   UNL     1       7.180   5.191  15.869  0.00  0.00    +0.000 C 
ATOM      4  N   UNL     1       7.463   5.179  14.553  0.00  0.00    +0.000 N 
ATOM      5  N   UNL     1       6.390   6.222  16.234  0.00  0.00    +0.000 N 
ATOM      6  H   UNL     1       8.256   3.673  16.186  0.00  0.00    +0.000 HD
ATOM      7  H   UNL     1       7.852   4.317  14.195  0.00  0.00    +0.000 HD
ATOM      8  H   UNL     1       6.751   5.555  13.941  0.00  0.00    +0.000 HD
ATOM      9  H   UNL     1       5.997   6.827  15.528  0.00  0.00    +0.000 HD
ENDBRANCH   1   5
BRANCH   1  10
ATOM     10  C   UNL     1       4.614   6.019  17.961  0.00  0.00    +0.000 C 
BRANCH  10  11
ATOM     11  N   UNL     1       4.636   4.895  18.890  0.00  0.00    +0.000 N 
ATOM     12  C   UNL     1       4.761   3.598  18.553  0.00  0.00    +0.000 C 
ATOM     13  N   UNL     1       4.670   3.066  17.389  0.00  0.00    +0.000 NA
ATOM     14  N   UNL     1       4.979   2.811  19.622  0.00  0.00    +0.000 N 
ATOM     15  H   UNL     1       5.006   5.135  19.800  0.00  0.00    +0.000 HD
ATOM     16  H   UNL     1       4.466   3.785  16.697  0.00  0.00    +0.000 HD
ATOM     17  H   UNL     1       4.440   3.067  20.437  0.00  0.00    +0.000 HD
ATOM     18  H   UNL     1       4.813   1.842  19.367  0.00  0.00    +0.000 HD
ENDBRANCH  10  11
ENDBRANCH   1  10
TORSDOF 3
ENDMDL
MODEL 6
REMARK VINA RESULT:      -4.9      1.695      4.938
REMARK  Name = 
REMARK  3 active torsions:
REMARK  status: ('A' for Active; 'I' for Inactive)
REMARK    1  A    between atoms: N_4  and  C_5
REMARK    2  A    between atoms: C_5  and  C_6
REMARK    3  A    between atoms: C_6  and  N_7
REMARK                            x       y       z     vdW  Elec       q    Type
REMARK                         _______ _______ _______ _____ _____    ______ ____
ROOT
ATOM      1  C   UNL     1       6.259   4.627  17.943  0.00  0.00    +0.000 C 
ENDROOT
BRANCH   1   5
ATOM      2  N   UNL     1       7.428   5.405  15.426  0.00  0.00    +0.000 NA
ATOM      3  C   UNL     1       6.676   4.370  15.515  0.00  0.00    +0.000 C 
ATOM      4  N   UNL     1       6.326   3.629  14.448  0.00  0.00    +0.000 N 
ATOM      5  N   UNL     1       6.124   3.938  16.667  0.00  0.00    +0.000 N 
ATOM      6  H   UNL     1       7.688   5.556  14.450  0.00  0.00    +0.000 HD
ATOM      7  H   UNL     1       6.884   3.768  13.615  0.00  0.00    +0.000 HD
ATOM      8  H   UNL     1       6.147   2.650  14.625  0.00  0.00    +0.000 HD
ATOM      9  H   UNL     1       5.596   3.078  16.679  0.00  0.00    +0.000 HD
ENDBRANCH   1   5
BRANCH   1  10
ATOM     10  C   UNL     1       5.159   4.220  18.941  0.00  0.00    +0.000 C 
BRANCH  10  11
ATOM     11  N   UNL     1       4.930   2.779  18.958  0.00  0.00    +0.000 N 
ATOM     12  C   UNL     1       3.803   2.157  18.563  0.00  0.00    +0.000 C 
ATOM     13  N   UNL     1       2.657   2.673  18.308  0.00  0.00    +0.000 NA
ATOM     14  N   UNL     1       3.961   0.824  18.474  0.00  0.00    +0.000 N 
ATOM     15  H   UNL     1       5.777   2.238  18.843  0.00  0.00    +0.000 HD
ATOM     16  H   UNL     1       2.693   3.680  18.458  0.00  0.00    +0.000 HD
ATOM     17  H   UNL     1       4.520   0.426  19.215  0.00  0.00    +0.000 HD
ATOM     18  H   UNL     1       3.050   0.379  18.429  0.00  0.00    +0.000 HD
ENDBRANCH  10  11
ENDBRANCH   1  10
TORSDOF 3
ENDMDL
MODEL 7
REMARK VINA RESULT:      -4.9     11.395     12.475
REMARK  Name = 
REMARK  3 active torsions:
REMARK  status: ('A' for Active; 'I' for Inactive)
REMARK    1  A    between atoms: N_4  and  C_5
REMARK    2  A    between atoms: C_5  and  C_6
REMARK    3  A    between atoms: C_6  and  N_7
REMARK                            x       y       z     vdW  Elec       q    Type
REMARK                         _______ _______ _______ _____ _____    ______ ____
ROOT
ATOM      1  C   UNL     1      -3.406  10.441  15.604  0.00  0.00    +0.000 C 
ENDROOT
BRANCH   1   5
ATOM      2  N   UNL     1      -3.242  11.740  18.171  0.00  0.00    +0.000 NA
ATOM      3  C   UNL     1      -2.279  11.815  17.328  0.00  0.00    +0.000 C 
ATOM      4  N   UNL     1      -1.175  12.552  17.548  0.00  0.00    +0.000 N 
ATOM      5  N   UNL     1      -2.283  11.207  16.125  0.00  0.00    +0.000 N 
ATOM      6  H   UNL     1      -3.029  12.316  18.987  0.00  0.00    +0.000 HD
ATOM      7  H   UNL     1      -1.019  12.835  18.506  0.00  0.00    +0.000 HD
ATOM      8  H   UNL     1      -0.325  12.223  17.109  0.00  0.00    +0.000 HD
ATOM      9  H   UNL     1      -1.463  11.253  15.537  0.00  0.00    +0.000 HD
ENDBRANCH   1   5
BRANCH   1  10
ATOM     10  C   UNL     1      -3.217  10.070  14.121  0.00  0.00    +0.000 C 
BRANCH  10  11
ATOM     11  N   UNL     1      -4.487   9.898  13.425  0.00  0.00    +0.000 N 
ATOM     12  C   UNL     1      -4.639   9.700  12.102  0.00  0.00    +0.000 C 
ATOM     13  N   UNL     1      -3.765   9.832  11.172  0.00  0.00    +0.000 NA
ATOM     14  N   UNL     1      -5.896   9.347  11.780  0.00  0.00    +0.000 N 
ATOM     15  H   UNL     1      -5.207   9.483  14.002  0.00  0.00    +0.000 HD
ATOM     16  H   UNL     1      -2.880  10.138  11.573  0.00  0.00    +0.000 HD
ATOM     17  H   UNL     1      -6.607   9.845  12.297  0.00  0.00    +0.000 HD
ATOM     18  H   UNL     1      -6.032   9.458  10.780  0.00  0.00    +0.000 HD
ENDBRANCH  10  11
ENDBRANCH   1  10
TORSDOF 3
ENDMDL
MODEL 8
REMARK VINA RESULT:      -4.9      2.291      2.696
REMARK  Name = 
REMARK  3 active torsions:
REMARK  status: ('A' for Active; 'I' for Inactive)
REMARK    1  A    between atoms: N_4  and  C_5
REMARK    2  A    between atoms: C_5  and  C_6
REMARK    3  A    between atoms: C_6  and  N_7
REMARK                            x       y       z     vdW  Elec       q    Type
REMARK                         _______ _______ _______ _____ _____    ______ ____
ROOT
ATOM      1  C   UNL     1       4.936   4.366  17.477  0.00  0.00    +0.000 C 
ENDROOT
BRANCH   1   5
ATOM      2  N   UNL     1       2.321   3.202  17.140  0.00  0.00    +0.000 NA
ATOM      3  C   UNL     1       3.249   2.577  17.766  0.00  0.00    +0.000 C 
ATOM      4  N   UNL     1       3.051   1.387  18.363  0.00  0.00    +0.000 N 
ATOM      5  N   UNL     1       4.499   3.054  17.932  0.00  0.00    +0.000 N 
ATOM      6  H   UNL     1       1.455   2.663  17.184  0.00  0.00    +0.000 HD
ATOM      7  H   UNL     1       2.218   0.887  18.081  0.00  0.00    +0.000 HD
ATOM      8  H   UNL     1       3.856   0.778  18.421  0.00  0.00    +0.000 HD
ATOM      9  H   UNL     1       5.200   2.481  18.378  0.00  0.00    +0.000 HD
ENDBRANCH   1   5
BRANCH   1  10
ATOM     10  C   UNL     1       5.186   5.333  18.649  0.00  0.00    +0.000 C 
BRANCH  10  11
ATOM     11  N   UNL     1       6.416   5.024  19.371  0.00  0.00    +0.000 N 
ATOM     12  C   UNL     1       7.558   5.734  19.319  0.00  0.00    +0.000 C 
ATOM     13  N   UNL     1       7.880   6.664  18.496  0.00  0.00    +0.000 NA
ATOM     14  N   UNL     1       8.441   5.349  20.257  0.00  0.00    +0.000 N 
ATOM     15  H   UNL     1       6.255   4.540  20.245  0.00  0.00    +0.000 HD
ATOM     16  H   UNL     1       7.124   6.810  17.829  0.00  0.00    +0.000 HD
ATOM     17  H   UNL     1       8.478   4.350  20.401  0.00  0.00    +0.000 HD
ATOM     18  H   UNL     1       9.360   5.716  20.027  0.00  0.00    +0.000 HD
ENDBRANCH  10  11
ENDBRANCH   1  10
TORSDOF 3
ENDMDL
MODEL 9
REMARK VINA RESULT:      -4.9      2.666      3.527
REMARK  Name = 
REMARK  3 active torsions:
REMARK  status: ('A' for Active; 'I' for Inactive)
REMARK    1  A    between atoms: N_4  and  C_5
REMARK    2  A    between atoms: C_5  and  C_6
REMARK    3  A    between atoms: C_6  and  N_7
REMARK                            x       y       z     vdW  Elec       q    Type
REMARK                         _______ _______ _______ _____ _____    ______ ____
ROOT
ATOM      1  C   UNL     1       2.236   5.797  20.130  0.00  0.00    +0.000 C 
ENDROOT
BRANCH   1   5
ATOM      2  N   UNL     1       0.757   3.325  20.206  0.00  0.00    +0.000 NA
ATOM      3  C   UNL     1       1.615   3.612  21.115  0.00  0.00    +0.000 C 
ATOM      4  N   UNL     1       1.828   2.829  22.188  0.00  0.00    +0.000 N 
ATOM      5  N   UNL     1       2.358   4.737  21.120  0.00  0.00    +0.000 N 
ATOM      6  H   UNL     1       0.290   2.448  20.441  0.00  0.00    +0.000 HD
ATOM      7  H   UNL     1       1.475   1.884  22.119  0.00  0.00    +0.000 HD
ATOM      8  H   UNL     1       2.759   2.857  22.581  0.00  0.00    +0.000 HD
ATOM      9  H   UNL     1       3.062   4.869  21.831  0.00  0.00    +0.000 HD
ENDBRANCH   1   5
BRANCH   1  10
ATOM     10  C   UNL     1       3.346   5.726  19.065  0.00  0.00    +0.000 C 
BRANCH  10  11
ATOM     11  N   UNL     1       3.372   4.442  18.373  0.00  0.00    +0.000 N 
ATOM     12  C   UNL     1       4.322   3.498  18.502  0.00  0.00    +0.000 C 
ATOM     13  N   UNL     1       5.473   3.598  19.059  0.00  0.00    +0.000 NA
ATOM     14  N   UNL     1       3.968   2.335  17.926  0.00  0.00    +0.000 N 
ATOM     15  H   UNL     1       2.450   4.090  18.150  0.00  0.00    +0.000 HD
ATOM     16  H   UNL     1       5.604   4.545  19.410  0.00  0.00    +0.000 HD
ATOM     17  H   UNL     1       3.485   2.444  17.045  0.00  0.00    +0.000 HD
ATOM     18  H   UNL     1       4.789   1.748  17.819  0.00  0.00    +0.000 HD
ENDBRANCH  10  11
ENDBRANCH   1  10
TORSDOF 3
ENDMDL
