MODEL 1
REMARK VINA RESULT:      -7.5      0.000      0.000
REMARK  Name = 
REMARK  5 active torsions:
REMARK  status: ('A' for Active; 'I' for Inactive)
REMARK    1  A    between atoms: C_1  and  C_2
REMARK    2  A    between atoms: C_3  and  C_4
REMARK    3  A    between atoms: C_7  and  O_8
REMARK    4  A    between atoms: C_9  and  O_10
REMARK    5  A    between atoms: C_16  and  O_17
REMARK                            x       y       z     vdW  Elec       q    Type
REMARK                         _______ _______ _______ _____ _____    ______ ____
ROOT
ATOM      1  C   UNL     1       2.682   7.889  17.585  0.00  0.00    +0.000 C 
ATOM      2  C   UNL     1       2.196   7.797  18.991  0.00  0.00    +0.000 A 
ATOM      3  C   UNL     1       2.315   6.738  19.889  0.00  0.00    +0.000 A 
ATOM      4  N   UNL     1       1.686   7.139  21.049  0.00  0.00    +0.000 N 
ATOM      5  C   UNL     1       1.180   8.409  20.941  0.00  0.00    +0.000 A 
ATOM      6  C   UNL     1       0.485   9.190  21.872  0.00  0.00    +0.000 A 
ATOM      7  C   UNL     1       0.106  10.479  21.484  0.00  0.00    +0.000 A 
ATOM      8  C   UNL     1       0.417  10.948  20.213  0.00  0.00    +0.000 A 
ATOM      9  C   UNL     1       1.102  10.159  19.290  0.00  0.00    +0.000 A 
ATOM     10  C   UNL     1       1.494   8.855  19.661  0.00  0.00    +0.000 A 
ATOM     11  H   UNL     1       1.633   6.582  21.889  0.00  0.00    +0.000 HD
ENDROOT
BRANCH   3  12
ATOM     12  C   UNL     1       2.985   5.432  19.800  0.00  0.00    +0.000 A 
ATOM     13  C   UNL     1       2.352   4.265  20.271  0.00  0.00    +0.000 A 
ATOM     14  C   UNL     1       3.005   3.027  20.253  0.00  0.00    +0.000 A 
ATOM     15  C   UNL     1       4.295   2.951  19.746  0.00  0.00    +0.000 A 
ATOM     16  C   UNL     1       4.920   4.091  19.255  0.00  0.00    +0.000 A 
ATOM     17  C   UNL     1       4.283   5.326  19.288  0.00  0.00    +0.000 A 
BRANCH  15  18
ATOM     18  O   UNL     1       4.997   1.777  19.717  0.00  0.00    +0.000 OA
ATOM     19  H   UNL     1       4.772   1.270  20.516  0.00  0.00    +0.000 HD
ENDBRANCH  15  18
BRANCH  16  20
ATOM     20  O   UNL     1       6.185   4.010  18.745  0.00  0.00    +0.000 OA
ATOM     21  H   UNL     1       6.089   3.458  17.943  0.00  0.00    +0.000 HD
ENDBRANCH  16  20
ENDBRANCH   3  12
BRANCH   8  22
ATOM     22  O   UNL     1       0.061  12.207  19.818  0.00  0.00    +0.000 OA
ATOM     23  H   UNL     1      -0.823  12.402  20.171  0.00  0.00    +0.000 HD
ENDBRANCH   8  22
TORSDOF 4
ENDMDL
MODEL 2
REMARK VINA RESULT:      -7.3      1.195      1.251
REMARK  Name = 
REMARK  5 active torsions:
REMARK  status: ('A' for Active; 'I' for Inactive)
REMARK    1  A    between atoms: C_1  and  C_2
REMARK    2  A    between atoms: C_3  and  C_4
REMARK    3  A    between atoms: C_7  and  O_8
REMARK    4  A    between atoms: C_9  and  O_10
REMARK    5  A    between atoms: C_16  and  O_17
REMARK                            x       y       z     vdW  Elec       q    Type
REMARK                         _______ _______ _______ _____ _____    ______ ____
ROOT
ATOM      1  C   UNL     1       2.137   8.735  17.604  0.00  0.00    +0.000 C 
ATOM      2  C   UNL     1       1.880   8.258  18.992  0.00  0.00    +0.000 A 
ATOM      3  C   UNL     1       2.113   6.997  19.540  0.00  0.00    +0.000 A 
ATOM      4  N   UNL     1       1.688   7.058  20.850  0.00  0.00    +0.000 N 
ATOM      5  C   UNL     1       1.205   8.300  21.172  0.00  0.00    +0.000 A 
ATOM      6  C   UNL     1       0.690   8.787  22.378  0.00  0.00    +0.000 A 
ATOM      7  C   UNL     1       0.287  10.126  22.420  0.00  0.00    +0.000 A 
ATOM      8  C   UNL     1       0.403  10.927  21.289  0.00  0.00    +0.000 A 
ATOM      9  C   UNL     1       0.911  10.430  20.090  0.00  0.00    +0.000 A 
ATOM     10  C   UNL     1       1.322   9.082  20.027  0.00  0.00    +0.000 A 
ATOM     11  H   UNL     1       1.755   6.293  21.506  0.00  0.00    +0.000 HD
ENDROOT
BRANCH   3  12
ATOM     12  C   UNL     1       2.725   5.777  18.995  0.00  0.00    +0.000 A 
ATOM     13  C   UNL     1       1.995   4.925  18.142  0.00  0.00    +0.000 A 
ATOM     14  C   UNL     1       2.544   3.725  17.670  0.00  0.00    +0.000 A 
ATOM     15  C   UNL     1       3.837   3.382  18.040  0.00  0.00    +0.000 A 
ATOM     16  C   UNL     1       4.575   4.227  18.860  0.00  0.00    +0.000 A 
ATOM     17  C   UNL     1       4.029   5.410  19.346  0.00  0.00    +0.000 A 
BRANCH  15  18
ATOM     18  O   UNL     1       4.425   2.217  17.632  0.00  0.00    +0.000 OA
ATOM     19  H   UNL     1       5.378   2.380  17.528  0.00  0.00    +0.000 HD
ENDBRANCH  15  18
BRANCH  16  20
ATOM     20  O   UNL     1       5.853   3.893  19.212  0.00  0.00    +0.000 OA
ATOM     21  H   UNL     1       6.368   4.006  18.388  0.00  0.00    +0.000 HD
ENDBRANCH  16  20
ENDBRANCH   3  12
BRANCH   8  22
ATOM     22  O   UNL     1       0.023  12.239  21.312  0.00  0.00    +0.000 OA
ATOM     23  H   UNL     1       0.712  12.768  20.878  0.00  0.00    +0.000 HD
ENDBRANCH   8  22
TORSDOF 4
ENDMDL
MODEL 3
REMARK VINA RESULT:      -7.3      4.805      6.855
REMARK  Name = 
REMARK  5 active torsions:
REMARK  status: ('A' for Active; 'I' for Inactive)
REMARK    1  A    between atoms: C_1  and  C_2
REMARK    2  A    between atoms: C_3  and  C_4
REMARK    3  A    between atoms: C_7  and  O_8
REMARK    4  A    between atoms: C_9  and  O_10
REMARK    5  A    between atoms: C_16  and  O_17
REMARK                            x       y       z     vdW  Elec       q    Type
REMARK                         _______ _______ _______ _____ _____    ______ ____
ROOT
ATOM      1  C   UNL     1       6.462   5.431  19.027  0.00  0.00    +0.000 C 
ATOM      2  C   UNL     1       5.771   4.639  17.971  0.00  0.00    +0.000 A 
ATOM      3  C   UNL     1       4.668   3.796  18.092  0.00  0.00    +0.000 A 
ATOM      4  N   UNL     1       4.428   3.285  16.834  0.00  0.00    +0.000 N 
ATOM      5  C   UNL     1       5.316   3.771  15.909  0.00  0.00    +0.000 A 
ATOM      6  C   UNL     1       5.422   3.522  14.536  0.00  0.00    +0.000 A 
ATOM      7  C   UNL     1       6.430   4.188  13.831  0.00  0.00    +0.000 A 
ATOM      8  C   UNL     1       7.287   5.060  14.491  0.00  0.00    +0.000 A 
ATOM      9  C   UNL     1       7.178   5.295  15.861  0.00  0.00    +0.000 A 
ATOM     10  C   UNL     1       6.168   4.634  16.591  0.00  0.00    +0.000 A 
ATOM     11  H   UNL     1       3.669   2.658  16.609  0.00  0.00    +0.000 HD
ENDROOT
BRANCH   3  12
ATOM     12  C   UNL     1       3.798   3.458  19.228  0.00  0.00    +0.000 A 
ATOM     13  C   UNL     1       4.234   2.566  20.229  0.00  0.00    +0.000 A 
ATOM     14  C   UNL     1       3.390   2.185  21.279  0.00  0.00    +0.000 A 
ATOM     15  C   UNL     1       2.107   2.710  21.340  0.00  0.00    +0.000 A 
ATOM     16  C   UNL     1       1.675   3.610  20.374  0.00  0.00    +0.000 A 
ATOM     17  C   UNL     1       2.501   3.978  19.318  0.00  0.00    +0.000 A 
BRANCH  15  18
ATOM     18  O   UNL     1       1.225   2.365  22.328  0.00  0.00    +0.000 OA
ATOM     19  H   UNL     1       1.113   1.399  22.308  0.00  0.00    +0.000 HD
ENDBRANCH  15  18
BRANCH  16  20
ATOM     20  O   UNL     1       0.415   4.136  20.444  0.00  0.00    +0.000 OA
ATOM     21  H   UNL     1       0.029   3.734  21.247  0.00  0.00    +0.000 HD
ENDBRANCH  16  20
ENDBRANCH   3  12
BRANCH   8  22
ATOM     22  O   UNL     1       8.273   5.725  13.818  0.00  0.00    +0.000 OA
ATOM     23  H   UNL     1       7.858   6.338  13.190  0.00  0.00    +0.000 HD
ENDBRANCH   8  22
TORSDOF 4
ENDMDL
MODEL 4
REMARK VINA RESULT:      -7.2      4.872      6.883
REMARK  Name = 
REMARK  5 active torsions:
REMARK  status: ('A' for Active; 'I' for Inactive)
REMARK    1  A    between atoms: C_1  and  C_2
REMARK    2  A    between atoms: C_3  and  C_4
REMARK    3  A    between atoms: C_7  and  O_8
REMARK    4  A    between atoms: C_9  and  O_10
REMARK    5  A    between atoms: C_16  and  O_17
REMARK                            x       y       z     vdW  Elec       q    Type
REMARK                         _______ _______ _______ _____ _____    ______ ____
ROOT
ATOM      1  C   UNL     1       6.248   5.425  18.719  0.00  0.00    +0.000 C 
ATOM      2  C   UNL     1       5.607   4.722  17.571  0.00  0.00    +0.000 A 
ATOM      3  C   UNL     1       4.450   3.944  17.558  0.00  0.00    +0.000 A 
ATOM      4  N   UNL     1       4.292   3.504  16.261  0.00  0.00    +0.000 N 
ATOM      5  C   UNL     1       5.283   3.974  15.439  0.00  0.00    +0.000 A 
ATOM      6  C   UNL     1       5.493   3.778  14.069  0.00  0.00    +0.000 A 
ATOM      7  C   UNL     1       6.596   4.410  13.484  0.00  0.00    +0.000 A 
ATOM      8  C   UNL     1       7.442   5.199  14.255  0.00  0.00    +0.000 A 
ATOM      9  C   UNL     1       7.228   5.381  15.621  0.00  0.00    +0.000 A 
ATOM     10  C   UNL     1       6.121   4.753  16.231  0.00  0.00    +0.000 A 
ATOM     11  H   UNL     1       3.520   2.936  15.943  0.00  0.00    +0.000 HD
ENDROOT
BRANCH   3  12
ATOM     12  C   UNL     1       3.467   3.612  18.599  0.00  0.00    +0.000 A 
ATOM     13  C   UNL     1       2.110   3.959  18.445  0.00  0.00    +0.000 A 
ATOM     14  C   UNL     1       1.177   3.708  19.458  0.00  0.00    +0.000 A 
ATOM     15  C   UNL     1       1.598   3.091  20.628  0.00  0.00    +0.000 A 
ATOM     16  C   UNL     1       2.929   2.721  20.780  0.00  0.00    +0.000 A 
ATOM     17  C   UNL     1       3.864   2.984  19.786  0.00  0.00    +0.000 A 
BRANCH  15  18
ATOM     18  O   UNL     1       0.743   2.835  21.664  0.00  0.00    +0.000 OA
ATOM     19  H   UNL     1       0.683   1.871  21.775  0.00  0.00    +0.000 HD
ENDBRANCH  15  18
BRANCH  16  20
ATOM     20  O   UNL     1       3.339   2.102  21.928  0.00  0.00    +0.000 OA
ATOM     21  H   UNL     1       4.316   2.129  21.883  0.00  0.00    +0.000 HD
ENDBRANCH  16  20
ENDBRANCH   3  12
BRANCH   8  22
ATOM     22  O   UNL     1       8.519   5.830  13.700  0.00  0.00    +0.000 OA
ATOM     23  H   UNL     1       8.662   5.469  12.810  0.00  0.00    +0.000 HD
ENDBRANCH   8  22
TORSDOF 4
ENDMDL
MODEL 5
REMARK VINA RESULT:      -7.1      1.619      6.781
REMARK  Name = 
REMARK  5 active torsions:
REMARK  status: ('A' for Active; 'I' for Inactive)
REMARK    1  A    between atoms: C_1  and  C_2
REMARK    2  A    between atoms: C_3  and  C_4
REMARK    3  A    between atoms: C_7  and  O_8
REMARK    4  A    between atoms: C_9  and  O_10
REMARK    5  A    between atoms: C_16  and  O_17
REMARK                            x       y       z     vdW  Elec       q    Type
REMARK                         _______ _______ _______ _____ _____    ______ ____
ROOT
ATOM      1  C   UNL     1       2.683   8.268  17.648  0.00  0.00    +0.000 C 
ATOM      2  C   UNL     1       2.557   7.276  18.754  0.00  0.00    +0.000 A 
ATOM      3  C   UNL     1       1.954   7.431  20.001  0.00  0.00    +0.000 A 
ATOM      4  N   UNL     1       2.120   6.233  20.665  0.00  0.00    +0.000 N 
ATOM      5  C   UNL     1       2.789   5.314  19.898  0.00  0.00    +0.000 A 
ATOM      6  C   UNL     1       3.154   3.993  20.178  0.00  0.00    +0.000 A 
ATOM      7  C   UNL     1       3.822   3.277  19.179  0.00  0.00    +0.000 A 
ATOM      8  C   UNL     1       4.105   3.877  17.958  0.00  0.00    +0.000 A 
ATOM      9  C   UNL     1       3.743   5.197  17.691  0.00  0.00    +0.000 A 
ATOM     10  C   UNL     1       3.069   5.937  18.685  0.00  0.00    +0.000 A 
ATOM     11  H   UNL     1       1.762   6.040  21.589  0.00  0.00    +0.000 HD
ENDROOT
BRANCH   3  12
ATOM     12  C   UNL     1       1.209   8.541  20.613  0.00  0.00    +0.000 A 
ATOM     13  C   UNL     1       0.740   9.613  19.826  0.00  0.00    +0.000 A 
ATOM     14  C   UNL     1       0.089  10.708  20.406  0.00  0.00    +0.000 A 
ATOM     15  C   UNL     1      -0.111  10.726  21.780  0.00  0.00    +0.000 A 
ATOM     16  C   UNL     1       0.324   9.663  22.562  0.00  0.00    +0.000 A 
ATOM     17  C   UNL     1       0.988   8.582  21.994  0.00  0.00    +0.000 A 
BRANCH  15  18
ATOM     18  O   UNL     1      -0.722  11.774  22.412  0.00  0.00    +0.000 OA
ATOM     19  H   UNL     1      -0.533  11.704  23.364  0.00  0.00    +0.000 HD
ENDBRANCH  15  18
BRANCH  16  20
ATOM     20  O   UNL     1       0.114   9.678  23.913  0.00  0.00    +0.000 OA
ATOM     21  H   UNL     1      -0.321   8.821  24.099  0.00  0.00    +0.000 HD
ENDBRANCH  16  20
ENDBRANCH   3  12
BRANCH   8  22
ATOM     22  O   UNL     1       4.749   3.192  16.967  0.00  0.00    +0.000 OA
ATOM     23  H   UNL     1       4.907   2.283  17.273  0.00  0.00    +0.000 HD
ENDBRANCH   8  22
TORSDOF 4
ENDMDL
MODEL 6
REMARK VINA RESULT:      -7.1      1.516      1.855
REMARK  Name = 
REMARK  5 active torsions:
REMARK  status: ('A' for Active; 'I' for Inactive)
REMARK    1  A    between atoms: C_1  and  C_2
REMARK    2  A    between atoms: C_3  and  C_4
REMARK    3  A    between atoms: C_7  and  O_8
REMARK    4  A    between atoms: C_9  and  O_10
REMARK    5  A    between atoms: C_16  and  O_17
REMARK                            x       y       z     vdW  Elec       q    Type
REMARK                         _______ _______ _______ _____ _____    ______ ____
ROOT
ATOM      1  C   UNL     1       2.094   8.920  17.706  0.00  0.00    +0.000 C 
ATOM      2  C   UNL     1       1.806   8.442  19.088  0.00  0.00    +0.000 A 
ATOM      3  C   UNL     1       2.074   7.197  19.655  0.00  0.00    +0.000 A 
ATOM      4  N   UNL     1       1.598   7.249  20.949  0.00  0.00    +0.000 N 
ATOM      5  C   UNL     1       1.051   8.471  21.242  0.00  0.00    +0.000 A 
ATOM      6  C   UNL     1       0.471   8.944  22.424  0.00  0.00    +0.000 A 
ATOM      7  C   UNL     1       0.010  10.265  22.438  0.00  0.00    +0.000 A 
ATOM      8  C   UNL     1       0.132  11.062  21.306  0.00  0.00    +0.000 A 
ATOM      9  C   UNL     1       0.705  10.578  20.130  0.00  0.00    +0.000 A 
ATOM     10  C   UNL     1       1.176   9.249  20.095  0.00  0.00    +0.000 A 
ATOM     11  H   UNL     1       1.675   6.493  21.614  0.00  0.00    +0.000 HD
ENDROOT
BRANCH   3  12
ATOM     12  C   UNL     1       2.757   6.000  19.144  0.00  0.00    +0.000 A 
ATOM     13  C   UNL     1       4.096   5.732  19.492  0.00  0.00    +0.000 A 
ATOM     14  C   UNL     1       4.779   4.632  18.958  0.00  0.00    +0.000 A 
ATOM     15  C   UNL     1       4.115   3.784  18.082  0.00  0.00    +0.000 A 
ATOM     16  C   UNL     1       2.786   4.024  17.752  0.00  0.00    +0.000 A 
ATOM     17  C   UNL     1       2.109   5.125  18.264  0.00  0.00    +0.000 A 
BRANCH  15  18
ATOM     18  O   UNL     1       4.728   2.704  17.510  0.00  0.00    +0.000 OA
ATOM     19  H   UNL     1       5.486   3.025  16.993  0.00  0.00    +0.000 HD
ENDBRANCH  15  18
BRANCH  16  20
ATOM     20  O   UNL     1       2.131   3.180  16.900  0.00  0.00    +0.000 OA
ATOM     21  H   UNL     1       2.845   2.745  16.393  0.00  0.00    +0.000 HD
ENDBRANCH  16  20
ENDBRANCH   3  12
BRANCH   8  22
ATOM     22  O   UNL     1      -0.305  12.356  21.303  0.00  0.00    +0.000 OA
ATOM     23  H   UNL     1      -1.265  12.357  21.454  0.00  0.00    +0.000 HD
ENDBRANCH   8  22
TORSDOF 4
ENDMDL
MODEL 7
REMARK VINA RESULT:      -7.1      5.133      6.394
REMARK  Name = 
REMARK  5 active torsions:
REMARK  status: ('A' for Active; 'I' for Inactive)
REMARK    1  A    between atoms: C_1  and  C_2
REMARK    2  A    between atoms: C_3  and  C_4
REMARK    3  A    between atoms: C_7  and  O_8
REMARK    4  A    between atoms: C_9  and  O_10
REMARK    5  A    between atoms: C_16  and  O_17
REMARK                            x       y       z     vdW  Elec       q    Type
REMARK                         _______ _______ _______ _____ _____    ______ ____
ROOT
ATOM      1  C   UNL     1       5.572   4.703  19.592  0.00  0.00    +0.000 C 
ATOM      2  C   UNL     1       4.454   4.175  18.759  0.00  0.00    +0.000 A 
ATOM      3  C   UNL     1       4.366   4.086  17.370  0.00  0.00    +0.000 A 
ATOM      4  N   UNL     1       3.128   3.547  17.093  0.00  0.00    +0.000 N 
ATOM      5  C   UNL     1       2.423   3.273  18.237  0.00  0.00    +0.000 A 
ATOM      6  C   UNL     1       1.149   2.721  18.406  0.00  0.00    +0.000 A 
ATOM      7  C   UNL     1       0.689   2.535  19.714  0.00  0.00    +0.000 A 
ATOM      8  C   UNL     1       1.487   2.894  20.794  0.00  0.00    +0.000 A 
ATOM      9  C   UNL     1       2.753   3.451  20.614  0.00  0.00    +0.000 A 
ATOM     10  C   UNL     1       3.235   3.647  19.303  0.00  0.00    +0.000 A 
ATOM     11  H   UNL     1       2.792   3.342  16.163  0.00  0.00    +0.000 HD
ENDROOT
BRANCH   3  12
ATOM     12  C   UNL     1       5.317   4.400  16.294  0.00  0.00    +0.000 A 
ATOM     13  C   UNL     1       6.147   5.536  16.375  0.00  0.00    +0.000 A 
ATOM     14  C   UNL     1       7.008   5.883  15.327  0.00  0.00    +0.000 A 
ATOM     15  C   UNL     1       7.053   5.080  14.195  0.00  0.00    +0.000 A 
ATOM     16  C   UNL     1       6.258   3.944  14.115  0.00  0.00    +0.000 A 
ATOM     17  C   UNL     1       5.388   3.604  15.144  0.00  0.00    +0.000 A 
BRANCH  15  18
ATOM     18  O   UNL     1       7.856   5.372  13.128  0.00  0.00    +0.000 OA
ATOM     19  H   UNL     1       7.545   4.856  12.365  0.00  0.00    +0.000 HD
ENDBRANCH  15  18
BRANCH  16  20
ATOM     20  O   UNL     1       6.314   3.148  13.005  0.00  0.00    +0.000 OA
ATOM     21  H   UNL     1       6.520   2.258  13.355  0.00  0.00    +0.000 HD
ENDBRANCH  16  20
ENDBRANCH   3  12
BRANCH   8  22
ATOM     22  O   UNL     1       1.059   2.713  22.079  0.00  0.00    +0.000 OA
ATOM     23  H   UNL     1       1.223   1.789  22.331  0.00  0.00    +0.000 HD
ENDBRANCH   8  22
TORSDOF 4
ENDMDL
MODEL 8
REMARK VINA RESULT:      -7.0      2.323      7.081
REMARK  Name = 
REMARK  5 active torsions:
REMARK  status: ('A' for Active; 'I' for Inactive)
REMARK    1  A    between atoms: C_1  and  C_2
REMARK    2  A    between atoms: C_3  and  C_4
REMARK    3  A    between atoms: C_7  and  O_8
REMARK    4  A    between atoms: C_9  and  O_10
REMARK    5  A    between atoms: C_16  and  O_17
REMARK                            x       y       z     vdW  Elec       q    Type
REMARK                         _______ _______ _______ _____ _____    ______ ____
ROOT
ATOM      1  C   UNL     1       1.852   4.774  18.785  0.00  0.00    +0.000 C 
ATOM      2  C   UNL     1       2.804   5.723  18.141  0.00  0.00    +0.000 A 
ATOM      3  C   UNL     1       2.819   7.116  18.195  0.00  0.00    +0.000 A 
ATOM      4  N   UNL     1       3.883   7.524  17.418  0.00  0.00    +0.000 N 
ATOM      5  C   UNL     1       4.558   6.459  16.879  0.00  0.00    +0.000 A 
ATOM      6  C   UNL     1       5.685   6.425  16.050  0.00  0.00    +0.000 A 
ATOM      7  C   UNL     1       6.175   5.172  15.669  0.00  0.00    +0.000 A 
ATOM      8  C   UNL     1       5.548   4.012  16.109  0.00  0.00    +0.000 A 
ATOM      9  C   UNL     1       4.421   4.056  16.928  0.00  0.00    +0.000 A 
ATOM     10  C   UNL     1       3.910   5.310  17.324  0.00  0.00    +0.000 A 
ATOM     11  H   UNL     1       4.157   8.487  17.288  0.00  0.00    +0.000 HD
ENDROOT
BRANCH   3  12
ATOM     12  C   UNL     1       1.990   8.090  18.920  0.00  0.00    +0.000 A 
ATOM     13  C   UNL     1       1.722   7.925  20.294  0.00  0.00    +0.000 A 
ATOM     14  C   UNL     1       0.880   8.808  20.980  0.00  0.00    +0.000 A 
ATOM     15  C   UNL     1       0.314   9.874  20.294  0.00  0.00    +0.000 A 
ATOM     16  C   UNL     1       0.592  10.061  18.945  0.00  0.00    +0.000 A 
ATOM     17  C   UNL     1       1.412   9.177  18.254  0.00  0.00    +0.000 A 
BRANCH  15  18
ATOM     18  O   UNL     1      -0.533  10.762  20.899  0.00  0.00    +0.000 OA
ATOM     19  H   UNL     1      -0.268  11.659  20.634  0.00  0.00    +0.000 HD
ENDBRANCH  15  18
BRANCH  16  20
ATOM     20  O   UNL     1       0.043  11.118  18.275  0.00  0.00    +0.000 OA
ATOM     21  H   UNL     1      -0.056  10.797  17.356  0.00  0.00    +0.000 HD
ENDBRANCH  16  20
ENDBRANCH   3  12
BRANCH   8  22
ATOM     22  O   UNL     1       6.016   2.778  15.754  0.00  0.00    +0.000 OA
ATOM     23  H   UNL     1       6.703   2.515  16.388  0.00  0.00    +0.000 HD
ENDBRANCH   8  22
TORSDOF 4
ENDMDL
MODEL 9
REMARK VINA RESULT:      -7.0      1.093      6.847
REMARK  Name = 
REMARK  5 active torsions:
REMARK  status: ('A' for Active; 'I' for Inactive)
REMARK    1  A    between atoms: C_1  and  C_2
REMARK    2  A    between atoms: C_3  and  C_4
REMARK    3  A    between atoms: C_7  and  O_8
REMARK    4  A    between atoms: C_9  and  O_10
REMARK    5  A    between atoms: C_16  and  O_17
REMARK                            x       y       z     vdW  Elec       q    Type
REMARK                         _______ _______ _______ _____ _____    ______ ____
ROOT
ATOM      1  C   UNL     1       3.794   6.826  17.800  0.00  0.00    +0.000 C 
ATOM      2  C   UNL     1       3.073   6.318  19.002  0.00  0.00    +0.000 A 
ATOM      3  C   UNL     1       2.192   6.996  19.843  0.00  0.00    +0.000 A 
ATOM      4  N   UNL     1       1.813   6.095  20.816  0.00  0.00    +0.000 N 
ATOM      5  C   UNL     1       2.399   4.869  20.632  0.00  0.00    +0.000 A 
ATOM      6  C   UNL     1       2.283   3.689  21.373  0.00  0.00    +0.000 A 
ATOM      7  C   UNL     1       2.993   2.568  20.928  0.00  0.00    +0.000 A 
ATOM      8  C   UNL     1       3.783   2.649  19.787  0.00  0.00    +0.000 A 
ATOM      9  C   UNL     1       3.898   3.832  19.060  0.00  0.00    +0.000 A 
ATOM     10  C   UNL     1       3.190   4.974  19.492  0.00  0.00    +0.000 A 
ATOM     11  H   UNL     1       1.156   6.299  21.556  0.00  0.00    +0.000 HD
ENDROOT
BRANCH   3  12
ATOM     12  C   UNL     1       1.637   8.357  19.809  0.00  0.00    +0.000 A 
ATOM     13  C   UNL     1       1.546   9.067  18.595  0.00  0.00    +0.000 A 
ATOM     14  C   UNL     1       1.081  10.388  18.560  0.00  0.00    +0.000 A 
ATOM     15  C   UNL     1       0.689  10.998  19.744  0.00  0.00    +0.000 A 
ATOM     16  C   UNL     1       0.750  10.298  20.942  0.00  0.00    +0.000 A 
ATOM     17  C   UNL     1       1.228   8.994  20.987  0.00  0.00    +0.000 A 
BRANCH  15  18
ATOM     18  O   UNL     1       0.245  12.291  19.782  0.00  0.00    +0.000 OA
ATOM     19  H   UNL     1       0.443  12.652  20.663  0.00  0.00    +0.000 HD
ENDBRANCH  15  18
BRANCH  16  20
ATOM     20  O   UNL     1       0.351  10.898  22.104  0.00  0.00    +0.000 OA
ATOM     21  H   UNL     1      -0.127  10.194  22.588  0.00  0.00    +0.000 HD
ENDBRANCH  16  20
ENDBRANCH   3  12
BRANCH   8  22
ATOM     22  O   UNL     1       4.478   1.564  19.332  0.00  0.00    +0.000 OA
ATOM     23  H   UNL     1       3.860   0.974  18.869  0.00  0.00    +0.000 HD
ENDBRANCH   8  22
TORSDOF 4
ENDMDL
