MODEL 1
REMARK VINA RESULT:      -5.7      0.000      0.000
REMARK  Name = 
REMARK  6 active torsions:
REMARK  status: ('A' for Active; 'I' for Inactive)
REMARK    1  A    between atoms: C_2  and  C_3
REMARK    2  A    between atoms: C_3  and  N_4
REMARK    3  A    between atoms: C_5  and  S_6
REMARK    4  A    between atoms: N_7  and  N_8
REMARK    5  A    between atoms: C_9  and  C_10
REMARK    6  A    between atoms: C_9  and  C_11
REMARK                            x       y       z     vdW  Elec       q    Type
REMARK                         _______ _______ _______ _____ _____    ______ ____
ROOT
ATOM      1  N   UNL     1       2.208   5.845  20.311  0.00  0.00    +0.000 N 
ATOM      2  C   UNL     1       3.172   5.897  19.347  0.00  0.00    +0.000 C 
ATOM      3  N   UNL     1       4.147   5.041  19.249  0.00  0.00    +0.000 NA
ATOM      4  H   UNL     1       1.643   6.666  20.473  0.00  0.00    +0.000 HD
ENDROOT
BRANCH   3   5
ATOM      5  N   UNL     1       4.984   5.220  18.156  0.00  0.00    +0.000 NA
ATOM      6  C   UNL     1       4.961   4.277  17.262  0.00  0.00    +0.000 C 
ATOM      7  C   UNL     1       4.149   3.003  17.356  0.00  0.00    +0.000 C 
BRANCH   6   8
ATOM      8  C   UNL     1       5.790   4.453  16.038  0.00  0.00    +0.000 A 
ATOM      9  C   UNL     1       6.911   5.275  16.058  0.00  0.00    +0.000 A 
ATOM     10  N   UNL     1       7.679   5.495  14.959  0.00  0.00    +0.000 NA
ATOM     11  C   UNL     1       7.273   4.858  13.839  0.00  0.00    +0.000 A 
ATOM     12  C   UNL     1       6.158   4.034  13.814  0.00  0.00    +0.000 A 
ATOM     13  N   UNL     1       5.392   3.807  14.907  0.00  0.00    +0.000 NA
ENDBRANCH   6   8
ENDBRANCH   3   5
BRANCH   2  14
ATOM     14  S   UNL     1       2.938   7.252  18.238  0.00  0.00    +0.000 S 
ATOM     15  H   UNL     1       1.699   6.931  17.858  0.00  0.00    +0.000 HD
ENDBRANCH   2  14
BRANCH   1  16
ATOM     16  C   UNL     1       2.050   4.764  21.246  0.00  0.00    +0.000 C 
BRANCH  16  18
ATOM     17  C   UNL     1       1.383   2.654  20.035  0.00  0.00    +0.000 C 
ATOM     18  C   UNL     1       1.069   3.814  20.628  0.00  0.00    +0.000 C 
ENDBRANCH  16  18
ENDBRANCH   1  16
TORSDOF 5
ENDMDL
MODEL 2
REMARK VINA RESULT:      -5.6      2.976      6.196
REMARK  Name = 
REMARK  6 active torsions:
REMARK  status: ('A' for Active; 'I' for Inactive)
REMARK    1  A    between atoms: C_2  and  C_3
REMARK    2  A    between atoms: C_3  and  N_4
REMARK    3  A    between atoms: C_5  and  S_6
REMARK    4  A    between atoms: N_7  and  N_8
REMARK    5  A    between atoms: C_9  and  C_10
REMARK    6  A    between atoms: C_9  and  C_11
REMARK                            x       y       z     vdW  Elec       q    Type
REMARK                         _______ _______ _______ _____ _____    ______ ____
ROOT
ATOM      1  N   UNL     1       7.728   7.187  17.096  0.00  0.00    +0.000 N 
ATOM      2  C   UNL     1       6.855   6.199  17.446  0.00  0.00    +0.000 C 
ATOM      3  N   UNL     1       5.874   6.359  18.286  0.00  0.00    +0.000 NA
ATOM      4  H   UNL     1       8.594   6.930  16.645  0.00  0.00    +0.000 HD
ENDROOT
BRANCH   3   5
ATOM      5  N   UNL     1       5.052   5.254  18.454  0.00  0.00    +0.000 NA
ATOM      6  C   UNL     1       3.775   5.474  18.356  0.00  0.00    +0.000 C 
ATOM      7  C   UNL     1       3.136   6.828  18.133  0.00  0.00    +0.000 C 
BRANCH   6   8
ATOM      8  C   UNL     1       2.853   4.310  18.462  0.00  0.00    +0.000 A 
ATOM      9  C   UNL     1       1.751   4.359  19.309  0.00  0.00    +0.000 A 
ATOM     10  N   UNL     1       0.901   3.311  19.467  0.00  0.00    +0.000 NA
ATOM     11  C   UNL     1       1.205   2.211  18.744  0.00  0.00    +0.000 A 
ATOM     12  C   UNL     1       2.302   2.158  17.896  0.00  0.00    +0.000 A 
ATOM     13  N   UNL     1       3.149   3.201  17.731  0.00  0.00    +0.000 NA
ENDBRANCH   6   8
ENDBRANCH   3   5
BRANCH   2  14
ATOM     14  S   UNL     1       7.202   4.676  16.620  0.00  0.00    +0.000 S 
ATOM     15  H   UNL     1       8.465   4.557  17.035  0.00  0.00    +0.000 HD
ENDBRANCH   2  14
BRANCH   1  16
ATOM     16  C   UNL     1       7.592   8.565  17.483  0.00  0.00    +0.000 C 
BRANCH  16  18
ATOM     17  C   UNL     1       9.083  10.020  18.905  0.00  0.00    +0.000 C 
ATOM     18  C   UNL     1       8.641   8.814  18.525  0.00  0.00    +0.000 C 
ENDBRANCH  16  18
ENDBRANCH   1  16
TORSDOF 5
ENDMDL
MODEL 3
REMARK VINA RESULT:      -5.5      2.003      6.366
REMARK  Name = 
REMARK  6 active torsions:
REMARK  status: ('A' for Active; 'I' for Inactive)
REMARK    1  A    between atoms: C_2  and  C_3
REMARK    2  A    between atoms: C_3  and  N_4
REMARK    3  A    between atoms: C_5  and  S_6
REMARK    4  A    between atoms: N_7  and  N_8
REMARK    5  A    between atoms: C_9  and  C_10
REMARK    6  A    between atoms: C_9  and  C_11
REMARK                            x       y       z     vdW  Elec       q    Type
REMARK                         _______ _______ _______ _____ _____    ______ ____
ROOT
ATOM      1  N   UNL     1       7.310   5.282  15.643  0.00  0.00    +0.000 N 
ATOM      2  C   UNL     1       6.572   5.128  16.780  0.00  0.00    +0.000 C 
ATOM      3  N   UNL     1       5.271   5.126  16.807  0.00  0.00    +0.000 NA
ATOM      4  H   UNL     1       8.287   5.519  15.729  0.00  0.00    +0.000 HD
ENDROOT
BRANCH   3   5
ATOM      5  N   UNL     1       4.705   4.882  18.051  0.00  0.00    +0.000 NA
ATOM      6  C   UNL     1       3.675   4.090  18.061  0.00  0.00    +0.000 C 
ATOM      7  C   UNL     1       3.031   3.477  16.836  0.00  0.00    +0.000 C 
BRANCH   6   8
ATOM      8  C   UNL     1       3.072   3.743  19.378  0.00  0.00    +0.000 A 
ATOM      9  C   UNL     1       3.703   2.840  20.226  0.00  0.00    +0.000 A 
ATOM     10  N   UNL     1       3.177   2.465  21.420  0.00  0.00    +0.000 NA
ATOM     11  C   UNL     1       1.988   3.030  21.727  0.00  0.00    +0.000 A 
ATOM     12  C   UNL     1       1.356   3.933  20.885  0.00  0.00    +0.000 A 
ATOM     13  N   UNL     1       1.879   4.315  19.697  0.00  0.00    +0.000 NA
ENDBRANCH   6   8
ENDBRANCH   3   5
BRANCH   2  14
ATOM     14  S   UNL     1       7.585   4.919  18.212  0.00  0.00    +0.000 S 
ATOM     15  H   UNL     1       8.608   5.666  17.790  0.00  0.00    +0.000 HD
ENDBRANCH   2  14
BRANCH   1  16
ATOM     16  C   UNL     1       6.759   5.307  14.315  0.00  0.00    +0.000 C 
BRANCH  16  18
ATOM     17  C   UNL     1       5.922   3.471  12.801  0.00  0.00    +0.000 C 
ATOM     18  C   UNL     1       6.418   3.888  13.974  0.00  0.00    +0.000 C 
ENDBRANCH  16  18
ENDBRANCH   1  16
TORSDOF 5
ENDMDL
MODEL 4
REMARK VINA RESULT:      -5.5      2.147      2.494
REMARK  Name = 
REMARK  6 active torsions:
REMARK  status: ('A' for Active; 'I' for Inactive)
REMARK    1  A    between atoms: C_2  and  C_3
REMARK    2  A    between atoms: C_3  and  N_4
REMARK    3  A    between atoms: C_5  and  S_6
REMARK    4  A    between atoms: N_7  and  N_8
REMARK    5  A    between atoms: C_9  and  C_10
REMARK    6  A    between atoms: C_9  and  C_11
REMARK                            x       y       z     vdW  Elec       q    Type
REMARK                         _______ _______ _______ _____ _____    ______ ____
ROOT
ATOM      1  N   UNL     1       1.793   2.384  19.671  0.00  0.00    +0.000 N 
ATOM      2  C   UNL     1       2.643   2.552  18.617  0.00  0.00    +0.000 C 
ATOM      3  N   UNL     1       2.576   3.548  17.781  0.00  0.00    +0.000 NA
ATOM      4  H   UNL     1       1.746   1.479  20.115  0.00  0.00    +0.000 HD
ENDROOT
BRANCH   3   5
ATOM      5  N   UNL     1       3.576   3.580  16.819  0.00  0.00    +0.000 NA
ATOM      6  C   UNL     1       4.284   4.669  16.771  0.00  0.00    +0.000 C 
ATOM      7  C   UNL     1       4.061   5.895  17.631  0.00  0.00    +0.000 C 
BRANCH   6   8
ATOM      8  C   UNL     1       5.412   4.729  15.801  0.00  0.00    +0.000 A 
ATOM      9  C   UNL     1       6.530   5.511  16.068  0.00  0.00    +0.000 A 
ATOM     10  N   UNL     1       7.569   5.626  15.201  0.00  0.00    +0.000 NA
ATOM     11  C   UNL     1       7.437   4.927  14.052  0.00  0.00    +0.000 A 
ATOM     12  C   UNL     1       6.325   4.143  13.782  0.00  0.00    +0.000 A 
ATOM     13  N   UNL     1       5.290   4.020  14.645  0.00  0.00    +0.000 NA
ENDBRANCH   6   8
ENDBRANCH   3   5
BRANCH   2  14
ATOM     14  S   UNL     1       3.852   1.268  18.521  0.00  0.00    +0.000 S 
ATOM     15  H   UNL     1       3.644   0.766  19.741  0.00  0.00    +0.000 HD
ENDBRANCH   2  14
BRANCH   1  16
ATOM     16  C   UNL     1       0.817   3.354  20.090  0.00  0.00    +0.000 C 
BRANCH  16  18
ATOM     17  C   UNL     1       1.768   5.630  20.618  0.00  0.00    +0.000 C 
ATOM     18  C   UNL     1       1.551   4.348  20.939  0.00  0.00    +0.000 C 
ENDBRANCH  16  18
ENDBRANCH   1  16
TORSDOF 5
ENDMDL
MODEL 5
REMARK VINA RESULT:      -5.4      1.976      6.492
REMARK  Name = 
REMARK  6 active torsions:
REMARK  status: ('A' for Active; 'I' for Inactive)
REMARK    1  A    between atoms: C_2  and  C_3
REMARK    2  A    between atoms: C_3  and  N_4
REMARK    3  A    between atoms: C_5  and  S_6
REMARK    4  A    between atoms: N_7  and  N_8
REMARK    5  A    between atoms: C_9  and  C_10
REMARK    6  A    between atoms: C_9  and  C_11
REMARK                            x       y       z     vdW  Elec       q    Type
REMARK                         _______ _______ _______ _____ _____    ______ ____
ROOT
ATOM      1  N   UNL     1       7.372   5.106  15.187  0.00  0.00    +0.000 N 
ATOM      2  C   UNL     1       6.637   4.726  16.273  0.00  0.00    +0.000 C 
ATOM      3  N   UNL     1       5.357   4.497  16.239  0.00  0.00    +0.000 NA
ATOM      4  H   UNL     1       8.288   5.501  15.339  0.00  0.00    +0.000 HD
ENDROOT
BRANCH   3   5
ATOM      5  N   UNL     1       4.804   4.048  17.431  0.00  0.00    +0.000 NA
ATOM      6  C   UNL     1       4.010   4.878  18.038  0.00  0.00    +0.000 C 
ATOM      7  C   UNL     1       3.699   6.286  17.576  0.00  0.00    +0.000 C 
BRANCH   6   8
ATOM      8  C   UNL     1       3.340   4.420  19.286  0.00  0.00    +0.000 A 
ATOM      9  C   UNL     1       3.610   3.162  19.810  0.00  0.00    +0.000 A 
ATOM     10  N   UNL     1       2.999   2.685  20.926  0.00  0.00    +0.000 NA
ATOM     11  C   UNL     1       2.102   3.522  21.491  0.00  0.00    +0.000 A 
ATOM     12  C   UNL     1       1.830   4.780  20.973  0.00  0.00    +0.000 A 
ATOM     13  N   UNL     1       2.440   5.262  19.865  0.00  0.00    +0.000 NA
ENDBRANCH   6   8
ENDBRANCH   3   5
BRANCH   2  14
ATOM     14  S   UNL     1       7.626   4.568  17.728  0.00  0.00    +0.000 S 
ATOM     15  H   UNL     1       8.763   5.021  17.194  0.00  0.00    +0.000 HD
ENDBRANCH   2  14
BRANCH   1  16
ATOM     16  C   UNL     1       6.867   5.155  13.842  0.00  0.00    +0.000 C 
BRANCH  16  18
ATOM     17  C   UNL     1       5.857   3.373  12.371  0.00  0.00    +0.000 C 
ATOM     18  C   UNL     1       6.531   3.743  13.468  0.00  0.00    +0.000 C 
ENDBRANCH  16  18
ENDBRANCH   1  16
TORSDOF 5
ENDMDL
MODEL 6
REMARK VINA RESULT:      -5.4      1.605      6.384
REMARK  Name = 
REMARK  6 active torsions:
REMARK  status: ('A' for Active; 'I' for Inactive)
REMARK    1  A    between atoms: C_2  and  C_3
REMARK    2  A    between atoms: C_3  and  N_4
REMARK    3  A    between atoms: C_5  and  S_6
REMARK    4  A    between atoms: N_7  and  N_8
REMARK    5  A    between atoms: C_9  and  C_10
REMARK    6  A    between atoms: C_9  and  C_11
REMARK                            x       y       z     vdW  Elec       q    Type
REMARK                         _______ _______ _______ _____ _____    ______ ____
ROOT
ATOM      1  N   UNL     1       6.148   5.669  14.947  0.00  0.00    +0.000 N 
ATOM      2  C   UNL     1       5.511   5.443  16.133  0.00  0.00    +0.000 C 
ATOM      3  N   UNL     1       5.459   4.283  16.720  0.00  0.00    +0.000 NA
ATOM      4  H   UNL     1       5.937   6.515  14.439  0.00  0.00    +0.000 HD
ENDROOT
BRANCH   3   5
ATOM      5  N   UNL     1       4.828   4.273  17.956  0.00  0.00    +0.000 NA
ATOM      6  C   UNL     1       3.674   3.678  18.000  0.00  0.00    +0.000 C 
ATOM      7  C   UNL     1       2.962   3.061  16.815  0.00  0.00    +0.000 C 
BRANCH   6   8
ATOM      8  C   UNL     1       2.985   3.582  19.317  0.00  0.00    +0.000 A 
ATOM      9  C   UNL     1       2.380   2.394  19.710  0.00  0.00    +0.000 A 
ATOM     10  N   UNL     1       1.710   2.266  20.885  0.00  0.00    +0.000 NA
ATOM     11  C   UNL     1       1.669   3.381  21.647  0.00  0.00    +0.000 A 
ATOM     12  C   UNL     1       2.274   4.568  21.260  0.00  0.00    +0.000 A 
ATOM     13  N   UNL     1       2.947   4.699  20.093  0.00  0.00    +0.000 NA
ENDBRANCH   6   8
ENDBRANCH   3   5
BRANCH   2  14
ATOM     14  S   UNL     1       4.774   6.909  16.787  0.00  0.00    +0.000 S 
ATOM     15  H   UNL     1       4.343   6.371  17.930  0.00  0.00    +0.000 HD
ENDBRANCH   2  14
BRANCH   1  16
ATOM     16  C   UNL     1       6.970   4.703  14.270  0.00  0.00    +0.000 C 
BRANCH  16  18
ATOM     17  C   UNL     1       6.108   3.418  12.278  0.00  0.00    +0.000 C 
ATOM     18  C   UNL     1       6.030   3.770  13.569  0.00  0.00    +0.000 C 
ENDBRANCH  16  18
ENDBRANCH   1  16
TORSDOF 5
ENDMDL
MODEL 7
REMARK VINA RESULT:      -5.3      1.662      6.334
REMARK  Name = 
REMARK  6 active torsions:
REMARK  status: ('A' for Active; 'I' for Inactive)
REMARK    1  A    between atoms: C_2  and  C_3
REMARK    2  A    between atoms: C_3  and  N_4
REMARK    3  A    between atoms: C_5  and  S_6
REMARK    4  A    between atoms: N_7  and  N_8
REMARK    5  A    between atoms: C_9  and  C_10
REMARK    6  A    between atoms: C_9  and  C_11
REMARK                            x       y       z     vdW  Elec       q    Type
REMARK                         _______ _______ _______ _____ _____    ______ ____
ROOT
ATOM      1  N   UNL     1       6.142   5.492  14.917  0.00  0.00    +0.000 N 
ATOM      2  C   UNL     1       5.529   5.279  16.117  0.00  0.00    +0.000 C 
ATOM      3  N   UNL     1       5.337   4.101  16.636  0.00  0.00    +0.000 NA
ATOM      4  H   UNL     1       6.033   6.391  14.472  0.00  0.00    +0.000 HD
ENDROOT
BRANCH   3   5
ATOM      5  N   UNL     1       4.762   4.097  17.899  0.00  0.00    +0.000 NA
ATOM      6  C   UNL     1       3.570   3.587  17.980  0.00  0.00    +0.000 C 
ATOM      7  C   UNL     1       2.762   3.063  16.812  0.00  0.00    +0.000 C 
BRANCH   6   8
ATOM      8  C   UNL     1       2.936   3.499  19.325  0.00  0.00    +0.000 A 
ATOM      9  C   UNL     1       2.791   4.636  20.112  0.00  0.00    +0.000 A 
ATOM     10  N   UNL     1       2.251   4.601  21.358  0.00  0.00    +0.000 NA
ATOM     11  C   UNL     1       1.867   3.378  21.783  0.00  0.00    +0.000 A 
ATOM     12  C   UNL     1       2.007   2.241  21.001  0.00  0.00    +0.000 A 
ATOM     13  N   UNL     1       2.539   2.270  19.756  0.00  0.00    +0.000 NA
ENDBRANCH   6   8
ENDBRANCH   3   5
BRANCH   2  14
ATOM     14  S   UNL     1       5.037   6.787  16.894  0.00  0.00    +0.000 S 
ATOM     15  H   UNL     1       6.256   7.165  17.288  0.00  0.00    +0.000 HD
ENDBRANCH   2  14
BRANCH   1  16
ATOM     16  C   UNL     1       6.789   4.468  14.142  0.00  0.00    +0.000 C 
BRANCH  16  18
ATOM     17  C   UNL     1       5.988   3.112  12.172  0.00  0.00    +0.000 C 
ATOM     18  C   UNL     1       5.749   3.931  13.205  0.00  0.00    +0.000 C 
ENDBRANCH  16  18
ENDBRANCH   1  16
TORSDOF 5
ENDMDL
MODEL 8
REMARK VINA RESULT:      -5.3      1.690      6.279
REMARK  Name = 
REMARK  6 active torsions:
REMARK  status: ('A' for Active; 'I' for Inactive)
REMARK    1  A    between atoms: C_2  and  C_3
REMARK    2  A    between atoms: C_3  and  N_4
REMARK    3  A    between atoms: C_5  and  S_6
REMARK    4  A    between atoms: N_7  and  N_8
REMARK    5  A    between atoms: C_9  and  C_10
REMARK    6  A    between atoms: C_9  and  C_11
REMARK                            x       y       z     vdW  Elec       q    Type
REMARK                         _______ _______ _______ _____ _____    ______ ____
ROOT
ATOM      1  N   UNL     1       6.208   5.732  15.409  0.00  0.00    +0.000 N 
ATOM      2  C   UNL     1       5.443   5.478  16.511  0.00  0.00    +0.000 C 
ATOM      3  N   UNL     1       5.433   4.340  17.141  0.00  0.00    +0.000 NA
ATOM      4  H   UNL     1       5.981   6.532  14.838  0.00  0.00    +0.000 HD
ENDROOT
BRANCH   3   5
ATOM      5  N   UNL     1       4.644   4.303  18.283  0.00  0.00    +0.000 NA
ATOM      6  C   UNL     1       3.798   3.320  18.358  0.00  0.00    +0.000 C 
ATOM      7  C   UNL     1       3.580   2.271  17.289  0.00  0.00    +0.000 C 
BRANCH   6   8
ATOM      8  C   UNL     1       2.975   3.197  19.593  0.00  0.00    +0.000 A 
ATOM      9  C   UNL     1       3.486   2.563  20.720  0.00  0.00    +0.000 A 
ATOM     10  N   UNL     1       2.763   2.396  21.858  0.00  0.00    +0.000 NA
ATOM     11  C   UNL     1       1.504   2.886  21.816  0.00  0.00    +0.000 A 
ATOM     12  C   UNL     1       0.991   3.521  20.695  0.00  0.00    +0.000 A 
ATOM     13  N   UNL     1       1.709   3.696  19.560  0.00  0.00    +0.000 NA
ENDBRANCH   6   8
ENDBRANCH   3   5
BRANCH   2  14
ATOM     14  S   UNL     1       4.476   6.876  16.991  0.00  0.00    +0.000 S 
ATOM     15  H   UNL     1       5.363   7.810  16.634  0.00  0.00    +0.000 HD
ENDBRANCH   2  14
BRANCH   1  16
ATOM     16  C   UNL     1       7.210   4.839  14.893  0.00  0.00    +0.000 C 
BRANCH  16  18
ATOM     17  C   UNL     1       5.337   3.911  13.481  0.00  0.00    +0.000 C 
ATOM     18  C   UNL     1       6.628   4.226  13.655  0.00  0.00    +0.000 C 
ENDBRANCH  16  18
ENDBRANCH   1  16
TORSDOF 5
ENDMDL
MODEL 9
REMARK VINA RESULT:      -5.3      1.312      2.088
REMARK  Name = 
REMARK  6 active torsions:
REMARK  status: ('A' for Active; 'I' for Inactive)
REMARK    1  A    between atoms: C_2  and  C_3
REMARK    2  A    between atoms: C_3  and  N_4
REMARK    3  A    between atoms: C_5  and  S_6
REMARK    4  A    between atoms: N_7  and  N_8
REMARK    5  A    between atoms: C_9  and  C_10
REMARK    6  A    between atoms: C_9  and  C_11
REMARK                            x       y       z     vdW  Elec       q    Type
REMARK                         _______ _______ _______ _____ _____    ______ ____
ROOT
ATOM      1  N   UNL     1       3.463   5.672  19.433  0.00  0.00    +0.000 N 
ATOM      2  C   UNL     1       3.958   5.573  18.165  0.00  0.00    +0.000 C 
ATOM      3  N   UNL     1       4.434   4.474  17.654  0.00  0.00    +0.000 NA
ATOM      4  H   UNL     1       3.348   6.589  19.836  0.00  0.00    +0.000 HD
ENDROOT
BRANCH   3   5
ATOM      5  N   UNL     1       4.821   4.559  16.324  0.00  0.00    +0.000 NA
ATOM      6  C   UNL     1       6.101   4.548  16.103  0.00  0.00    +0.000 C 
ATOM      7  C   UNL     1       7.173   4.507  17.172  0.00  0.00    +0.000 C 
BRANCH   6   8
ATOM      8  C   UNL     1       6.569   4.571  14.689  0.00  0.00    +0.000 A 
ATOM      9  C   UNL     1       5.969   3.755  13.736  0.00  0.00    +0.000 A 
ATOM     10  N   UNL     1       6.382   3.713  12.443  0.00  0.00    +0.000 NA
ATOM     11  C   UNL     1       7.423   4.521  12.146  0.00  0.00    +0.000 A 
ATOM     12  C   UNL     1       8.023   5.339  13.093  0.00  0.00    +0.000 A 
ATOM     13  N   UNL     1       7.613   5.388  14.382  0.00  0.00    +0.000 NA
ENDBRANCH   6   8
ENDBRANCH   3   5
BRANCH   2  14
ATOM     14  S   UNL     1       3.869   7.105  17.291  0.00  0.00    +0.000 S 
ATOM     15  H   UNL     1       2.726   6.853  16.649  0.00  0.00    +0.000 HD
ENDBRANCH   2  14
BRANCH   1  16
ATOM     16  C   UNL     1       3.259   4.554  20.314  0.00  0.00    +0.000 C 
BRANCH  16  18
ATOM     17  C   UNL     1       1.167   3.185  20.648  0.00  0.00    +0.000 C 
ATOM     18  C   UNL     1       1.776   4.352  20.399  0.00  0.00    +0.000 C 
ENDBRANCH  16  18
ENDBRANCH   1  16
TORSDOF 5
ENDMDL
