MODEL 1
REMARK VINA RESULT:      -7.9      0.000      0.000
REMARK  Name = 
REMARK  4 active torsions:
REMARK  status: ('A' for Active; 'I' for Inactive)
REMARK    1  A    between atoms: C_2  and  C_3
REMARK    2  A    between atoms: C_3  and  C_4
REMARK    3  A    between atoms: C_3  and  N_11
REMARK    4  A    between atoms: C_4  and  C_5
REMARK                            x       y       z     vdW  Elec       q    Type
REMARK                         _______ _______ _______ _____ _____    ______ ____
ROOT
ATOM      1  C   UNL     1       4.356   5.159  17.265  0.00  0.00    +0.000 C 
ENDROOT
BRANCH   1   3
ATOM      2  O   UNL     1       5.720   4.419  19.103  0.00  0.00    +0.000 OA
ATOM      3  C   UNL     1       4.642   4.302  18.513  0.00  0.00    +0.000 C 
ATOM      4  N   UNL     1       3.705   3.354  18.938  0.00  0.00    +0.000 N 
ATOM      5  C   UNL     1       2.416   3.078  18.302  0.00  0.00    +0.000 C 
ATOM      6  C   UNL     1       1.314   3.999  18.824  0.00  0.00    +0.000 C 
ATOM      7  C   UNL     1       0.920   3.813  20.292  0.00  0.00    +0.000 C 
ATOM      8  C   UNL     1       2.070   3.717  21.298  0.00  0.00    +0.000 C 
ATOM      9  C   UNL     1       2.883   2.434  21.132  0.00  0.00    +0.000 C 
ATOM     10  C   UNL     1       4.026   2.563  20.126  0.00  0.00    +0.000 C 
ENDBRANCH   1   3
BRANCH   1  11
ATOM     11  N   UNL     1       5.321   4.802  16.209  0.00  0.00    +0.000 N 
ATOM     12  C   UNL     1       5.136   3.857  15.230  0.00  0.00    +0.000 A 
ATOM     13  C   UNL     1       6.244   3.875  14.405  0.00  0.00    +0.000 A 
ATOM     14  C   UNL     1       7.123   4.866  14.894  0.00  0.00    +0.000 A 
ATOM     15  C   UNL     1       6.538   5.415  16.010  0.00  0.00    +0.000 A 
ENDBRANCH   1  11
BRANCH   1  16
ATOM     16  C   UNL     1       4.475   6.680  17.539  0.00  0.00    +0.000 C 
BRANCH  16  17
ATOM     17  C   UNL     1       3.292   7.357  18.195  0.00  0.00    +0.000 A 
ATOM     18  C   UNL     1       2.909   6.987  19.494  0.00  0.00    +0.000 A 
ATOM     19  C   UNL     1       1.854   7.628  20.141  0.00  0.00    +0.000 A 
ATOM     20  C   UNL     1       1.170   8.657  19.502  0.00  0.00    +0.000 A 
ATOM     21  C   UNL     1       1.548   9.048  18.219  0.00  0.00    +0.000 A 
ATOM     22  C   UNL     1       2.603   8.401  17.565  0.00  0.00    +0.000 A 
ENDBRANCH  16  17
ENDBRANCH   1  16
TORSDOF 4
ENDMDL
MODEL 2
REMARK VINA RESULT:      -7.8      0.490      1.295
REMARK  Name = 
REMARK  4 active torsions:
REMARK  status: ('A' for Active; 'I' for Inactive)
REMARK    1  A    between atoms: C_2  and  C_3
REMARK    2  A    between atoms: C_3  and  C_4
REMARK    3  A    between atoms: C_3  and  N_11
REMARK    4  A    between atoms: C_4  and  C_5
REMARK                            x       y       z     vdW  Elec       q    Type
REMARK                         _______ _______ _______ _____ _____    ______ ____
ROOT
ATOM      1  C   UNL     1       4.043   5.372  17.293  0.00  0.00    +0.000 C 
ENDROOT
BRANCH   1   3
ATOM      2  O   UNL     1       5.465   4.902  19.174  0.00  0.00    +0.000 OA
ATOM      3  C   UNL     1       4.433   4.601  18.568  0.00  0.00    +0.000 C 
ATOM      4  N   UNL     1       3.649   3.526  19.000  0.00  0.00    +0.000 N 
ATOM      5  C   UNL     1       2.435   3.033  18.349  0.00  0.00    +0.000 C 
ATOM      6  C   UNL     1       1.189   3.779  18.826  0.00  0.00    +0.000 C 
ATOM      7  C   UNL     1       0.798   3.568  20.292  0.00  0.00    +0.000 C 
ATOM      8  C   UNL     1       1.926   3.679  21.320  0.00  0.00    +0.000 C 
ATOM      9  C   UNL     1       2.935   2.538  21.203  0.00  0.00    +0.000 C 
ATOM     10  C   UNL     1       4.065   2.824  20.215  0.00  0.00    +0.000 C 
ENDBRANCH   1   3
BRANCH   1  11
ATOM     11  N   UNL     1       4.943   4.970  16.197  0.00  0.00    +0.000 N 
ATOM     12  C   UNL     1       5.546   5.810  15.294  0.00  0.00    +0.000 A 
ATOM     13  C   UNL     1       6.357   5.048  14.476  0.00  0.00    +0.000 A 
ATOM     14  C   UNL     1       6.250   3.707  14.902  0.00  0.00    +0.000 A 
ATOM     15  C   UNL     1       5.367   3.682  15.955  0.00  0.00    +0.000 A 
ENDBRANCH   1  11
BRANCH   1  16
ATOM     16  C   UNL     1       4.141   6.909  17.465  0.00  0.00    +0.000 C 
BRANCH  16  17
ATOM     17  C   UNL     1       3.074   7.579  18.301  0.00  0.00    +0.000 A 
ATOM     18  C   UNL     1       2.397   8.702  17.799  0.00  0.00    +0.000 A 
ATOM     19  C   UNL     1       1.375   9.310  18.528  0.00  0.00    +0.000 A 
ATOM     20  C   UNL     1       1.009   8.798  19.768  0.00  0.00    +0.000 A 
ATOM     21  C   UNL     1       1.660   7.674  20.274  0.00  0.00    +0.000 A 
ATOM     22  C   UNL     1       2.690   7.067  19.547  0.00  0.00    +0.000 A 
ENDBRANCH  16  17
ENDBRANCH   1  16
TORSDOF 4
ENDMDL
MODEL 3
REMARK VINA RESULT:      -7.4      2.145      4.976
REMARK  Name = 
REMARK  4 active torsions:
REMARK  status: ('A' for Active; 'I' for Inactive)
REMARK    1  A    between atoms: C_2  and  C_3
REMARK    2  A    between atoms: C_3  and  C_4
REMARK    3  A    between atoms: C_3  and  N_11
REMARK    4  A    between atoms: C_4  and  C_5
REMARK                            x       y       z     vdW  Elec       q    Type
REMARK                         _______ _______ _______ _____ _____    ______ ____
ROOT
ATOM      1  C   UNL     1       5.280   5.318  17.017  0.00  0.00    +0.000 C 
ENDROOT
BRANCH   1   3
ATOM      2  O   UNL     1       3.492   6.731  17.784  0.00  0.00    +0.000 OA
ATOM      3  C   UNL     1       4.037   5.627  17.873  0.00  0.00    +0.000 C 
ATOM      4  N   UNL     1       3.567   4.680  18.788  0.00  0.00    +0.000 N 
ATOM      5  C   UNL     1       4.148   3.359  19.030  0.00  0.00    +0.000 C 
ATOM      6  C   UNL     1       3.591   2.306  18.072  0.00  0.00    +0.000 C 
ATOM      7  C   UNL     1       2.106   1.967  18.234  0.00  0.00    +0.000 C 
ATOM      8  C   UNL     1       1.147   3.153  18.357  0.00  0.00    +0.000 C 
ATOM      9  C   UNL     1       1.333   3.920  19.666  0.00  0.00    +0.000 C 
ATOM     10  C   UNL     1       2.385   5.025  19.579  0.00  0.00    +0.000 C 
ENDBRANCH   1   3
BRANCH   1  11
ATOM     11  N   UNL     1       6.469   5.889  17.677  0.00  0.00    +0.000 N 
ATOM     12  C   UNL     1       7.023   7.119  17.424  0.00  0.00    +0.000 A 
ATOM     13  C   UNL     1       8.079   7.299  18.296  0.00  0.00    +0.000 A 
ATOM     14  C   UNL     1       8.161   6.147  19.108  0.00  0.00    +0.000 A 
ATOM     15  C   UNL     1       7.167   5.290  18.702  0.00  0.00    +0.000 A 
ENDBRANCH   1  11
BRANCH   1  16
ATOM     16  C   UNL     1       5.188   5.906  15.586  0.00  0.00    +0.000 C 
BRANCH  16  17
ATOM     17  C   UNL     1       5.830   5.110  14.471  0.00  0.00    +0.000 A 
ATOM     18  C   UNL     1       5.095   4.110  13.816  0.00  0.00    +0.000 A 
ATOM     19  C   UNL     1       5.645   3.395  12.753  0.00  0.00    +0.000 A 
ATOM     20  C   UNL     1       6.937   3.675  12.322  0.00  0.00    +0.000 A 
ATOM     21  C   UNL     1       7.674   4.677  12.951  0.00  0.00    +0.000 A 
ATOM     22  C   UNL     1       7.127   5.392  14.023  0.00  0.00    +0.000 A 
ENDBRANCH  16  17
ENDBRANCH   1  16
TORSDOF 4
ENDMDL
MODEL 4
REMARK VINA RESULT:      -7.3      1.922      5.121
REMARK  Name = 
REMARK  4 active torsions:
REMARK  status: ('A' for Active; 'I' for Inactive)
REMARK    1  A    between atoms: C_2  and  C_3
REMARK    2  A    between atoms: C_3  and  C_4
REMARK    3  A    between atoms: C_3  and  N_11
REMARK    4  A    between atoms: C_4  and  C_5
REMARK                            x       y       z     vdW  Elec       q    Type
REMARK                         _______ _______ _______ _____ _____    ______ ____
ROOT
ATOM      1  C   UNL     1       3.024   6.686  18.518  0.00  0.00    +0.000 C 
ENDROOT
BRANCH   1   3
ATOM      2  O   UNL     1       1.217   5.540  17.420  0.00  0.00    +0.000 OA
ATOM      3  C   UNL     1       2.086   5.484  18.295  0.00  0.00    +0.000 C 
ATOM      4  N   UNL     1       2.185   4.360  19.120  0.00  0.00    +0.000 N 
ATOM      5  C   UNL     1       3.132   4.185  20.222  0.00  0.00    +0.000 C 
ATOM      6  C   UNL     1       4.466   3.612  19.744  0.00  0.00    +0.000 C 
ATOM      7  C   UNL     1       4.428   2.177  19.209  0.00  0.00    +0.000 C 
ATOM      8  C   UNL     1       3.308   1.849  18.219  0.00  0.00    +0.000 C 
ATOM      9  C   UNL     1       1.927   1.867  18.874  0.00  0.00    +0.000 C 
ATOM     10  C   UNL     1       1.269   3.247  18.869  0.00  0.00    +0.000 C 
ENDBRANCH   1   3
BRANCH   1  11
ATOM     11  N   UNL     1       2.208   7.885  18.784  0.00  0.00    +0.000 N 
ATOM     12  C   UNL     1       1.614   8.212  19.978  0.00  0.00    +0.000 A 
ATOM     13  C   UNL     1       0.999   9.439  19.828  0.00  0.00    +0.000 A 
ATOM     14  C   UNL     1       1.235   9.874  18.506  0.00  0.00    +0.000 A 
ATOM     15  C   UNL     1       1.973   8.897  17.880  0.00  0.00    +0.000 A 
ENDBRANCH   1  11
BRANCH   1  16
ATOM     16  C   UNL     1       3.932   6.977  17.296  0.00  0.00    +0.000 C 
BRANCH  16  17
ATOM     17  C   UNL     1       5.149   6.096  17.117  0.00  0.00    +0.000 A 
ATOM     18  C   UNL     1       6.298   6.329  17.888  0.00  0.00    +0.000 A 
ATOM     19  C   UNL     1       7.416   5.502  17.778  0.00  0.00    +0.000 A 
ATOM     20  C   UNL     1       7.399   4.424  16.900  0.00  0.00    +0.000 A 
ATOM     21  C   UNL     1       6.259   4.170  16.139  0.00  0.00    +0.000 A 
ATOM     22  C   UNL     1       5.138   5.001  16.243  0.00  0.00    +0.000 A 
ENDBRANCH  16  17
ENDBRANCH   1  16
TORSDOF 4
ENDMDL
MODEL 5
REMARK VINA RESULT:      -7.3      1.912      5.163
REMARK  Name = 
REMARK  4 active torsions:
REMARK  status: ('A' for Active; 'I' for Inactive)
REMARK    1  A    between atoms: C_2  and  C_3
REMARK    2  A    between atoms: C_3  and  C_4
REMARK    3  A    between atoms: C_3  and  N_11
REMARK    4  A    between atoms: C_4  and  C_5
REMARK                            x       y       z     vdW  Elec       q    Type
REMARK                         _______ _______ _______ _____ _____    ______ ____
ROOT
ATOM      1  C   UNL     1       2.999   6.655  18.578  0.00  0.00    +0.000 C 
ENDROOT
BRANCH   1   3
ATOM      2  O   UNL     1       1.203   5.522  17.449  0.00  0.00    +0.000 OA
ATOM      3  C   UNL     1       2.062   5.457  18.334  0.00  0.00    +0.000 C 
ATOM      4  N   UNL     1       2.148   4.326  19.151  0.00  0.00    +0.000 N 
ATOM      5  C   UNL     1       3.080   4.141  20.264  0.00  0.00    +0.000 C 
ATOM      6  C   UNL     1       4.419   3.568  19.797  0.00  0.00    +0.000 C 
ATOM      7  C   UNL     1       4.384   2.138  19.251  0.00  0.00    +0.000 C 
ATOM      8  C   UNL     1       3.276   1.820  18.244  0.00  0.00    +0.000 C 
ATOM      9  C   UNL     1       1.887   1.836  18.883  0.00  0.00    +0.000 C 
ATOM     10  C   UNL     1       1.232   3.217  18.880  0.00  0.00    +0.000 C 
ENDBRANCH   1   3
BRANCH   1  11
ATOM     11  N   UNL     1       2.182   7.858  18.824  0.00  0.00    +0.000 N 
ATOM     12  C   UNL     1       1.595   8.209  20.015  0.00  0.00    +0.000 A 
ATOM     13  C   UNL     1       0.977   9.432  19.843  0.00  0.00    +0.000 A 
ATOM     14  C   UNL     1       1.204   9.839  18.510  0.00  0.00    +0.000 A 
ATOM     15  C   UNL     1       1.939   8.851  17.901  0.00  0.00    +0.000 A 
ENDBRANCH   1  11
BRANCH   1  16
ATOM     16  C   UNL     1       3.937   6.941  17.378  0.00  0.00    +0.000 C 
BRANCH  16  17
ATOM     17  C   UNL     1       5.135   6.033  17.208  0.00  0.00    +0.000 A 
ATOM     18  C   UNL     1       5.100   5.005  16.252  0.00  0.00    +0.000 A 
ATOM     19  C   UNL     1       6.207   4.184  16.040  0.00  0.00    +0.000 A 
ATOM     20  C   UNL     1       7.371   4.384  16.775  0.00  0.00    +0.000 A 
ATOM     21  C   UNL     1       7.427   5.411  17.716  0.00  0.00    +0.000 A 
ATOM     22  C   UNL     1       6.315   6.232  17.935  0.00  0.00    +0.000 A 
ENDBRANCH  16  17
ENDBRANCH   1  16
TORSDOF 4
ENDMDL
MODEL 6
REMARK VINA RESULT:      -7.2      2.147      4.958
REMARK  Name = 
REMARK  4 active torsions:
REMARK  status: ('A' for Active; 'I' for Inactive)
REMARK    1  A    between atoms: C_2  and  C_3
REMARK    2  A    between atoms: C_3  and  C_4
REMARK    3  A    between atoms: C_3  and  N_11
REMARK    4  A    between atoms: C_4  and  C_5
REMARK                            x       y       z     vdW  Elec       q    Type
REMARK                         _______ _______ _______ _____ _____    ______ ____
ROOT
ATOM      1  C   UNL     1       5.255   5.330  17.043  0.00  0.00    +0.000 C 
ENDROOT
BRANCH   1   3
ATOM      2  O   UNL     1       3.471   6.727  17.847  0.00  0.00    +0.000 OA
ATOM      3  C   UNL     1       4.019   5.623  17.914  0.00  0.00    +0.000 C 
ATOM      4  N   UNL     1       3.557   4.660  18.817  0.00  0.00    +0.000 N 
ATOM      5  C   UNL     1       4.142   3.337  19.033  0.00  0.00    +0.000 C 
ATOM      6  C   UNL     1       3.580   2.299  18.062  0.00  0.00    +0.000 C 
ATOM      7  C   UNL     1       2.097   1.954  18.230  0.00  0.00    +0.000 C 
ATOM      8  C   UNL     1       1.136   3.136  18.380  0.00  0.00    +0.000 C 
ATOM      9  C   UNL     1       1.332   3.882  19.700  0.00  0.00    +0.000 C 
ATOM     10  C   UNL     1       2.381   4.990  19.623  0.00  0.00    +0.000 C 
ENDBRANCH   1   3
BRANCH   1  11
ATOM     11  N   UNL     1       6.452   5.865  17.718  0.00  0.00    +0.000 N 
ATOM     12  C   UNL     1       7.038   7.084  17.483  0.00  0.00    +0.000 A 
ATOM     13  C   UNL     1       8.091   7.230  18.364  0.00  0.00    +0.000 A 
ATOM     14  C   UNL     1       8.140   6.067  19.163  0.00  0.00    +0.000 A 
ATOM     15  C   UNL     1       7.128   5.238  18.741  0.00  0.00    +0.000 A 
ENDBRANCH   1  11
BRANCH   1  16
ATOM     16  C   UNL     1       5.165   5.968  15.634  0.00  0.00    +0.000 C 
BRANCH  16  17
ATOM     17  C   UNL     1       5.757   5.185  14.483  0.00  0.00    +0.000 A 
ATOM     18  C   UNL     1       7.069   5.450  14.062  0.00  0.00    +0.000 A 
ATOM     19  C   UNL     1       7.657   4.710  13.036  0.00  0.00    +0.000 A 
ATOM     20  C   UNL     1       6.944   3.687  12.421  0.00  0.00    +0.000 A 
ATOM     21  C   UNL     1       5.645   3.400  12.839  0.00  0.00    +0.000 A 
ATOM     22  C   UNL     1       5.051   4.145  13.864  0.00  0.00    +0.000 A 
ENDBRANCH  16  17
ENDBRANCH   1  16
TORSDOF 4
ENDMDL
MODEL 7
REMARK VINA RESULT:      -7.2      1.273      4.778
REMARK  Name = 
REMARK  4 active torsions:
REMARK  status: ('A' for Active; 'I' for Inactive)
REMARK    1  A    between atoms: C_2  and  C_3
REMARK    2  A    between atoms: C_3  and  C_4
REMARK    3  A    between atoms: C_3  and  N_11
REMARK    4  A    between atoms: C_4  and  C_5
REMARK                            x       y       z     vdW  Elec       q    Type
REMARK                         _______ _______ _______ _____ _____    ______ ____
ROOT
ATOM      1  C   UNL     1       3.682   5.382  19.497  0.00  0.00    +0.000 C 
ENDROOT
BRANCH   1   3
ATOM      2  O   UNL     1       5.213   3.528  19.538  0.00  0.00    +0.000 OA
ATOM      3  C   UNL     1       4.959   4.639  19.062  0.00  0.00    +0.000 C 
ATOM      4  N   UNL     1       5.854   5.248  18.177  0.00  0.00    +0.000 N 
ATOM      5  C   UNL     1       5.702   6.576  17.582  0.00  0.00    +0.000 C 
ATOM      6  C   UNL     1       4.883   6.533  16.292  0.00  0.00    +0.000 C 
ATOM      7  C   UNL     1       5.523   5.795  15.113  0.00  0.00    +0.000 C 
ATOM      8  C   UNL     1       6.132   4.424  15.417  0.00  0.00    +0.000 C 
ATOM      9  C   UNL     1       7.373   4.522  16.304  0.00  0.00    +0.000 C 
ATOM     10  C   UNL     1       7.054   4.500  17.799  0.00  0.00    +0.000 C 
ENDBRANCH   1   3
BRANCH   1  11
ATOM     11  N   UNL     1       2.676   4.393  19.926  0.00  0.00    +0.000 N 
ATOM     12  C   UNL     1       2.368   4.061  21.222  0.00  0.00    +0.000 A 
ATOM     13  C   UNL     1       1.333   3.148  21.194  0.00  0.00    +0.000 A 
ATOM     14  C   UNL     1       0.997   2.927  19.841  0.00  0.00    +0.000 A 
ATOM     15  C   UNL     1       1.843   3.696  19.079  0.00  0.00    +0.000 A 
ENDBRANCH   1  11
BRANCH   1  16
ATOM     16  C   UNL     1       3.069   6.241  18.362  0.00  0.00    +0.000 C 
BRANCH  16  17
ATOM     17  C   UNL     1       2.329   7.496  18.769  0.00  0.00    +0.000 A 
ATOM     18  C   UNL     1       1.998   8.455  17.799  0.00  0.00    +0.000 A 
ATOM     19  C   UNL     1       1.274   9.598  18.138  0.00  0.00    +0.000 A 
ATOM     20  C   UNL     1       0.861   9.794  19.451  0.00  0.00    +0.000 A 
ATOM     21  C   UNL     1       1.168   8.843  20.423  0.00  0.00    +0.000 A 
ATOM     22  C   UNL     1       1.900   7.699  20.086  0.00  0.00    +0.000 A 
ENDBRANCH  16  17
ENDBRANCH   1  16
TORSDOF 4
ENDMDL
MODEL 8
REMARK VINA RESULT:      -7.1      1.277      4.683
REMARK  Name = 
REMARK  4 active torsions:
REMARK  status: ('A' for Active; 'I' for Inactive)
REMARK    1  A    between atoms: C_2  and  C_3
REMARK    2  A    between atoms: C_3  and  C_4
REMARK    3  A    between atoms: C_3  and  N_11
REMARK    4  A    between atoms: C_4  and  C_5
REMARK                            x       y       z     vdW  Elec       q    Type
REMARK                         _______ _______ _______ _____ _____    ______ ____
ROOT
ATOM      1  C   UNL     1       3.683   5.383  19.475  0.00  0.00    +0.000 C 
ENDROOT
BRANCH   1   3
ATOM      2  O   UNL     1       5.204   3.521  19.508  0.00  0.00    +0.000 OA
ATOM      3  C   UNL     1       4.957   4.636  19.039  0.00  0.00    +0.000 C 
ATOM      4  N   UNL     1       5.858   5.246  18.160  0.00  0.00    +0.000 N 
ATOM      5  C   UNL     1       5.713   6.578  17.572  0.00  0.00    +0.000 C 
ATOM      6  C   UNL     1       4.897   6.547  16.280  0.00  0.00    +0.000 C 
ATOM      7  C   UNL     1       5.537   5.814  15.098  0.00  0.00    +0.000 C 
ATOM      8  C   UNL     1       6.138   4.438  15.395  0.00  0.00    +0.000 C 
ATOM      9  C   UNL     1       7.377   4.524  16.286  0.00  0.00    +0.000 C 
ATOM     10  C   UNL     1       7.055   4.495  17.780  0.00  0.00    +0.000 C 
ENDBRANCH   1   3
BRANCH   1  11
ATOM     11  N   UNL     1       2.685   4.399  19.933  0.00  0.00    +0.000 N 
ATOM     12  C   UNL     1       2.385   4.098  21.238  0.00  0.00    +0.000 A 
ATOM     13  C   UNL     1       1.355   3.177  21.238  0.00  0.00    +0.000 A 
ATOM     14  C   UNL     1       1.015   2.920  19.892  0.00  0.00    +0.000 A 
ATOM     15  C   UNL     1       1.853   3.675  19.108  0.00  0.00    +0.000 A 
ENDBRANCH   1  11
BRANCH   1  16
ATOM     16  C   UNL     1       3.054   6.220  18.332  0.00  0.00    +0.000 C 
BRANCH  16  17
ATOM     17  C   UNL     1       2.289   7.463  18.728  0.00  0.00    +0.000 A 
ATOM     18  C   UNL     1       1.889   7.641  20.061  0.00  0.00    +0.000 A 
ATOM     19  C   UNL     1       1.226   8.800  20.464  0.00  0.00    +0.000 A 
ATOM     20  C   UNL     1       0.960   9.804  19.539  0.00  0.00    +0.000 A 
ATOM     21  C   UNL     1       1.366   9.650  18.214  0.00  0.00    +0.000 A 
ATOM     22  C   UNL     1       2.025   8.485  17.807  0.00  0.00    +0.000 A 
ENDBRANCH  16  17
ENDBRANCH   1  16
TORSDOF 4
ENDMDL
MODEL 9
REMARK VINA RESULT:      -6.6      1.729      5.785
REMARK  Name = 
REMARK  4 active torsions:
REMARK  status: ('A' for Active; 'I' for Inactive)
REMARK    1  A    between atoms: C_2  and  C_3
REMARK    2  A    between atoms: C_3  and  C_4
REMARK    3  A    between atoms: C_3  and  N_11
REMARK    4  A    between atoms: C_4  and  C_5
REMARK                            x       y       z     vdW  Elec       q    Type
REMARK                         _______ _______ _______ _____ _____    ______ ____
ROOT
ATOM      1  C   UNL     1       2.810   6.642  18.154  0.00  0.00    +0.000 C 
ENDROOT
BRANCH   1   3
ATOM      2  O   UNL     1       4.124   5.493  19.808  0.00  0.00    +0.000 OA
ATOM      3  C   UNL     1       4.122   6.060  18.712  0.00  0.00    +0.000 C 
ATOM      4  N   UNL     1       5.316   6.226  18.002  0.00  0.00    +0.000 N 
ATOM      5  C   UNL     1       5.464   6.918  16.722  0.00  0.00    +0.000 C 
ATOM      6  C   UNL     1       5.209   5.987  15.537  0.00  0.00    +0.000 C 
ATOM      7  C   UNL     1       6.225   4.859  15.336  0.00  0.00    +0.000 C 
ATOM      8  C   UNL     1       6.609   4.060  16.584  0.00  0.00    +0.000 C 
ATOM      9  C   UNL     1       7.410   4.892  17.585  0.00  0.00    +0.000 C 
ATOM     10  C   UNL     1       6.536   5.657  18.577  0.00  0.00    +0.000 C 
ENDBRANCH   1   3
BRANCH   1  11
ATOM     11  N   UNL     1       2.173   7.467  19.197  0.00  0.00    +0.000 N 
ATOM     12  C   UNL     1       1.767   8.772  19.061  0.00  0.00    +0.000 A 
ATOM     13  C   UNL     1       1.162   9.156  20.242  0.00  0.00    +0.000 A 
ATOM     14  C   UNL     1       1.194   8.048  21.116  0.00  0.00    +0.000 A 
ATOM     15  C   UNL     1       1.828   7.024  20.454  0.00  0.00    +0.000 A 
ENDBRANCH   1  11
BRANCH   1  16
ATOM     16  C   UNL     1       1.803   5.547  17.716  0.00  0.00    +0.000 C 
BRANCH  16  17
ATOM     17  C   UNL     1       2.140   4.117  18.076  0.00  0.00    +0.000 A 
ATOM     18  C   UNL     1       3.080   3.409  17.310  0.00  0.00    +0.000 A 
ATOM     19  C   UNL     1       3.445   2.106  17.648  0.00  0.00    +0.000 A 
ATOM     20  C   UNL     1       2.882   1.494  18.762  0.00  0.00    +0.000 A 
ATOM     21  C   UNL     1       1.960   2.190  19.542  0.00  0.00    +0.000 A 
ATOM     22  C   UNL     1       1.587   3.495  19.202  0.00  0.00    +0.000 A 
ENDBRANCH  16  17
ENDBRANCH   1  16
TORSDOF 4
ENDMDL
