MODEL 1
REMARK VINA RESULT:      -8.5      0.000      0.000
REMARK  Name = 
REMARK  3 active torsions:
REMARK  status: ('A' for Active; 'I' for Inactive)
REMARK    1  A    between atoms: C_1  and  C_2
REMARK    2  A    between atoms: C_2  and  C_14
REMARK    3  A    between atoms: N_3  and  N_4
REMARK                            x       y       z     vdW  Elec       q    Type
REMARK                         _______ _______ _______ _____ _____    ______ ____
ROOT
ATOM      1  N   UNL     1       6.320   4.363  18.239  0.00  0.00    +0.000 N 
ATOM      2  C   UNL     1       5.056   4.169  18.684  0.00  0.00    +0.000 A 
ATOM      3  N   UNL     1       4.479   4.788  19.695  0.00  0.00    +0.000 NA
ATOM      4  C   UNL     1       3.220   4.245  19.727  0.00  0.00    +0.000 A 
ATOM      5  C   UNL     1       2.129   4.506  20.569  0.00  0.00    +0.000 A 
ATOM      6  C   UNL     1       0.955   3.765  20.377  0.00  0.00    +0.000 A 
ATOM      7  C   UNL     1       0.872   2.789  19.377  0.00  0.00    +0.000 A 
ATOM      8  C   UNL     1       1.951   2.526  18.521  0.00  0.00    +0.000 A 
ATOM      9  C   UNL     1       3.094   3.286  18.741  0.00  0.00    +0.000 A 
ATOM     10  O   UNL     1       4.272   3.237  18.056  0.00  0.00    +0.000 OA
ATOM     11  H   UNL     1       6.772   5.130  18.733  0.00  0.00    +0.000 HD
ENDROOT
BRANCH   1  14
ATOM     12  C   UNL     1       5.695   6.363  16.326  0.00  0.00    +0.000 C 
ATOM     13  C   UNL     1       6.371   5.036  16.038  0.00  0.00    +0.000 C 
ATOM     14  N   UNL     1       6.691   4.149  16.943  0.00  0.00    +0.000 NA
BRANCH  13  15
ATOM     15  C   UNL     1       6.683   4.776  14.592  0.00  0.00    +0.000 A 
ATOM     16  N   UNL     1       5.958   3.822  13.971  0.00  0.00    +0.000 NA
ATOM     17  C   UNL     1       6.268   3.598  12.681  0.00  0.00    +0.000 A 
ATOM     18  C   UNL     1       7.256   4.277  12.006  0.00  0.00    +0.000 A 
ATOM     19  C   UNL     1       7.937   5.222  12.738  0.00  0.00    +0.000 A 
ATOM     20  N   UNL     1       7.676   5.490  14.028  0.00  0.00    +0.000 NA
ENDBRANCH  13  15
ENDBRANCH   1  14
TORSDOF 2
ENDMDL
MODEL 2
REMARK VINA RESULT:      -8.3      0.161      1.096
REMARK  Name = 
REMARK  3 active torsions:
REMARK  status: ('A' for Active; 'I' for Inactive)
REMARK    1  A    between atoms: C_1  and  C_2
REMARK    2  A    between atoms: C_2  and  C_14
REMARK    3  A    between atoms: N_3  and  N_4
REMARK                            x       y       z     vdW  Elec       q    Type
REMARK                         _______ _______ _______ _____ _____    ______ ____
ROOT
ATOM      1  N   UNL     1       6.283   4.583  18.270  0.00  0.00    +0.000 N 
ATOM      2  C   UNL     1       5.026   4.372  18.727  0.00  0.00    +0.000 A 
ATOM      3  N   UNL     1       4.426   5.028  19.701  0.00  0.00    +0.000 NA
ATOM      4  C   UNL     1       3.187   4.444  19.765  0.00  0.00    +0.000 A 
ATOM      5  C   UNL     1       2.086   4.716  20.590  0.00  0.00    +0.000 A 
ATOM      6  C   UNL     1       0.938   3.925  20.442  0.00  0.00    +0.000 A 
ATOM      7  C   UNL     1       0.891   2.890  19.501  0.00  0.00    +0.000 A 
ATOM      8  C   UNL     1       1.980   2.616  18.660  0.00  0.00    +0.000 A 
ATOM      9  C   UNL     1       3.095   3.426  18.836  0.00  0.00    +0.000 A 
ATOM     10  O   UNL     1       4.276   3.379  18.154  0.00  0.00    +0.000 OA
ATOM     11  H   UNL     1       6.708   5.392  18.719  0.00  0.00    +0.000 HD
ENDROOT
BRANCH   1  14
ATOM     12  C   UNL     1       5.553   6.425  16.239  0.00  0.00    +0.000 C 
ATOM     13  C   UNL     1       6.296   5.118  16.032  0.00  0.00    +0.000 C 
ATOM     14  N   UNL     1       6.664   4.308  16.989  0.00  0.00    +0.000 NA
BRANCH  13  15
ATOM     15  C   UNL     1       6.620   4.785  14.603  0.00  0.00    +0.000 A 
ATOM     16  N   UNL     1       7.614   5.488  14.021  0.00  0.00    +0.000 NA
ATOM     17  C   UNL     1       7.874   5.183  12.737  0.00  0.00    +0.000 A 
ATOM     18  C   UNL     1       7.190   4.220  12.030  0.00  0.00    +0.000 A 
ATOM     19  C   UNL     1       6.192   3.571  12.719  0.00  0.00    +0.000 A 
ATOM     20  N   UNL     1       5.884   3.832  14.000  0.00  0.00    +0.000 NA
ENDBRANCH  13  15
ENDBRANCH   1  14
TORSDOF 2
ENDMDL
MODEL 3
REMARK VINA RESULT:      -8.1      1.053      1.587
REMARK  Name = 
REMARK  3 active torsions:
REMARK  status: ('A' for Active; 'I' for Inactive)
REMARK    1  A    between atoms: C_1  and  C_2
REMARK    2  A    between atoms: C_2  and  C_14
REMARK    3  A    between atoms: N_3  and  N_4
REMARK                            x       y       z     vdW  Elec       q    Type
REMARK                         _______ _______ _______ _____ _____    ______ ____
ROOT
ATOM      1  N   UNL     1       5.102   6.017  17.604  0.00  0.00    +0.000 N 
ATOM      2  C   UNL     1       4.232   5.347  18.395  0.00  0.00    +0.000 A 
ATOM      3  N   UNL     1       3.576   5.836  19.429  0.00  0.00    +0.000 NA
ATOM      4  C   UNL     1       2.835   4.770  19.873  0.00  0.00    +0.000 A 
ATOM      5  C   UNL     1       1.922   4.665  20.933  0.00  0.00    +0.000 A 
ATOM      6  C   UNL     1       1.324   3.419  21.167  0.00  0.00    +0.000 A 
ATOM      7  C   UNL     1       1.630   2.309  20.370  0.00  0.00    +0.000 A 
ATOM      8  C   UNL     1       2.531   2.404  19.300  0.00  0.00    +0.000 A 
ATOM      9  C   UNL     1       3.098   3.657  19.098  0.00  0.00    +0.000 A 
ATOM     10  O   UNL     1       3.991   4.023  18.135  0.00  0.00    +0.000 OA
ATOM     11  H   UNL     1       5.136   7.005  17.849  0.00  0.00    +0.000 HD
ENDROOT
BRANCH   1  14
ATOM     12  C   UNL     1       7.434   4.524  16.984  0.00  0.00    +0.000 C 
ATOM     13  C   UNL     1       6.416   5.043  15.985  0.00  0.00    +0.000 C 
ATOM     14  N   UNL     1       5.324   5.688  16.298  0.00  0.00    +0.000 NA
BRANCH  13  15
ATOM     15  C   UNL     1       6.728   4.756  14.544  0.00  0.00    +0.000 A 
ATOM     16  N   UNL     1       7.698   5.498  13.969  0.00  0.00    +0.000 NA
ATOM     17  C   UNL     1       7.948   5.233  12.674  0.00  0.00    +0.000 A 
ATOM     18  C   UNL     1       7.277   4.274  11.949  0.00  0.00    +0.000 A 
ATOM     19  C   UNL     1       6.303   3.584  12.632  0.00  0.00    +0.000 A 
ATOM     20  N   UNL     1       6.006   3.804  13.924  0.00  0.00    +0.000 NA
ENDBRANCH  13  15
ENDBRANCH   1  14
TORSDOF 2
ENDMDL
MODEL 4
REMARK VINA RESULT:      -8.1      1.083      1.179
REMARK  Name = 
REMARK  3 active torsions:
REMARK  status: ('A' for Active; 'I' for Inactive)
REMARK    1  A    between atoms: C_1  and  C_2
REMARK    2  A    between atoms: C_2  and  C_14
REMARK    3  A    between atoms: N_3  and  N_4
REMARK                            x       y       z     vdW  Elec       q    Type
REMARK                         _______ _______ _______ _____ _____    ______ ____
ROOT
ATOM      1  N   UNL     1       4.986   6.070  17.561  0.00  0.00    +0.000 N 
ATOM      2  C   UNL     1       4.121   5.390  18.350  0.00  0.00    +0.000 A 
ATOM      3  N   UNL     1       3.447   5.877  19.374  0.00  0.00    +0.000 NA
ATOM      4  C   UNL     1       2.721   4.802  19.820  0.00  0.00    +0.000 A 
ATOM      5  C   UNL     1       1.801   4.688  20.873  0.00  0.00    +0.000 A 
ATOM      6  C   UNL     1       1.223   3.435  21.112  0.00  0.00    +0.000 A 
ATOM      7  C   UNL     1       1.556   2.324  20.329  0.00  0.00    +0.000 A 
ATOM      8  C   UNL     1       2.465   2.425  19.266  0.00  0.00    +0.000 A 
ATOM      9  C   UNL     1       3.011   3.687  19.058  0.00  0.00    +0.000 A 
ATOM     10  O   UNL     1       3.907   4.060  18.100  0.00  0.00    +0.000 OA
ATOM     11  H   UNL     1       5.000   7.060  17.797  0.00  0.00    +0.000 HD
ENDROOT
BRANCH   1  14
ATOM     12  C   UNL     1       7.337   4.591  16.979  0.00  0.00    +0.000 C 
ATOM     13  C   UNL     1       6.326   5.095  15.964  0.00  0.00    +0.000 C 
ATOM     14  N   UNL     1       5.226   5.734  16.260  0.00  0.00    +0.000 NA
BRANCH  13  15
ATOM     15  C   UNL     1       6.658   4.800  14.529  0.00  0.00    +0.000 A 
ATOM     16  N   UNL     1       5.935   3.837  13.919  0.00  0.00    +0.000 NA
ATOM     17  C   UNL     1       6.262   3.581  12.640  0.00  0.00    +0.000 A 
ATOM     18  C   UNL     1       7.265   4.238  11.964  0.00  0.00    +0.000 A 
ATOM     19  C   UNL     1       7.942   5.194  12.684  0.00  0.00    +0.000 A 
ATOM     20  N   UNL     1       7.664   5.494  13.964  0.00  0.00    +0.000 NA
ENDBRANCH  13  15
ENDBRANCH   1  14
TORSDOF 2
ENDMDL
MODEL 5
REMARK VINA RESULT:      -7.9      1.551      7.005
REMARK  Name = 
REMARK  3 active torsions:
REMARK  status: ('A' for Active; 'I' for Inactive)
REMARK    1  A    between atoms: C_1  and  C_2
REMARK    2  A    between atoms: C_2  and  C_14
REMARK    3  A    between atoms: N_3  and  N_4
REMARK                            x       y       z     vdW  Elec       q    Type
REMARK                         _______ _______ _______ _____ _____    ______ ____
ROOT
ATOM      1  N   UNL     1       5.808   5.554  17.462  0.00  0.00    +0.000 N 
ATOM      2  C   UNL     1       6.106   5.212  16.187  0.00  0.00    +0.000 A 
ATOM      3  N   UNL     1       7.173   5.582  15.506  0.00  0.00    +0.000 NA
ATOM      4  C   UNL     1       7.004   4.971  14.289  0.00  0.00    +0.000 A 
ATOM      5  C   UNL     1       7.813   4.968  13.143  0.00  0.00    +0.000 A 
ATOM      6  C   UNL     1       7.364   4.260  12.020  0.00  0.00    +0.000 A 
ATOM      7  C   UNL     1       6.142   3.579  12.036  0.00  0.00    +0.000 A 
ATOM      8  C   UNL     1       5.328   3.563  13.179  0.00  0.00    +0.000 A 
ATOM      9  C   UNL     1       5.813   4.272  14.272  0.00  0.00    +0.000 A 
ATOM     10  O   UNL     1       5.230   4.414  15.498  0.00  0.00    +0.000 OA
ATOM     11  H   UNL     1       6.567   6.081  17.890  0.00  0.00    +0.000 HD
ENDROOT
BRANCH   1  14
ATOM     12  C   UNL     1       3.152   6.383  18.021  0.00  0.00    +0.000 C 
ATOM     13  C   UNL     1       3.842   5.159  18.593  0.00  0.00    +0.000 C 
ATOM     14  N   UNL     1       5.051   4.770  18.284  0.00  0.00    +0.000 NA
BRANCH  13  15
ATOM     15  C   UNL     1       3.027   4.363  19.571  0.00  0.00    +0.000 A 
ATOM     16  N   UNL     1       3.641   3.326  20.179  0.00  0.00    +0.000 NA
ATOM     17  C   UNL     1       2.885   2.619  21.038  0.00  0.00    +0.000 A 
ATOM     18  C   UNL     1       1.566   2.906  21.305  0.00  0.00    +0.000 A 
ATOM     19  C   UNL     1       1.039   3.978  20.625  0.00  0.00    +0.000 A 
ATOM     20  N   UNL     1       1.742   4.721  19.753  0.00  0.00    +0.000 NA
ENDBRANCH  13  15
ENDBRANCH   1  14
TORSDOF 2
ENDMDL
MODEL 6
REMARK VINA RESULT:      -7.8      1.534      6.992
REMARK  Name = 
REMARK  3 active torsions:
REMARK  status: ('A' for Active; 'I' for Inactive)
REMARK    1  A    between atoms: C_1  and  C_2
REMARK    2  A    between atoms: C_2  and  C_14
REMARK    3  A    between atoms: N_3  and  N_4
REMARK                            x       y       z     vdW  Elec       q    Type
REMARK                         _______ _______ _______ _____ _____    ______ ____
ROOT
ATOM      1  N   UNL     1       5.894   5.571  17.463  0.00  0.00    +0.000 N 
ATOM      2  C   UNL     1       6.173   5.219  16.187  0.00  0.00    +0.000 A 
ATOM      3  N   UNL     1       7.223   5.595  15.482  0.00  0.00    +0.000 NA
ATOM      4  C   UNL     1       7.040   4.968  14.275  0.00  0.00    +0.000 A 
ATOM      5  C   UNL     1       7.828   4.963  13.115  0.00  0.00    +0.000 A 
ATOM      6  C   UNL     1       7.369   4.237  12.008  0.00  0.00    +0.000 A 
ATOM      7  C   UNL     1       6.157   3.540  12.054  0.00  0.00    +0.000 A 
ATOM      8  C   UNL     1       5.364   3.526  13.212  0.00  0.00    +0.000 A 
ATOM      9  C   UNL     1       5.858   4.253  14.288  0.00  0.00    +0.000 A 
ATOM     10  O   UNL     1       5.297   4.402  15.522  0.00  0.00    +0.000 OA
ATOM     11  H   UNL     1       6.653   6.113  17.871  0.00  0.00    +0.000 HD
ENDROOT
BRANCH   1  14
ATOM     12  C   UNL     1       3.206   6.318  17.984  0.00  0.00    +0.000 C 
ATOM     13  C   UNL     1       3.939   5.139  18.598  0.00  0.00    +0.000 C 
ATOM     14  N   UNL     1       5.162   4.786  18.308  0.00  0.00    +0.000 NA
BRANCH  13  15
ATOM     15  C   UNL     1       3.149   4.345  19.600  0.00  0.00    +0.000 A 
ATOM     16  N   UNL     1       1.939   4.832  19.950  0.00  0.00    +0.000 NA
ATOM     17  C   UNL     1       1.259   4.111  20.859  0.00  0.00    +0.000 A 
ATOM     18  C   UNL     1       1.735   2.948  21.420  0.00  0.00    +0.000 A 
ATOM     19  C   UNL     1       2.981   2.549  20.997  0.00  0.00    +0.000 A 
ATOM     20  N   UNL     1       3.710   3.225  20.094  0.00  0.00    +0.000 NA
ENDBRANCH  13  15
ENDBRANCH   1  14
TORSDOF 2
ENDMDL
MODEL 7
REMARK VINA RESULT:      -7.4      5.821      8.124
REMARK  Name = 
REMARK  3 active torsions:
REMARK  status: ('A' for Active; 'I' for Inactive)
REMARK    1  A    between atoms: C_1  and  C_2
REMARK    2  A    between atoms: C_2  and  C_14
REMARK    3  A    between atoms: N_3  and  N_4
REMARK                            x       y       z     vdW  Elec       q    Type
REMARK                         _______ _______ _______ _____ _____    ______ ____
ROOT
ATOM      1  N   UNL     1       8.655   8.648  18.899  0.00  0.00    +0.000 N 
ATOM      2  C   UNL     1       9.088   9.929  18.840  0.00  0.00    +0.000 A 
ATOM      3  N   UNL     1      10.124  10.436  19.479  0.00  0.00    +0.000 NA
ATOM      4  C   UNL     1      10.136  11.748  19.080  0.00  0.00    +0.000 A 
ATOM      5  C   UNL     1      11.009  12.798  19.403  0.00  0.00    +0.000 A 
ATOM      6  C   UNL     1      10.755  14.061  18.852  0.00  0.00    +0.000 A 
ATOM      7  C   UNL     1       9.660  14.273  18.006  0.00  0.00    +0.000 A 
ATOM      8  C   UNL     1       8.786  13.230  17.665  0.00  0.00    +0.000 A 
ATOM      9  C   UNL     1       9.077  11.993  18.228  0.00  0.00    +0.000 A 
ATOM     10  O   UNL     1       8.400  10.821  18.060  0.00  0.00    +0.000 OA
ATOM     11  H   UNL     1       9.290   8.069  19.446  0.00  0.00    +0.000 HD
ENDROOT
BRANCH   1  14
ATOM     12  C   UNL     1       7.866   5.943  19.238  0.00  0.00    +0.000 C 
ATOM     13  C   UNL     1       7.652   6.784  17.993  0.00  0.00    +0.000 C 
ATOM     14  N   UNL     1       7.982   8.043  17.877  0.00  0.00    +0.000 NA
BRANCH  13  15
ATOM     15  C   UNL     1       6.997   6.073  16.844  0.00  0.00    +0.000 A 
ATOM     16  N   UNL     1       5.914   6.663  16.295  0.00  0.00    +0.000 NA
ATOM     17  C   UNL     1       5.337   5.998  15.279  0.00  0.00    +0.000 A 
ATOM     18  C   UNL     1       5.793   4.790  14.802  0.00  0.00    +0.000 A 
ATOM     19  C   UNL     1       6.897   4.276  15.440  0.00  0.00    +0.000 A 
ATOM     20  N   UNL     1       7.517   4.891  16.462  0.00  0.00    +0.000 NA
ENDBRANCH  13  15
ENDBRANCH   1  14
TORSDOF 2
ENDMDL
MODEL 8
REMARK VINA RESULT:      -7.4      5.820      8.128
REMARK  Name = 
REMARK  3 active torsions:
REMARK  status: ('A' for Active; 'I' for Inactive)
REMARK    1  A    between atoms: C_1  and  C_2
REMARK    2  A    between atoms: C_2  and  C_14
REMARK    3  A    between atoms: N_3  and  N_4
REMARK                            x       y       z     vdW  Elec       q    Type
REMARK                         _______ _______ _______ _____ _____    ______ ____
ROOT
ATOM      1  N   UNL     1       8.648   8.655  18.890  0.00  0.00    +0.000 N 
ATOM      2  C   UNL     1       9.088   9.933  18.822  0.00  0.00    +0.000 A 
ATOM      3  N   UNL     1      10.134  10.436  19.447  0.00  0.00    +0.000 NA
ATOM      4  C   UNL     1      10.150  11.747  19.043  0.00  0.00    +0.000 A 
ATOM      5  C   UNL     1      11.033  12.792  19.352  0.00  0.00    +0.000 A 
ATOM      6  C   UNL     1      10.780  14.055  18.800  0.00  0.00    +0.000 A 
ATOM      7  C   UNL     1       9.677  14.271  17.966  0.00  0.00    +0.000 A 
ATOM      8  C   UNL     1       8.793  13.232  17.639  0.00  0.00    +0.000 A 
ATOM      9  C   UNL     1       9.082  11.995  18.203  0.00  0.00    +0.000 A 
ATOM     10  O   UNL     1       8.396  10.827  18.046  0.00  0.00    +0.000 OA
ATOM     11  H   UNL     1       9.286   8.074  19.431  0.00  0.00    +0.000 HD
ENDROOT
BRANCH   1  14
ATOM     12  C   UNL     1       7.896   5.939  19.225  0.00  0.00    +0.000 C 
ATOM     13  C   UNL     1       7.646   6.788  17.991  0.00  0.00    +0.000 C 
ATOM     14  N   UNL     1       7.960   8.051  17.878  0.00  0.00    +0.000 NA
BRANCH  13  15
ATOM     15  C   UNL     1       6.974   6.078  16.851  0.00  0.00    +0.000 A 
ATOM     16  N   UNL     1       7.526   4.915  16.444  0.00  0.00    +0.000 NA
ATOM     17  C   UNL     1       6.916   4.307  15.411  0.00  0.00    +0.000 A 
ATOM     18  C   UNL     1       5.799   4.810  14.783  0.00  0.00    +0.000 A 
ATOM     19  C   UNL     1       5.326   6.004  15.274  0.00  0.00    +0.000 A 
ATOM     20  N   UNL     1       5.892   6.660  16.301  0.00  0.00    +0.000 NA
ENDBRANCH  13  15
ENDBRANCH   1  14
TORSDOF 2
ENDMDL
MODEL 9
REMARK VINA RESULT:      -7.1      4.634      6.604
REMARK  Name = 
REMARK  3 active torsions:
REMARK  status: ('A' for Active; 'I' for Inactive)
REMARK    1  A    between atoms: C_1  and  C_2
REMARK    2  A    between atoms: C_2  and  C_14
REMARK    3  A    between atoms: N_3  and  N_4
REMARK                            x       y       z     vdW  Elec       q    Type
REMARK                         _______ _______ _______ _____ _____    ______ ____
ROOT
ATOM      1  N   UNL     1       2.268   7.894  18.950  0.00  0.00    +0.000 N 
ATOM      2  C   UNL     1       1.495   8.668  19.747  0.00  0.00    +0.000 A 
ATOM      3  N   UNL     1       0.945   9.822  19.424  0.00  0.00    +0.000 NA
ATOM      4  C   UNL     1       0.270  10.186  20.562  0.00  0.00    +0.000 A 
ATOM      5  C   UNL     1      -0.524  11.308  20.838  0.00  0.00    +0.000 A 
ATOM      6  C   UNL     1      -1.078  11.425  22.121  0.00  0.00    +0.000 A 
ATOM      7  C   UNL     1      -0.842  10.454  23.101  0.00  0.00    +0.000 A 
ATOM      8  C   UNL     1      -0.060   9.321  22.834  0.00  0.00    +0.000 A 
ATOM      9  C   UNL     1       0.465   9.240  21.550  0.00  0.00    +0.000 A 
ATOM     10  O   UNL     1       1.247   8.251  21.029  0.00  0.00    +0.000 OA
ATOM     11  H   UNL     1       2.314   8.269  18.005  0.00  0.00    +0.000 HD
ENDROOT
BRANCH   1  14
ATOM     12  C   UNL     1       4.228   6.521  17.425  0.00  0.00    +0.000 C 
ATOM     13  C   UNL     1       3.218   5.882  18.361  0.00  0.00    +0.000 C 
ATOM     14  N   UNL     1       2.355   6.539  19.089  0.00  0.00    +0.000 NA
BRANCH  13  15
ATOM     15  C   UNL     1       3.265   4.382  18.426  0.00  0.00    +0.000 A 
ATOM     16  N   UNL     1       4.110   3.835  19.325  0.00  0.00    +0.000 NA
ATOM     17  C   UNL     1       4.146   2.491  19.352  0.00  0.00    +0.000 A 
ATOM     18  C   UNL     1       3.384   1.692  18.530  0.00  0.00    +0.000 A 
ATOM     19  C   UNL     1       2.565   2.355  17.647  0.00  0.00    +0.000 A 
ATOM     20  N   UNL     1       2.486   3.694  17.570  0.00  0.00    +0.000 NA
ENDBRANCH  13  15
ENDBRANCH   1  14
TORSDOF 2
ENDMDL
