MODEL 1
REMARK VINA RESULT:      -7.7      0.000      0.000
REMARK  Name = 
REMARK  7 active torsions:
REMARK  status: ('A' for Active; 'I' for Inactive)
REMARK    1  A    between atoms: C_1  and  C_2
REMARK    2  A    between atoms: C_2  and  C_3
REMARK    3  A    between atoms: C_2  and  O_4
REMARK    4  A    between atoms: O_4  and  C_5
REMARK    5  A    between atoms: C_11  and  C_12
REMARK    6  A    between atoms: C_14  and  N_15
REMARK    7  A    between atoms: N_18  and  C_19
REMARK                            x       y       z     vdW  Elec       q    Type
REMARK                         _______ _______ _______ _____ _____    ______ ____
ROOT
ATOM      1  C   UNL     1       1.637   7.276  20.398  0.00  0.00    +0.000 A 
ATOM      2  C   UNL     1       2.528   7.184  19.343  0.00  0.00    +0.000 A 
ATOM      3  C   UNL     1       2.968   5.936  18.960  0.00  0.00    +0.000 A 
ATOM      4  N   UNL     1       2.504   4.842  19.582  0.00  0.00    +0.000 NA
ATOM      5  C   UNL     1       1.656   5.024  20.608  0.00  0.00    +0.000 A 
ATOM      6  N   UNL     1       1.191   6.194  21.061  0.00  0.00    +0.000 NA
ENDROOT
BRANCH   1  13
ATOM      7  C   UNL     1      -0.949  10.862  18.556  0.00  0.00    +0.000 A 
ATOM      8  C   UNL     1      -1.126  11.851  19.524  0.00  0.00    +0.000 A 
ATOM      9  C   UNL     1      -0.541  11.752  20.788  0.00  0.00    +0.000 A 
ATOM     10  C   UNL     1       0.211  10.608  21.054  0.00  0.00    +0.000 A 
ATOM     11  N   UNL     1       0.891  10.232  22.171  0.00  0.00    +0.000 N 
ATOM     12  N   UNL     1       1.475   9.039  22.086  0.00  0.00    +0.000 NA
ATOM     13  C   UNL     1       1.181   8.602  20.840  0.00  0.00    +0.000 A 
ATOM     14  C   UNL     1       0.396   9.580  20.138  0.00  0.00    +0.000 A 
ATOM     15  C   UNL     1      -0.187   9.717  18.858  0.00  0.00    +0.000 A 
ATOM     16  H   UNL     1       0.983  10.752  23.038  0.00  0.00    +0.000 HD
BRANCH   7  17
ATOM     17  O   UNL     1      -1.462  10.898  17.286  0.00  0.00    +0.000 OA
BRANCH  17  19
ATOM     18  C   UNL     1      -3.680  10.118  17.732  0.00  0.00    +0.000 C 
ATOM     19  C   UNL     1      -2.420   9.903  16.899  0.00  0.00    +0.000 C 
ATOM     20  C   UNL     1      -2.736  10.039  15.413  0.00  0.00    +0.000 C 
ENDBRANCH  17  19
ENDBRANCH   7  17
ENDBRANCH   1  13
BRANCH   3  21
ATOM     21  N   UNL     1       3.923   5.781  17.980  0.00  0.00    +0.000 N 
ATOM     22  C   UNL     1       4.403   6.896  17.162  0.00  0.00    +0.000 C 
ATOM     23  C   UNL     1       5.924   6.781  16.943  0.00  0.00    +0.000 C 
ATOM     24  N   UNL     1       6.371   5.480  16.407  0.00  0.00    +0.000 NA
ATOM     25  C   UNL     1       5.868   4.404  17.298  0.00  0.00    +0.000 C 
ATOM     26  C   UNL     1       4.348   4.437  17.582  0.00  0.00    +0.000 C 
BRANCH  24  27
ATOM     27  C   UNL     1       5.995   5.285  14.996  0.00  0.00    +0.000 C 
ATOM     28  C   UNL     1       7.059   4.930  13.990  0.00  0.00    +0.000 C 
ATOM     29  C   UNL     1       6.062   3.897  14.419  0.00  0.00    +0.000 C 
ENDBRANCH  24  27
ENDBRANCH   3  21
TORSDOF 5
ENDMDL
MODEL 2
REMARK VINA RESULT:      -7.5      2.916      9.001
REMARK  Name = 
REMARK  7 active torsions:
REMARK  status: ('A' for Active; 'I' for Inactive)
REMARK    1  A    between atoms: C_1  and  C_2
REMARK    2  A    between atoms: C_2  and  C_3
REMARK    3  A    between atoms: C_2  and  O_4
REMARK    4  A    between atoms: O_4  and  C_5
REMARK    5  A    between atoms: C_11  and  C_12
REMARK    6  A    between atoms: C_14  and  N_15
REMARK    7  A    between atoms: N_18  and  C_19
REMARK                            x       y       z     vdW  Elec       q    Type
REMARK                         _______ _______ _______ _____ _____    ______ ____
ROOT
ATOM      1  C   UNL     1       2.043   7.606  19.339  0.00  0.00    +0.000 A 
ATOM      2  C   UNL     1       1.180   8.245  20.213  0.00  0.00    +0.000 A 
ATOM      3  C   UNL     1       0.833   9.553  19.957  0.00  0.00    +0.000 A 
ATOM      4  N   UNL     1       1.303  10.168  18.860  0.00  0.00    +0.000 NA
ATOM      5  C   UNL     1       2.150   9.480  18.078  0.00  0.00    +0.000 A 
ATOM      6  N   UNL     1       2.556   8.219  18.257  0.00  0.00    +0.000 NA
ENDROOT
BRANCH   1  13
ATOM      7  C   UNL     1       4.338   4.118  16.993  0.00  0.00    +0.000 A 
ATOM      8  C   UNL     1       4.507   3.022  17.841  0.00  0.00    +0.000 A 
ATOM      9  C   UNL     1       3.989   3.013  19.138  0.00  0.00    +0.000 A 
ATOM     10  C   UNL     1       3.314   4.157  19.563  0.00  0.00    +0.000 A 
ATOM     11  N   UNL     1       2.710   4.443  20.747  0.00  0.00    +0.000 N 
ATOM     12  N   UNL     1       2.188   5.665  20.821  0.00  0.00    +0.000 NA
ATOM     13  C   UNL     1       2.447   6.219  19.614  0.00  0.00    +0.000 A 
ATOM     14  C   UNL     1       3.142   5.286  18.771  0.00  0.00    +0.000 A 
ATOM     15  C   UNL     1       3.655   5.259  17.455  0.00  0.00    +0.000 A 
ATOM     16  H   UNL     1       2.632   3.837  21.559  0.00  0.00    +0.000 HD
BRANCH   7  17
ATOM     17  O   UNL     1       4.787   4.194  15.701  0.00  0.00    +0.000 OA
BRANCH  17  19
ATOM     18  C   UNL     1       6.371   3.986  13.918  0.00  0.00    +0.000 C 
ATOM     19  C   UNL     1       6.141   3.817  15.417  0.00  0.00    +0.000 C 
ATOM     20  C   UNL     1       7.101   4.704  16.205  0.00  0.00    +0.000 C 
ENDBRANCH  17  19
ENDBRANCH   7  17
ENDBRANCH   1  13
BRANCH   3  21
ATOM     21  N   UNL     1       0.053  10.275  20.833  0.00  0.00    +0.000 N 
ATOM     22  C   UNL     1      -0.699   9.646  21.920  0.00  0.00    +0.000 C 
ATOM     23  C   UNL     1      -0.629  10.515  23.190  0.00  0.00    +0.000 C 
ATOM     24  N   UNL     1      -1.028  11.924  22.994  0.00  0.00    +0.000 NA
ATOM     25  C   UNL     1      -0.209  12.498  21.897  0.00  0.00    +0.000 C 
ATOM     26  C   UNL     1      -0.213  11.691  20.577  0.00  0.00    +0.000 C 
BRANCH  24  27
ATOM     27  C   UNL     1      -2.477  12.081  22.777  0.00  0.00    +0.000 C 
ATOM     28  C   UNL     1      -3.347  12.550  23.914  0.00  0.00    +0.000 C 
ATOM     29  C   UNL     1      -3.056  13.470  22.768  0.00  0.00    +0.000 C 
ENDBRANCH  24  27
ENDBRANCH   3  21
TORSDOF 5
ENDMDL
MODEL 3
REMARK VINA RESULT:      -7.4      2.666      8.514
REMARK  Name = 
REMARK  7 active torsions:
REMARK  status: ('A' for Active; 'I' for Inactive)
REMARK    1  A    between atoms: C_1  and  C_2
REMARK    2  A    between atoms: C_2  and  C_3
REMARK    3  A    between atoms: C_2  and  O_4
REMARK    4  A    between atoms: O_4  and  C_5
REMARK    5  A    between atoms: C_11  and  C_12
REMARK    6  A    between atoms: C_14  and  N_15
REMARK    7  A    between atoms: N_18  and  C_19
REMARK                            x       y       z     vdW  Elec       q    Type
REMARK                         _______ _______ _______ _____ _____    ______ ____
ROOT
ATOM      1  C   UNL     1       4.420   5.820  18.174  0.00  0.00    +0.000 A 
ATOM      2  C   UNL     1       3.709   6.997  18.331  0.00  0.00    +0.000 A 
ATOM      3  C   UNL     1       2.590   6.989  19.134  0.00  0.00    +0.000 A 
ATOM      4  N   UNL     1       2.232   5.863  19.772  0.00  0.00    +0.000 NA
ATOM      5  C   UNL     1       2.968   4.762  19.548  0.00  0.00    +0.000 A 
ATOM      6  N   UNL     1       4.054   4.672  18.773  0.00  0.00    +0.000 NA
ENDROOT
BRANCH   1  13
ATOM      7  C   UNL     1       5.522   4.079  13.850  0.00  0.00    +0.000 A 
ATOM      8  C   UNL     1       6.812   4.481  13.503  0.00  0.00    +0.000 A 
ATOM      9  C   UNL     1       7.609   5.221  14.379  0.00  0.00    +0.000 A 
ATOM     10  C   UNL     1       7.053   5.563  15.612  0.00  0.00    +0.000 A 
ATOM     11  N   UNL     1       7.572   6.263  16.656  0.00  0.00    +0.000 N 
ATOM     12  N   UNL     1       6.735   6.436  17.676  0.00  0.00    +0.000 NA
ATOM     13  C   UNL     1       5.600   5.804  17.296  0.00  0.00    +0.000 A 
ATOM     14  C   UNL     1       5.765   5.213  15.998  0.00  0.00    +0.000 A 
ATOM     15  C   UNL     1       4.988   4.444  15.101  0.00  0.00    +0.000 A 
ATOM     16  H   UNL     1       8.503   6.663  16.726  0.00  0.00    +0.000 HD
BRANCH   7  17
ATOM     17  O   UNL     1       4.689   3.328  13.063  0.00  0.00    +0.000 OA
BRANCH  17  19
ATOM     18  C   UNL     1       5.684   1.884  11.433  0.00  0.00    +0.000 C 
ATOM     19  C   UNL     1       4.978   3.217  11.662  0.00  0.00    +0.000 C 
ATOM     20  C   UNL     1       3.682   3.276  10.860  0.00  0.00    +0.000 C 
ENDBRANCH  17  19
ENDBRANCH   7  17
ENDBRANCH   1  13
BRANCH   3  21
ATOM     21  N   UNL     1       1.787   8.100  19.260  0.00  0.00    +0.000 N 
ATOM     22  C   UNL     1       1.070   8.418  20.495  0.00  0.00    +0.000 C 
ATOM     23  C   UNL     1       1.114   9.935  20.763  0.00  0.00    +0.000 C 
ATOM     24  N   UNL     1       0.655  10.772  19.635  0.00  0.00    +0.000 NA
ATOM     25  C   UNL     1       1.441  10.410  18.429  0.00  0.00    +0.000 C 
ATOM     26  C   UNL     1       1.461   8.903  18.080  0.00  0.00    +0.000 C 
BRANCH  24  27
ATOM     27  C   UNL     1      -0.801  10.693  19.422  0.00  0.00    +0.000 C 
ATOM     28  C   UNL     1      -1.628  11.949  19.501  0.00  0.00    +0.000 C 
ATOM     29  C   UNL     1      -1.379  11.302  18.173  0.00  0.00    +0.000 C 
ENDBRANCH  24  27
ENDBRANCH   3  21
TORSDOF 5
ENDMDL
MODEL 4
REMARK VINA RESULT:      -7.3      2.724      9.023
REMARK  Name = 
REMARK  7 active torsions:
REMARK  status: ('A' for Active; 'I' for Inactive)
REMARK    1  A    between atoms: C_1  and  C_2
REMARK    2  A    between atoms: C_2  and  C_3
REMARK    3  A    between atoms: C_2  and  O_4
REMARK    4  A    between atoms: O_4  and  C_5
REMARK    5  A    between atoms: C_11  and  C_12
REMARK    6  A    between atoms: C_14  and  N_15
REMARK    7  A    between atoms: N_18  and  C_19
REMARK                            x       y       z     vdW  Elec       q    Type
REMARK                         _______ _______ _______ _____ _____    ______ ____
ROOT
ATOM      1  C   UNL     1       1.818   8.217  19.280  0.00  0.00    +0.000 A 
ATOM      2  C   UNL     1       0.860   8.893  20.017  0.00  0.00    +0.000 A 
ATOM      3  C   UNL     1       0.520  10.173  19.639  0.00  0.00    +0.000 A 
ATOM      4  N   UNL     1       1.089  10.724  18.555  0.00  0.00    +0.000 NA
ATOM      5  C   UNL     1       2.022  10.005  17.910  0.00  0.00    +0.000 A 
ATOM      6  N   UNL     1       2.428   8.768  18.215  0.00  0.00    +0.000 NA
ENDROOT
BRANCH   1  13
ATOM      7  C   UNL     1       4.232   4.563  17.341  0.00  0.00    +0.000 A 
ATOM      8  C   UNL     1       4.366   3.543  18.284  0.00  0.00    +0.000 A 
ATOM      9  C   UNL     1       3.789   3.638  19.553  0.00  0.00    +0.000 A 
ATOM     10  C   UNL     1       3.091   4.809  19.849  0.00  0.00    +0.000 A 
ATOM     11  N   UNL     1       2.432   5.188  20.977  0.00  0.00    +0.000 N 
ATOM     12  N   UNL     1       1.903   6.407  20.924  0.00  0.00    +0.000 NA
ATOM     13  C   UNL     1       2.214   6.861  19.688  0.00  0.00    +0.000 A 
ATOM     14  C   UNL     1       2.951   5.866  18.959  0.00  0.00    +0.000 A 
ATOM     15  C   UNL     1       3.524   5.734  17.674  0.00  0.00    +0.000 A 
ATOM     16  H   UNL     1       2.319   4.652  21.832  0.00  0.00    +0.000 HD
BRANCH   7  17
ATOM     17  O   UNL     1       4.739   4.534  16.069  0.00  0.00    +0.000 OA
BRANCH  17  19
ATOM     18  C   UNL     1       6.309   3.929  14.366  0.00  0.00    +0.000 C 
ATOM     19  C   UNL     1       6.074   4.049  15.869  0.00  0.00    +0.000 C 
ATOM     20  C   UNL     1       7.076   5.021  16.487  0.00  0.00    +0.000 C 
ENDBRANCH  17  19
ENDBRANCH   7  17
ENDBRANCH   1  13
BRANCH   3  21
ATOM     21  N   UNL     1      -0.356  10.933  20.380  0.00  0.00    +0.000 N 
ATOM     22  C   UNL     1      -0.294  11.008  21.841  0.00  0.00    +0.000 C 
ATOM     23  C   UNL     1      -0.566  12.449  22.313  0.00  0.00    +0.000 C 
ATOM     24  N   UNL     1      -1.813  13.042  21.790  0.00  0.00    +0.000 NA
ATOM     25  C   UNL     1      -1.793  12.951  20.308  0.00  0.00    +0.000 C 
ATOM     26  C   UNL     1      -1.522  11.540  19.736  0.00  0.00    +0.000 C 
BRANCH  24  27
ATOM     27  C   UNL     1      -3.022  12.450  22.389  0.00  0.00    +0.000 C 
ATOM     28  C   UNL     1      -3.925  13.310  23.235  0.00  0.00    +0.000 C 
ATOM     29  C   UNL     1      -4.367  12.880  21.870  0.00  0.00    +0.000 C 
ENDBRANCH  24  27
ENDBRANCH   3  21
TORSDOF 5
ENDMDL
MODEL 5
REMARK VINA RESULT:      -7.3      2.663      8.312
REMARK  Name = 
REMARK  7 active torsions:
REMARK  status: ('A' for Active; 'I' for Inactive)
REMARK    1  A    between atoms: C_1  and  C_2
REMARK    2  A    between atoms: C_2  and  C_3
REMARK    3  A    between atoms: C_2  and  O_4
REMARK    4  A    between atoms: O_4  and  C_5
REMARK    5  A    between atoms: C_11  and  C_12
REMARK    6  A    between atoms: C_14  and  N_15
REMARK    7  A    between atoms: N_18  and  C_19
REMARK                            x       y       z     vdW  Elec       q    Type
REMARK                         _______ _______ _______ _____ _____    ______ ____
ROOT
ATOM      1  C   UNL     1       3.913   5.407  19.368  0.00  0.00    +0.000 A 
ATOM      2  C   UNL     1       3.442   6.709  19.337  0.00  0.00    +0.000 A 
ATOM      3  C   UNL     1       2.183   6.966  19.833  0.00  0.00    +0.000 A 
ATOM      4  N   UNL     1       1.457   5.970  20.366  0.00  0.00    +0.000 NA
ATOM      5  C   UNL     1       1.983   4.735  20.338  0.00  0.00    +0.000 A 
ATOM      6  N   UNL     1       3.184   4.390  19.861  0.00  0.00    +0.000 NA
ENDROOT
BRANCH   1  13
ATOM      7  C   UNL     1       5.758   4.464  15.051  0.00  0.00    +0.000 A 
ATOM      8  C   UNL     1       7.145   4.359  15.152  0.00  0.00    +0.000 A 
ATOM      9  C   UNL     1       7.800   4.461  16.381  0.00  0.00    +0.000 A 
ATOM     10  C   UNL     1       7.009   4.697  17.506  0.00  0.00    +0.000 A 
ATOM     11  N   UNL     1       7.349   4.840  18.815  0.00  0.00    +0.000 N 
ATOM     12  N   UNL     1       6.326   5.097  19.626  0.00  0.00    +0.000 NA
ATOM     13  C   UNL     1       5.243   5.111  18.815  0.00  0.00    +0.000 A 
ATOM     14  C   UNL     1       5.628   4.837  17.459  0.00  0.00    +0.000 A 
ATOM     15  C   UNL     1       4.989   4.706  16.205  0.00  0.00    +0.000 A 
ATOM     16  H   UNL     1       8.279   4.784  19.218  0.00  0.00    +0.000 HD
BRANCH   7  17
ATOM     17  O   UNL     1       5.038   4.345  13.890  0.00  0.00    +0.000 OA
BRANCH  17  19
ATOM     18  C   UNL     1       4.405   3.280  11.842  0.00  0.00    +0.000 C 
ATOM     19  C   UNL     1       5.520   3.461  12.868  0.00  0.00    +0.000 C 
ATOM     20  C   UNL     1       6.757   4.061  12.206  0.00  0.00    +0.000 C 
ENDBRANCH  17  19
ENDBRANCH   7  17
ENDBRANCH   1  13
BRANCH   3  21
ATOM     21  N   UNL     1       1.619   8.219  19.749  0.00  0.00    +0.000 N 
ATOM     22  C   UNL     1       1.726   9.053  18.551  0.00  0.00    +0.000 C 
ATOM     23  C   UNL     1       0.393   9.779  18.286  0.00  0.00    +0.000 C 
ATOM     24  N   UNL     1      -0.131  10.543  19.436  0.00  0.00    +0.000 NA
ATOM     25  C   UNL     1      -0.232   9.629  20.602  0.00  0.00    +0.000 C 
ATOM     26  C   UNL     1       1.058   8.850  20.946  0.00  0.00    +0.000 C 
BRANCH  24  27
ATOM     27  C   UNL     1       0.655  11.757  19.720  0.00  0.00    +0.000 C 
ATOM     28  C   UNL     1      -0.000  13.107  19.593  0.00  0.00    +0.000 C 
ATOM     29  C   UNL     1       0.323  12.558  20.949  0.00  0.00    +0.000 C 
ENDBRANCH  24  27
ENDBRANCH   3  21
TORSDOF 5
ENDMDL
MODEL 6
REMARK VINA RESULT:      -7.3      2.660      8.293
REMARK  Name = 
REMARK  7 active torsions:
REMARK  status: ('A' for Active; 'I' for Inactive)
REMARK    1  A    between atoms: C_1  and  C_2
REMARK    2  A    between atoms: C_2  and  C_3
REMARK    3  A    between atoms: C_2  and  O_4
REMARK    4  A    between atoms: O_4  and  C_5
REMARK    5  A    between atoms: C_11  and  C_12
REMARK    6  A    between atoms: C_14  and  N_15
REMARK    7  A    between atoms: N_18  and  C_19
REMARK                            x       y       z     vdW  Elec       q    Type
REMARK                         _______ _______ _______ _____ _____    ______ ____
ROOT
ATOM      1  C   UNL     1       2.830   5.219  18.937  0.00  0.00    +0.000 A 
ATOM      2  C   UNL     1       2.531   6.568  18.858  0.00  0.00    +0.000 A 
ATOM      3  C   UNL     1       1.841   7.153  19.897  0.00  0.00    +0.000 A 
ATOM      4  N   UNL     1       1.506   6.423  20.972  0.00  0.00    +0.000 NA
ATOM      5  C   UNL     1       1.818   5.117  20.958  0.00  0.00    +0.000 A 
ATOM      6  N   UNL     1       2.467   4.462  19.989  0.00  0.00    +0.000 NA
ENDROOT
BRANCH   1  13
ATOM      7  C   UNL     1       6.847   5.997  16.449  0.00  0.00    +0.000 A 
ATOM      8  C   UNL     1       7.044   4.950  15.548  0.00  0.00    +0.000 A 
ATOM      9  C   UNL     1       6.120   3.912  15.416  0.00  0.00    +0.000 A 
ATOM     10  C   UNL     1       4.997   3.952  16.243  0.00  0.00    +0.000 A 
ATOM     11  N   UNL     1       3.940   3.102  16.345  0.00  0.00    +0.000 N 
ATOM     12  N   UNL     1       3.054   3.432  17.281  0.00  0.00    +0.000 NA
ATOM     13  C   UNL     1       3.540   4.573  17.823  0.00  0.00    +0.000 A 
ATOM     14  C   UNL     1       4.764   4.954  17.176  0.00  0.00    +0.000 A 
ATOM     15  C   UNL     1       5.705   6.004  17.272  0.00  0.00    +0.000 A 
ATOM     16  H   UNL     1       3.773   2.261  15.801  0.00  0.00    +0.000 HD
BRANCH   7  17
ATOM     17  O   UNL     1       7.689   7.065  16.616  0.00  0.00    +0.000 OA
BRANCH  17  19
ATOM     18  C   UNL     1       8.335   6.961  18.919  0.00  0.00    +0.000 C 
ATOM     19  C   UNL     1       7.639   7.797  17.849  0.00  0.00    +0.000 C 
ATOM     20  C   UNL     1       8.344   9.140  17.683  0.00  0.00    +0.000 C 
ENDBRANCH  17  19
ENDBRANCH   7  17
ENDBRANCH   1  13
BRANCH   3  21
ATOM     21  N   UNL     1       1.433   8.466  19.840  0.00  0.00    +0.000 N 
ATOM     22  C   UNL     1       1.494   9.258  18.611  0.00  0.00    +0.000 C 
ATOM     23  C   UNL     1       0.240  10.145  18.486  0.00  0.00    +0.000 C 
ATOM     24  N   UNL     1      -0.035  10.990  19.665  0.00  0.00    +0.000 NA
ATOM     25  C   UNL     1      -0.105  10.118  20.865  0.00  0.00    +0.000 C 
ATOM     26  C   UNL     1       1.110   9.185  21.075  0.00  0.00    +0.000 C 
BRANCH  24  27
ATOM     27  C   UNL     1       0.926  12.098  19.811  0.00  0.00    +0.000 C 
ATOM     28  C   UNL     1       0.442  13.518  19.682  0.00  0.00    +0.000 C 
ATOM     29  C   UNL     1       0.829  12.980  21.025  0.00  0.00    +0.000 C 
ENDBRANCH  24  27
ENDBRANCH   3  21
TORSDOF 5
ENDMDL
MODEL 7
REMARK VINA RESULT:      -7.3      2.703      8.603
REMARK  Name = 
REMARK  7 active torsions:
REMARK  status: ('A' for Active; 'I' for Inactive)
REMARK    1  A    between atoms: C_1  and  C_2
REMARK    2  A    between atoms: C_2  and  C_3
REMARK    3  A    between atoms: C_2  and  O_4
REMARK    4  A    between atoms: O_4  and  C_5
REMARK    5  A    between atoms: C_11  and  C_12
REMARK    6  A    between atoms: C_14  and  N_15
REMARK    7  A    between atoms: N_18  and  C_19
REMARK                            x       y       z     vdW  Elec       q    Type
REMARK                         _______ _______ _______ _____ _____    ______ ____
ROOT
ATOM      1  C   UNL     1       4.267   5.883  18.061  0.00  0.00    +0.000 A 
ATOM      2  C   UNL     1       3.658   7.102  18.312  0.00  0.00    +0.000 A 
ATOM      3  C   UNL     1       2.513   7.121  19.076  0.00  0.00    +0.000 A 
ATOM      4  N   UNL     1       2.031   5.978  19.590  0.00  0.00    +0.000 NA
ATOM      5  C   UNL     1       2.673   4.839  19.280  0.00  0.00    +0.000 A 
ATOM      6  N   UNL     1       3.776   4.723  18.533  0.00  0.00    +0.000 NA
ENDROOT
BRANCH   1  13
ATOM      7  C   UNL     1       5.492   4.040  13.814  0.00  0.00    +0.000 A 
ATOM      8  C   UNL     1       6.794   4.428  13.498  0.00  0.00    +0.000 A 
ATOM      9  C   UNL     1       7.569   5.182  14.382  0.00  0.00    +0.000 A 
ATOM     10  C   UNL     1       6.976   5.555  15.589  0.00  0.00    +0.000 A 
ATOM     11  N   UNL     1       7.467   6.275  16.633  0.00  0.00    +0.000 N 
ATOM     12  N   UNL     1       6.599   6.475  17.622  0.00  0.00    +0.000 NA
ATOM     13  C   UNL     1       5.473   5.842  17.221  0.00  0.00    +0.000 A 
ATOM     14  C   UNL     1       5.675   5.221  15.942  0.00  0.00    +0.000 A 
ATOM     15  C   UNL     1       4.922   4.437  15.039  0.00  0.00    +0.000 A 
ATOM     16  H   UNL     1       8.397   6.672  16.723  0.00  0.00    +0.000 HD
BRANCH   7  17
ATOM     17  O   UNL     1       4.680   3.276  13.017  0.00  0.00    +0.000 OA
BRANCH  17  19
ATOM     18  C   UNL     1       5.670   1.838  11.380  0.00  0.00    +0.000 C 
ATOM     19  C   UNL     1       4.981   3.177  11.618  0.00  0.00    +0.000 C 
ATOM     20  C   UNL     1       3.692   3.264  10.804  0.00  0.00    +0.000 C 
ENDBRANCH  17  19
ENDBRANCH   7  17
ENDBRANCH   1  13
BRANCH   3  21
ATOM     21  N   UNL     1       1.809   8.285  19.287  0.00  0.00    +0.000 N 
ATOM     22  C   UNL     1       1.667   9.318  18.260  0.00  0.00    +0.000 C 
ATOM     23  C   UNL     1       0.239   9.897  18.280  0.00  0.00    +0.000 C 
ATOM     24  N   UNL     1      -0.210  10.378  19.602  0.00  0.00    +0.000 NA
ATOM     25  C   UNL     1      -0.059   9.274  20.583  0.00  0.00    +0.000 C 
ATOM     26  C   UNL     1       1.343   8.623  20.634  0.00  0.00    +0.000 C 
BRANCH  24  27
ATOM     27  C   UNL     1       0.468  11.618  20.019  0.00  0.00    +0.000 C 
ATOM     28  C   UNL     1      -0.310  12.908  20.060  0.00  0.00    +0.000 C 
ATOM     29  C   UNL     1       0.091  12.236  21.338  0.00  0.00    +0.000 C 
ENDBRANCH  24  27
ENDBRANCH   3  21
TORSDOF 5
ENDMDL
MODEL 8
REMARK VINA RESULT:      -7.3      3.635      9.555
REMARK  Name = 
REMARK  7 active torsions:
REMARK  status: ('A' for Active; 'I' for Inactive)
REMARK    1  A    between atoms: C_1  and  C_2
REMARK    2  A    between atoms: C_2  and  C_3
REMARK    3  A    between atoms: C_2  and  O_4
REMARK    4  A    between atoms: O_4  and  C_5
REMARK    5  A    between atoms: C_11  and  C_12
REMARK    6  A    between atoms: C_14  and  N_15
REMARK    7  A    between atoms: N_18  and  C_19
REMARK                            x       y       z     vdW  Elec       q    Type
REMARK                         _______ _______ _______ _____ _____    ______ ____
ROOT
ATOM      1  C   UNL     1       0.396   9.943  21.079  0.00  0.00    +0.000 A 
ATOM      2  C   UNL     1      -0.538  10.965  21.041  0.00  0.00    +0.000 A 
ATOM      3  C   UNL     1      -1.226  11.272  22.195  0.00  0.00    +0.000 A 
ATOM      4  N   UNL     1      -0.957  10.610  23.331  0.00  0.00    +0.000 NA
ATOM      5  C   UNL     1      -0.050   9.621  23.274  0.00  0.00    +0.000 A 
ATOM      6  N   UNL     1       0.649   9.241  22.198  0.00  0.00    +0.000 NA
ENDROOT
BRANCH   1  13
ATOM      7  C   UNL     1       2.678   6.089  19.385  0.00  0.00    +0.000 A 
ATOM      8  C   UNL     1       3.088   6.333  18.073  0.00  0.00    +0.000 A 
ATOM      9  C   UNL     1       2.879   7.568  17.458  0.00  0.00    +0.000 A 
ATOM     10  C   UNL     1       2.219   8.547  18.201  0.00  0.00    +0.000 A 
ATOM     11  N   UNL     1       1.878   9.824  17.882  0.00  0.00    +0.000 N 
ATOM     12  N   UNL     1       1.212  10.472  18.835  0.00  0.00    +0.000 NA
ATOM     13  C   UNL     1       1.116   9.583  19.850  0.00  0.00    +0.000 A 
ATOM     14  C   UNL     1       1.765   8.350  19.499  0.00  0.00    +0.000 A 
ATOM     15  C   UNL     1       2.011   7.098  20.107  0.00  0.00    +0.000 A 
ATOM     16  H   UNL     1       2.066  10.311  17.011  0.00  0.00    +0.000 HD
BRANCH   7  17
ATOM     17  O   UNL     1       2.873   4.918  20.069  0.00  0.00    +0.000 OA
BRANCH  17  19
ATOM     18  C   UNL     1       1.054   3.477  19.483  0.00  0.00    +0.000 C 
ATOM     19  C   UNL     1       1.732   4.241  20.616  0.00  0.00    +0.000 C 
ATOM     20  C   UNL     1       2.179   3.279  21.713  0.00  0.00    +0.000 C 
ENDBRANCH  17  19
ENDBRANCH   7  17
ENDBRANCH   1  13
BRANCH   3  21
ATOM     21  N   UNL     1      -2.230  12.214  22.204  0.00  0.00    +0.000 N 
ATOM     22  C   UNL     1      -3.120  12.406  23.350  0.00  0.00    +0.000 C 
ATOM     23  C   UNL     1      -3.388  13.907  23.572  0.00  0.00    +0.000 C 
ATOM     24  N   UNL     1      -3.873  14.628  22.377  0.00  0.00    +0.000 NA
ATOM     25  C   UNL     1      -2.911  14.406  21.268  0.00  0.00    +0.000 C 
ATOM     26  C   UNL     1      -2.575  12.926  20.972  0.00  0.00    +0.000 C 
BRANCH  24  27
ATOM     27  C   UNL     1      -5.258  14.273  22.021  0.00  0.00    +0.000 C 
ATOM     28  C   UNL     1      -6.330  15.331  22.077  0.00  0.00    +0.000 C 
ATOM     29  C   UNL     1      -5.841  14.832  20.751  0.00  0.00    +0.000 C 
ENDBRANCH  24  27
ENDBRANCH   3  21
TORSDOF 5
ENDMDL
MODEL 9
REMARK VINA RESULT:      -7.3      0.950      1.242
REMARK  Name = 
REMARK  7 active torsions:
REMARK  status: ('A' for Active; 'I' for Inactive)
REMARK    1  A    between atoms: C_1  and  C_2
REMARK    2  A    between atoms: C_2  and  C_3
REMARK    3  A    between atoms: C_2  and  O_4
REMARK    4  A    between atoms: O_4  and  C_5
REMARK    5  A    between atoms: C_11  and  C_12
REMARK    6  A    between atoms: C_14  and  N_15
REMARK    7  A    between atoms: N_18  and  C_19
REMARK                            x       y       z     vdW  Elec       q    Type
REMARK                         _______ _______ _______ _____ _____    ______ ____
ROOT
ATOM      1  C   UNL     1       1.559   8.008  20.004  0.00  0.00    +0.000 A 
ATOM      2  C   UNL     1       2.407   7.695  18.956  0.00  0.00    +0.000 A 
ATOM      3  C   UNL     1       2.943   6.428  18.897  0.00  0.00    +0.000 A 
ATOM      4  N   UNL     1       2.610   5.517  19.825  0.00  0.00    +0.000 NA
ATOM      5  C   UNL     1       1.796   5.911  20.818  0.00  0.00    +0.000 A 
ATOM      6  N   UNL     1       1.246   7.121  20.966  0.00  0.00    +0.000 NA
ENDROOT
BRANCH   1  13
ATOM      7  C   UNL     1      -1.895  10.514  17.831  0.00  0.00    +0.000 A 
ATOM      8  C   UNL     1      -2.017  11.762  18.442  0.00  0.00    +0.000 A 
ATOM      9  C   UNL     1      -1.169  12.157  19.478  0.00  0.00    +0.000 A 
ATOM     10  C   UNL     1      -0.205  11.239  19.897  0.00  0.00    +0.000 A 
ATOM     11  N   UNL     1       0.748  11.330  20.863  0.00  0.00    +0.000 N 
ATOM     12  N   UNL     1       1.483  10.232  21.020  0.00  0.00    +0.000 NA
ATOM     13  C   UNL     1       1.003   9.366  20.098  0.00  0.00    +0.000 A 
ATOM     14  C   UNL     1      -0.058   9.973  19.343  0.00  0.00    +0.000 A 
ATOM     15  C   UNL     1      -0.915   9.609  18.280  0.00  0.00    +0.000 A 
ATOM     16  H   UNL     1       0.938  12.126  21.465  0.00  0.00    +0.000 HD
BRANCH   7  17
ATOM     17  O   UNL     1      -2.666  10.065  16.790  0.00  0.00    +0.000 OA
BRANCH  17  19
ATOM     18  C   UNL     1      -3.272  10.353  14.493  0.00  0.00    +0.000 C 
ATOM     19  C   UNL     1      -3.198  11.021  15.862  0.00  0.00    +0.000 C 
ATOM     20  C   UNL     1      -4.587  11.463  16.314  0.00  0.00    +0.000 C 
ENDBRANCH  17  19
ENDBRANCH   7  17
ENDBRANCH   1  13
BRANCH   3  21
ATOM     21  N   UNL     1       3.863   6.079  17.934  0.00  0.00    +0.000 N 
ATOM     22  C   UNL     1       4.661   7.071  17.211  0.00  0.00    +0.000 C 
ATOM     23  C   UNL     1       6.103   6.561  17.024  0.00  0.00    +0.000 C 
ATOM     24  N   UNL     1       6.207   5.223  16.408  0.00  0.00    +0.000 NA
ATOM     25  C   UNL     1       5.394   4.271  17.206  0.00  0.00    +0.000 C 
ATOM     26  C   UNL     1       3.928   4.699  17.451  0.00  0.00    +0.000 C 
BRANCH  24  27
ATOM     27  C   UNL     1       5.855   5.226  14.977  0.00  0.00    +0.000 C 
ATOM     28  C   UNL     1       6.905   4.867  13.957  0.00  0.00    +0.000 C 
ATOM     29  C   UNL     1       5.790   3.910  14.250  0.00  0.00    +0.000 C 
ENDBRANCH  24  27
ENDBRANCH   3  21
TORSDOF 5
ENDMDL
