MODEL 1
REMARK VINA RESULT:      -6.1      0.000      0.000
REMARK  Name = 
REMARK  7 active torsions:
REMARK  status: ('A' for Active; 'I' for Inactive)
REMARK    1  A    between atoms: N_1  and  C_2
REMARK    2  A    between atoms: C_2  and  C_3
REMARK    3  A    between atoms: C_3  and  C_4
REMARK    4  A    between atoms: C_3  and  C_8
REMARK    5  A    between atoms: C_4  and  C_5
REMARK    6  A    between atoms: C_5  and  O_7
REMARK    7  A    between atoms: C_11  and  O_12
REMARK                            x       y       z     vdW  Elec       q    Type
REMARK                         _______ _______ _______ _____ _____    ______ ____
ROOT
ATOM      1  C   UNL     1       4.946   4.884  16.950  0.00  0.00    +0.000 C 
ENDROOT
BRANCH   1   2
ATOM      2  C   UNL     1       3.717   4.122  17.446  0.00  0.00    +0.000 A 
ATOM      3  C   UNL     1       3.701   2.726  17.617  0.00  0.00    +0.000 A 
ATOM      4  C   UNL     1       2.561   2.065  18.081  0.00  0.00    +0.000 A 
ATOM      5  C   UNL     1       1.417   2.791  18.376  0.00  0.00    +0.000 A 
ATOM      6  C   UNL     1       1.402   4.170  18.227  0.00  0.00    +0.000 A 
ATOM      7  C   UNL     1       2.547   4.832  17.776  0.00  0.00    +0.000 A 
BRANCH   5   8
ATOM      8  O   UNL     1       0.285   2.181  18.822  0.00  0.00    +0.000 OA
ATOM      9  H   UNL     1       0.193   2.360  19.773  0.00  0.00    +0.000 HD
ENDBRANCH   5   8
ENDBRANCH   1   2
BRANCH   1  10
ATOM     10  C   UNL     1       4.681   6.385  16.663  0.00  0.00    +0.000 C 
BRANCH  10  11
ATOM     11  N   UNL     1       5.233   6.827  15.376  0.00  0.00    +0.000 NA
ATOM     12  H   UNL     1       6.149   6.382  15.259  0.00  0.00    +0.000 HD
ATOM     13  H   UNL     1       5.458   7.825  15.451  0.00  0.00    +0.000 HD
ENDBRANCH  10  11
ENDBRANCH   1  10
BRANCH   1  14
ATOM     14  C   UNL     1       6.180   4.679  17.856  0.00  0.00    +0.000 C 
BRANCH  14  15
ATOM     15  C   UNL     1       7.464   4.506  17.090  0.00  0.00    +0.000 C 
ATOM     16  O   UNL     1       7.616   4.804  15.914  0.00  0.00    +0.000 OA
BRANCH  15  17
ATOM     17  O   UNL     1       8.468   3.995  17.848  0.00  0.00    +0.000 OA
ATOM     18  H   UNL     1       8.792   3.131  17.509  0.00  0.00    +0.000 HD
ENDBRANCH  15  17
ENDBRANCH  14  15
ENDBRANCH   1  14
TORSDOF 7
ENDMDL
MODEL 2
REMARK VINA RESULT:      -5.9      1.422      1.494
REMARK  Name = 
REMARK  7 active torsions:
REMARK  status: ('A' for Active; 'I' for Inactive)
REMARK    1  A    between atoms: N_1  and  C_2
REMARK    2  A    between atoms: C_2  and  C_3
REMARK    3  A    between atoms: C_3  and  C_4
REMARK    4  A    between atoms: C_3  and  C_8
REMARK    5  A    between atoms: C_4  and  C_5
REMARK    6  A    between atoms: C_5  and  O_7
REMARK    7  A    between atoms: C_11  and  O_12
REMARK                            x       y       z     vdW  Elec       q    Type
REMARK                         _______ _______ _______ _____ _____    ______ ____
ROOT
ATOM      1  C   UNL     1       4.822   4.977  17.132  0.00  0.00    +0.000 C 
ENDROOT
BRANCH   1   2
ATOM      2  C   UNL     1       3.577   4.246  17.639  0.00  0.00    +0.000 A 
ATOM      3  C   UNL     1       3.384   2.864  17.475  0.00  0.00    +0.000 A 
ATOM      4  C   UNL     1       2.237   2.229  17.959  0.00  0.00    +0.000 A 
ATOM      5  C   UNL     1       1.264   2.972  18.611  0.00  0.00    +0.000 A 
ATOM      6  C   UNL     1       1.427   4.336  18.796  0.00  0.00    +0.000 A 
ATOM      7  C   UNL     1       2.581   4.968  18.324  0.00  0.00    +0.000 A 
BRANCH   5   8
ATOM      8  O   UNL     1       0.129   2.390  19.088  0.00  0.00    +0.000 OA
ATOM      9  H   UNL     1      -0.025   1.567  18.595  0.00  0.00    +0.000 HD
ENDBRANCH   5   8
ENDBRANCH   1   2
BRANCH   1  10
ATOM     10  C   UNL     1       5.601   5.731  18.240  0.00  0.00    +0.000 C 
BRANCH  10  11
ATOM     11  N   UNL     1       6.105   4.840  19.293  0.00  0.00    +0.000 NA
ATOM     12  H   UNL     1       6.431   3.978  18.844  0.00  0.00    +0.000 HD
ATOM     13  H   UNL     1       5.307   4.531  19.858  0.00  0.00    +0.000 HD
ENDBRANCH  10  11
ENDBRANCH   1  10
BRANCH   1  14
ATOM     14  C   UNL     1       5.745   4.068  16.293  0.00  0.00    +0.000 C 
BRANCH  14  15
ATOM     15  C   UNL     1       7.122   4.640  16.085  0.00  0.00    +0.000 C 
ATOM     16  O   UNL     1       7.404   5.479  15.242  0.00  0.00    +0.000 OA
BRANCH  15  17
ATOM     17  O   UNL     1       8.040   4.140  16.951  0.00  0.00    +0.000 OA
ATOM     18  H   UNL     1       8.016   3.159  17.000  0.00  0.00    +0.000 HD
ENDBRANCH  15  17
ENDBRANCH  14  15
ENDBRANCH   1  14
TORSDOF 7
ENDMDL
MODEL 3
REMARK VINA RESULT:      -5.8      1.438      2.149
REMARK  Name = 
REMARK  7 active torsions:
REMARK  status: ('A' for Active; 'I' for Inactive)
REMARK    1  A    between atoms: N_1  and  C_2
REMARK    2  A    between atoms: C_2  and  C_3
REMARK    3  A    between atoms: C_3  and  C_4
REMARK    4  A    between atoms: C_3  and  C_8
REMARK    5  A    between atoms: C_4  and  C_5
REMARK    6  A    between atoms: C_5  and  O_7
REMARK    7  A    between atoms: C_11  and  O_12
REMARK                            x       y       z     vdW  Elec       q    Type
REMARK                         _______ _______ _______ _____ _____    ______ ____
ROOT
ATOM      1  C   UNL     1       5.222   5.028  16.642  0.00  0.00    +0.000 C 
ENDROOT
BRANCH   1   2
ATOM      2  C   UNL     1       3.976   4.369  17.234  0.00  0.00    +0.000 A 
ATOM      3  C   UNL     1       2.886   5.106  17.730  0.00  0.00    +0.000 A 
ATOM      4  C   UNL     1       1.759   4.469  18.257  0.00  0.00    +0.000 A 
ATOM      5  C   UNL     1       1.710   3.084  18.299  0.00  0.00    +0.000 A 
ATOM      6  C   UNL     1       2.764   2.327  17.811  0.00  0.00    +0.000 A 
ATOM      7  C   UNL     1       3.885   2.965  17.272  0.00  0.00    +0.000 A 
BRANCH   5   8
ATOM      8  O   UNL     1       0.633   2.428  18.814  0.00  0.00    +0.000 OA
ATOM      9  H   UNL     1      -0.174   2.870  18.501  0.00  0.00    +0.000 HD
ENDBRANCH   5   8
ENDBRANCH   1   2
BRANCH   1  10
ATOM     10  C   UNL     1       5.921   6.027  17.601  0.00  0.00    +0.000 C 
BRANCH  10  11
ATOM     11  N   UNL     1       6.494   7.184  16.903  0.00  0.00    +0.000 NA
ATOM     12  H   UNL     1       7.111   6.831  16.165  0.00  0.00    +0.000 HD
ATOM     13  H   UNL     1       7.135   7.660  17.546  0.00  0.00    +0.000 HD
ENDBRANCH  10  11
ENDBRANCH   1  10
BRANCH   1  14
ATOM     14  C   UNL     1       6.215   4.002  16.053  0.00  0.00    +0.000 C 
BRANCH  14  15
ATOM     15  C   UNL     1       6.766   4.403  14.711  0.00  0.00    +0.000 C 
ATOM     16  O   UNL     1       7.462   5.389  14.513  0.00  0.00    +0.000 OA
BRANCH  15  17
ATOM     17  O   UNL     1       6.427   3.539  13.720  0.00  0.00    +0.000 OA
ATOM     18  H   UNL     1       6.811   3.793  12.852  0.00  0.00    +0.000 HD
ENDBRANCH  15  17
ENDBRANCH  14  15
ENDBRANCH   1  14
TORSDOF 7
ENDMDL
MODEL 4
REMARK VINA RESULT:      -5.8      1.202      1.328
REMARK  Name = 
REMARK  7 active torsions:
REMARK  status: ('A' for Active; 'I' for Inactive)
REMARK    1  A    between atoms: N_1  and  C_2
REMARK    2  A    between atoms: C_2  and  C_3
REMARK    3  A    between atoms: C_3  and  C_4
REMARK    4  A    between atoms: C_3  and  C_8
REMARK    5  A    between atoms: C_4  and  C_5
REMARK    6  A    between atoms: C_5  and  O_7
REMARK    7  A    between atoms: C_11  and  O_12
REMARK                            x       y       z     vdW  Elec       q    Type
REMARK                         _______ _______ _______ _____ _____    ______ ____
ROOT
ATOM      1  C   UNL     1       4.987   5.126  17.851  0.00  0.00    +0.000 C 
ENDROOT
BRANCH   1   2
ATOM      2  C   UNL     1       3.771   4.214  18.014  0.00  0.00    +0.000 A 
ATOM      3  C   UNL     1       3.878   2.843  18.304  0.00  0.00    +0.000 A 
ATOM      4  C   UNL     1       2.743   2.041  18.454  0.00  0.00    +0.000 A 
ATOM      5  C   UNL     1       1.483   2.601  18.310  0.00  0.00    +0.000 A 
ATOM      6  C   UNL     1       1.341   3.952  18.032  0.00  0.00    +0.000 A 
ATOM      7  C   UNL     1       2.477   4.756  17.896  0.00  0.00    +0.000 A 
BRANCH   5   8
ATOM      8  O   UNL     1       0.354   1.850  18.440  0.00  0.00    +0.000 OA
ATOM      9  H   UNL     1       0.034   1.622  17.551  0.00  0.00    +0.000 HD
ENDBRANCH   5   8
ENDBRANCH   1   2
BRANCH   1  10
ATOM     10  C   UNL     1       4.701   6.416  17.038  0.00  0.00    +0.000 C 
BRANCH  10  11
ATOM     11  N   UNL     1       5.765   6.734  16.078  0.00  0.00    +0.000 NA
ATOM     12  H   UNL     1       6.637   6.326  16.430  0.00  0.00    +0.000 HD
ATOM     13  H   UNL     1       5.939   7.744  16.117  0.00  0.00    +0.000 HD
ENDBRANCH  10  11
ENDBRANCH   1  10
BRANCH   1  14
ATOM     14  C   UNL     1       5.684   5.434  19.194  0.00  0.00    +0.000 C 
BRANCH  14  15
ATOM     15  C   UNL     1       7.187   5.427  19.105  0.00  0.00    +0.000 C 
ATOM     16  O   UNL     1       7.820   5.355  18.061  0.00  0.00    +0.000 OA
BRANCH  15  17
ATOM     17  O   UNL     1       7.790   5.530  20.317  0.00  0.00    +0.000 OA
ATOM     18  H   UNL     1       8.672   5.959  20.263  0.00  0.00    +0.000 HD
ENDBRANCH  15  17
ENDBRANCH  14  15
ENDBRANCH   1  14
TORSDOF 7
ENDMDL
MODEL 5
REMARK VINA RESULT:      -5.8      1.821      2.143
REMARK  Name = 
REMARK  7 active torsions:
REMARK  status: ('A' for Active; 'I' for Inactive)
REMARK    1  A    between atoms: N_1  and  C_2
REMARK    2  A    between atoms: C_2  and  C_3
REMARK    3  A    between atoms: C_3  and  C_4
REMARK    4  A    between atoms: C_3  and  C_8
REMARK    5  A    between atoms: C_4  and  C_5
REMARK    6  A    between atoms: C_5  and  O_7
REMARK    7  A    between atoms: C_11  and  O_12
REMARK                            x       y       z     vdW  Elec       q    Type
REMARK                         _______ _______ _______ _____ _____    ______ ____
ROOT
ATOM      1  C   UNL     1       5.097   4.616  16.755  0.00  0.00    +0.000 C 
ENDROOT
BRANCH   1   2
ATOM      2  C   UNL     1       3.830   3.968  17.313  0.00  0.00    +0.000 A 
ATOM      3  C   UNL     1       3.730   2.592  17.580  0.00  0.00    +0.000 A 
ATOM      4  C   UNL     1       2.557   2.036  18.099  0.00  0.00    +0.000 A 
ATOM      5  C   UNL     1       1.465   2.851  18.352  0.00  0.00    +0.000 A 
ATOM      6  C   UNL     1       1.532   4.215  18.107  0.00  0.00    +0.000 A 
ATOM      7  C   UNL     1       2.710   4.772  17.602  0.00  0.00    +0.000 A 
BRANCH   5   8
ATOM      8  O   UNL     1       0.302   2.345  18.849  0.00  0.00    +0.000 OA
ATOM      9  H   UNL     1      -0.230   3.081  19.194  0.00  0.00    +0.000 HD
ENDBRANCH   5   8
ENDBRANCH   1   2
BRANCH   1  10
ATOM     10  C   UNL     1       5.999   5.267  17.836  0.00  0.00    +0.000 C 
BRANCH  10  11
ATOM     11  N   UNL     1       6.724   4.279  18.646  0.00  0.00    +0.000 NA
ATOM     12  H   UNL     1       6.176   3.414  18.649  0.00  0.00    +0.000 HD
ATOM     13  H   UNL     1       6.697   4.586  19.624  0.00  0.00    +0.000 HD
ENDBRANCH  10  11
ENDBRANCH   1  10
BRANCH   1  14
ATOM     14  C   UNL     1       5.894   3.668  15.833  0.00  0.00    +0.000 C 
BRANCH  14  15
ATOM     15  C   UNL     1       6.353   4.319  14.555  0.00  0.00    +0.000 C 
ATOM     16  O   UNL     1       6.767   5.467  14.472  0.00  0.00    +0.000 OA
BRANCH  15  17
ATOM     17  O   UNL     1       6.281   3.490  13.483  0.00  0.00    +0.000 OA
ATOM     18  H   UNL     1       7.002   2.822  13.475  0.00  0.00    +0.000 HD
ENDBRANCH  15  17
ENDBRANCH  14  15
ENDBRANCH   1  14
TORSDOF 7
ENDMDL
MODEL 6
REMARK VINA RESULT:      -5.8      1.683      2.377
REMARK  Name = 
REMARK  7 active torsions:
REMARK  status: ('A' for Active; 'I' for Inactive)
REMARK    1  A    between atoms: N_1  and  C_2
REMARK    2  A    between atoms: C_2  and  C_3
REMARK    3  A    between atoms: C_3  and  C_4
REMARK    4  A    between atoms: C_3  and  C_8
REMARK    5  A    between atoms: C_4  and  C_5
REMARK    6  A    between atoms: C_5  and  O_7
REMARK    7  A    between atoms: C_11  and  O_12
REMARK                            x       y       z     vdW  Elec       q    Type
REMARK                         _______ _______ _______ _____ _____    ______ ____
ROOT
ATOM      1  C   UNL     1       5.126   5.419  17.378  0.00  0.00    +0.000 C 
ENDROOT
BRANCH   1   2
ATOM      2  C   UNL     1       3.923   4.515  17.645  0.00  0.00    +0.000 A 
ATOM      3  C   UNL     1       2.628   5.014  17.869  0.00  0.00    +0.000 A 
ATOM      4  C   UNL     1       1.549   4.155  18.102  0.00  0.00    +0.000 A 
ATOM      5  C   UNL     1       1.754   2.784  18.119  0.00  0.00    +0.000 A 
ATOM      6  C   UNL     1       3.017   2.259  17.893  0.00  0.00    +0.000 A 
ATOM      7  C   UNL     1       4.093   3.117  17.646  0.00  0.00    +0.000 A 
BRANCH   5   8
ATOM      8  O   UNL     1       0.730   1.917  18.351  0.00  0.00    +0.000 OA
ATOM      9  H   UNL     1      -0.071   2.433  18.542  0.00  0.00    +0.000 HD
ENDBRANCH   5   8
ENDBRANCH   1   2
BRANCH   1  10
ATOM     10  C   UNL     1       6.432   4.947  18.069  0.00  0.00    +0.000 C 
BRANCH  10  11
ATOM     11  N   UNL     1       6.432   5.187  19.517  0.00  0.00    +0.000 NA
ATOM     12  H   UNL     1       6.039   6.120  19.680  0.00  0.00    +0.000 HD
ATOM     13  H   UNL     1       7.406   5.280  19.826  0.00  0.00    +0.000 HD
ENDBRANCH  10  11
ENDBRANCH   1  10
BRANCH   1  14
ATOM     14  C   UNL     1       5.338   5.700  15.875  0.00  0.00    +0.000 C 
BRANCH  14  15
ATOM     15  C   UNL     1       6.378   4.816  15.239  0.00  0.00    +0.000 C 
ATOM     16  O   UNL     1       6.203   3.642  14.944  0.00  0.00    +0.000 OA
BRANCH  15  17
ATOM     17  O   UNL     1       7.548   5.462  15.001  0.00  0.00    +0.000 OA
ATOM     18  H   UNL     1       8.128   4.971  14.378  0.00  0.00    +0.000 HD
ENDBRANCH  15  17
ENDBRANCH  14  15
ENDBRANCH   1  14
TORSDOF 7
ENDMDL
MODEL 7
REMARK VINA RESULT:      -5.7      2.623      5.766
REMARK  Name = 
REMARK  7 active torsions:
REMARK  status: ('A' for Active; 'I' for Inactive)
REMARK    1  A    between atoms: N_1  and  C_2
REMARK    2  A    between atoms: C_2  and  C_3
REMARK    3  A    between atoms: C_3  and  C_4
REMARK    4  A    between atoms: C_3  and  C_8
REMARK    5  A    between atoms: C_4  and  C_5
REMARK    6  A    between atoms: C_5  and  O_7
REMARK    7  A    between atoms: C_11  and  O_12
REMARK                            x       y       z     vdW  Elec       q    Type
REMARK                         _______ _______ _______ _____ _____    ______ ____
ROOT
ATOM      1  C   UNL     1       3.321   3.606  18.979  0.00  0.00    +0.000 C 
ENDROOT
BRANCH   1   2
ATOM      2  C   UNL     1       4.441   4.313  18.215  0.00  0.00    +0.000 A 
ATOM      3  C   UNL     1       5.275   5.279  18.804  0.00  0.00    +0.000 A 
ATOM      4  C   UNL     1       6.295   5.898  18.076  0.00  0.00    +0.000 A 
ATOM      5  C   UNL     1       6.491   5.562  16.746  0.00  0.00    +0.000 A 
ATOM      6  C   UNL     1       5.692   4.606  16.137  0.00  0.00    +0.000 A 
ATOM      7  C   UNL     1       4.681   3.977  16.868  0.00  0.00    +0.000 A 
BRANCH   5   8
ATOM      8  O   UNL     1       7.469   6.150  16.002  0.00  0.00    +0.000 OA
ATOM      9  H   UNL     1       7.954   5.454  15.528  0.00  0.00    +0.000 HD
ENDBRANCH   5   8
ENDBRANCH   1   2
BRANCH   1  10
ATOM     10  C   UNL     1       3.617   2.115  19.290  0.00  0.00    +0.000 C 
BRANCH  10  11
ATOM     11  N   UNL     1       4.918   1.914  19.940  0.00  0.00    +0.000 NA
ATOM     12  H   UNL     1       5.445   2.790  19.863  0.00  0.00    +0.000 HD
ATOM     13  H   UNL     1       5.461   1.257  19.370  0.00  0.00    +0.000 HD
ENDBRANCH  10  11
ENDBRANCH   1  10
BRANCH   1  14
ATOM     14  C   UNL     1       2.876   4.381  20.237  0.00  0.00    +0.000 C 
BRANCH  14  15
ATOM     15  C   UNL     1       1.879   3.634  21.082  0.00  0.00    +0.000 C 
ATOM     16  O   UNL     1       2.120   3.164  22.185  0.00  0.00    +0.000 OA
BRANCH  15  17
ATOM     17  O   UNL     1       0.656   3.543  20.502  0.00  0.00    +0.000 OA
ATOM     18  H   UNL     1       0.022   4.207  20.854  0.00  0.00    +0.000 HD
ENDBRANCH  15  17
ENDBRANCH  14  15
ENDBRANCH   1  14
TORSDOF 7
ENDMDL
MODEL 8
REMARK VINA RESULT:      -5.7      1.111      1.934
REMARK  Name = 
REMARK  7 active torsions:
REMARK  status: ('A' for Active; 'I' for Inactive)
REMARK    1  A    between atoms: N_1  and  C_2
REMARK    2  A    between atoms: C_2  and  C_3
REMARK    3  A    between atoms: C_3  and  C_4
REMARK    4  A    between atoms: C_3  and  C_8
REMARK    5  A    between atoms: C_4  and  C_5
REMARK    6  A    between atoms: C_5  and  O_7
REMARK    7  A    between atoms: C_11  and  O_12
REMARK                            x       y       z     vdW  Elec       q    Type
REMARK                         _______ _______ _______ _____ _____    ______ ____
ROOT
ATOM      1  C   UNL     1       5.281   4.343  16.917  0.00  0.00    +0.000 C 
ENDROOT
BRANCH   1   2
ATOM      2  C   UNL     1       3.924   3.851  17.423  0.00  0.00    +0.000 A 
ATOM      3  C   UNL     1       2.830   4.708  17.628  0.00  0.00    +0.000 A 
ATOM      4  C   UNL     1       1.601   4.221  18.084  0.00  0.00    +0.000 A 
ATOM      5  C   UNL     1       1.454   2.867  18.345  0.00  0.00    +0.000 A 
ATOM      6  C   UNL     1       2.512   1.993  18.145  0.00  0.00    +0.000 A 
ATOM      7  C   UNL     1       3.735   2.479  17.676  0.00  0.00    +0.000 A 
BRANCH   5   8
ATOM      8  O   UNL     1       0.276   2.357  18.799  0.00  0.00    +0.000 OA
ATOM      9  H   UNL     1       0.336   2.257  19.763  0.00  0.00    +0.000 HD
ENDBRANCH   5   8
ENDBRANCH   1   2
BRANCH   1  10
ATOM     10  C   UNL     1       5.306   4.665  15.399  0.00  0.00    +0.000 C 
BRANCH  10  11
ATOM     11  N   UNL     1       6.406   5.562  15.023  0.00  0.00    +0.000 NA
ATOM     12  H   UNL     1       6.420   6.338  15.693  0.00  0.00    +0.000 HD
ATOM     13  H   UNL     1       6.159   6.015  14.136  0.00  0.00    +0.000 HD
ENDBRANCH  10  11
ENDBRANCH   1  10
BRANCH   1  14
ATOM     14  C   UNL     1       5.847   5.504  17.762  0.00  0.00    +0.000 C 
BRANCH  14  15
ATOM     15  C   UNL     1       6.967   5.089  18.678  0.00  0.00    +0.000 C 
ATOM     16  O   UNL     1       7.066   5.426  19.850  0.00  0.00    +0.000 OA
BRANCH  15  17
ATOM     17  O   UNL     1       7.869   4.274  18.075  0.00  0.00    +0.000 OA
ATOM     18  H   UNL     1       8.795   4.579  18.202  0.00  0.00    +0.000 HD
ENDBRANCH  15  17
ENDBRANCH  14  15
ENDBRANCH   1  14
TORSDOF 7
ENDMDL
MODEL 9
REMARK VINA RESULT:      -5.7      1.401      1.602
REMARK  Name = 
REMARK  7 active torsions:
REMARK  status: ('A' for Active; 'I' for Inactive)
REMARK    1  A    between atoms: N_1  and  C_2
REMARK    2  A    between atoms: C_2  and  C_3
REMARK    3  A    between atoms: C_3  and  C_4
REMARK    4  A    between atoms: C_3  and  C_8
REMARK    5  A    between atoms: C_4  and  C_5
REMARK    6  A    between atoms: C_5  and  O_7
REMARK    7  A    between atoms: C_11  and  O_12
REMARK                            x       y       z     vdW  Elec       q    Type
REMARK                         _______ _______ _______ _____ _____    ______ ____
ROOT
ATOM      1  C   UNL     1       5.111   5.236  16.623  0.00  0.00    +0.000 C 
ENDROOT
BRANCH   1   2
ATOM      2  C   UNL     1       3.943   4.432  17.195  0.00  0.00    +0.000 A 
ATOM      3  C   UNL     1       3.935   3.027  17.246  0.00  0.00    +0.000 A 
ATOM      4  C   UNL     1       2.853   2.325  17.784  0.00  0.00    +0.000 A 
ATOM      5  C   UNL     1       1.759   3.022  18.276  0.00  0.00    +0.000 A 
ATOM      6  C   UNL     1       1.738   4.408  18.249  0.00  0.00    +0.000 A 
ATOM      7  C   UNL     1       2.827   5.109  17.722  0.00  0.00    +0.000 A 
BRANCH   5   8
ATOM      8  O   UNL     1       0.683   2.373  18.800  0.00  0.00    +0.000 OA
ATOM      9  H   UNL     1       0.490   2.754  19.673  0.00  0.00    +0.000 HD
ENDBRANCH   5   8
ENDBRANCH   1   2
BRANCH   1  10
ATOM     10  C   UNL     1       5.510   6.462  17.484  0.00  0.00    +0.000 C 
BRANCH  10  11
ATOM     11  N   UNL     1       6.663   7.191  16.941  0.00  0.00    +0.000 NA
ATOM     12  H   UNL     1       6.379   7.607  16.049  0.00  0.00    +0.000 HD
ATOM     13  H   UNL     1       7.376   6.505  16.670  0.00  0.00    +0.000 HD
ENDBRANCH  10  11
ENDBRANCH   1  10
BRANCH   1  14
ATOM     14  C   UNL     1       6.328   4.353  16.275  0.00  0.00    +0.000 C 
BRANCH  14  15
ATOM     15  C   UNL     1       6.735   4.434  14.828  0.00  0.00    +0.000 C 
ATOM     16  O   UNL     1       6.263   3.744  13.936  0.00  0.00    +0.000 OA
BRANCH  15  17
ATOM     17  O   UNL     1       7.682   5.378  14.596  0.00  0.00    +0.000 OA
ATOM     18  H   UNL     1       8.044   5.760  15.426  0.00  0.00    +0.000 HD
ENDBRANCH  15  17
ENDBRANCH  14  15
ENDBRANCH   1  14
TORSDOF 7
ENDMDL
