MODEL 1
REMARK VINA RESULT:      -8.0      0.000      0.000
REMARK  Name = 
REMARK  6 active torsions:
REMARK  status: ('A' for Active; 'I' for Inactive)
REMARK    1  A    between atoms: C_1  and  C_2
REMARK    2  A    between atoms: N_5  and  N_6
REMARK    3  A    between atoms: C_7  and  C_8
REMARK    4  A    between atoms: C_10  and  N_11
REMARK    5  A    between atoms: C_16  and  O_17
REMARK    6  A    between atoms: C_19  and  C_20
REMARK                            x       y       z     vdW  Elec       q    Type
REMARK                         _______ _______ _______ _____ _____    ______ ____
ROOT
ATOM      1  C   UNL     1       4.879   4.708  17.561  0.00  0.00    +0.000 C 
ATOM      2  C   UNL     1       3.909   5.794  17.875  0.00  0.00    +0.000 A 
ATOM      3  S   UNL     1       4.089   7.333  17.122  0.00  0.00    +0.000 S 
ATOM      4  C   UNL     1       2.692   7.916  17.940  0.00  0.00    +0.000 A 
ATOM      5  N   UNL     1       2.290   9.206  17.777  0.00  0.00    +0.000 N 
ATOM      6  N   UNL     1       2.106   7.022  18.702  0.00  0.00    +0.000 NA
ATOM      7  C   UNL     1       2.785   5.814  18.687  0.00  0.00    +0.000 A 
ATOM      8  H   UNL     1       2.864   9.783  17.171  0.00  0.00    +0.000 HD
ENDROOT
BRANCH   7   9
ATOM      9  C   UNL     1       2.255   4.694  19.464  0.00  0.00    +0.000 A 
ATOM     10  C   UNL     1       2.513   4.644  20.842  0.00  0.00    +0.000 A 
ATOM     11  C   UNL     1       2.049   3.582  21.624  0.00  0.00    +0.000 A 
ATOM     12  C   UNL     1       1.319   2.554  21.034  0.00  0.00    +0.000 A 
ATOM     13  C   UNL     1       1.065   2.581  19.665  0.00  0.00    +0.000 A 
ATOM     14  C   UNL     1       1.541   3.639  18.883  0.00  0.00    +0.000 A 
ENDBRANCH   7   9
BRANCH   5  15
ATOM     15  N   UNL     1       1.501   9.812  18.710  0.00  0.00    +0.000 NA
ATOM     16  C   UNL     1       0.437  10.404  18.280  0.00  0.00    +0.000 C 
BRANCH  16  17
ATOM     17  C   UNL     1      -0.420  11.156  19.223  0.00  0.00    +0.000 A 
ATOM     18  C   UNL     1      -0.442  10.784  20.576  0.00  0.00    +0.000 A 
ATOM     19  C   UNL     1      -1.217  11.519  21.480  0.00  0.00    +0.000 A 
ATOM     20  C   UNL     1      -1.970  12.619  21.041  0.00  0.00    +0.000 A 
ATOM     21  C   UNL     1      -1.950  12.979  19.691  0.00  0.00    +0.000 A 
ATOM     22  C   UNL     1      -1.176  12.249  18.786  0.00  0.00    +0.000 A 
BRANCH  19  23
ATOM     23  N   UNL     1      -1.236  11.146  22.900  0.00  0.00    +0.000 N 
ATOM     24  O   UNL     1      -0.259  10.539  23.355  0.00  0.00    +0.000 OA
ATOM     25  O   UNL     1      -2.236  11.464  23.561  0.00  0.00    +0.000 OA
ENDBRANCH  19  23
BRANCH  22  26
ATOM     26  O   UNL     1      -1.152  12.612  17.469  0.00  0.00    +0.000 OA
ATOM     27  H   UNL     1      -0.891  11.848  16.925  0.00  0.00    +0.000 HD
ENDBRANCH  22  26
ENDBRANCH  16  17
ENDBRANCH   5  15
TORSDOF 5
ENDMDL
MODEL 2
REMARK VINA RESULT:      -7.8      0.689      1.187
REMARK  Name = 
REMARK  6 active torsions:
REMARK  status: ('A' for Active; 'I' for Inactive)
REMARK    1  A    between atoms: C_1  and  C_2
REMARK    2  A    between atoms: N_5  and  N_6
REMARK    3  A    between atoms: C_7  and  C_8
REMARK    4  A    between atoms: C_10  and  N_11
REMARK    5  A    between atoms: C_16  and  O_17
REMARK    6  A    between atoms: C_19  and  C_20
REMARK                            x       y       z     vdW  Elec       q    Type
REMARK                         _______ _______ _______ _____ _____    ______ ____
ROOT
ATOM      1  C   UNL     1       5.059   4.542  17.689  0.00  0.00    +0.000 C 
ATOM      2  C   UNL     1       4.080   5.637  17.935  0.00  0.00    +0.000 A 
ATOM      3  S   UNL     1       4.267   7.140  17.113  0.00  0.00    +0.000 S 
ATOM      4  C   UNL     1       2.854   7.754  17.879  0.00  0.00    +0.000 A 
ATOM      5  N   UNL     1       2.449   9.034  17.649  0.00  0.00    +0.000 N 
ATOM      6  N   UNL     1       2.259   6.895  18.673  0.00  0.00    +0.000 NA
ATOM      7  C   UNL     1       2.942   5.690  18.727  0.00  0.00    +0.000 A 
ATOM      8  H   UNL     1       3.032   9.584  17.025  0.00  0.00    +0.000 HD
ENDROOT
BRANCH   7   9
ATOM      9  C   UNL     1       2.404   4.606  19.547  0.00  0.00    +0.000 A 
ATOM     10  C   UNL     1       1.603   3.629  18.936  0.00  0.00    +0.000 A 
ATOM     11  C   UNL     1       1.045   2.587  19.682  0.00  0.00    +0.000 A 
ATOM     12  C   UNL     1       1.284   2.507  21.051  0.00  0.00    +0.000 A 
ATOM     13  C   UNL     1       2.065   3.476  21.675  0.00  0.00    +0.000 A 
ATOM     14  C   UNL     1       2.613   4.526  20.929  0.00  0.00    +0.000 A 
ENDBRANCH   7   9
BRANCH   5  15
ATOM     15  N   UNL     1       1.643   9.679  18.539  0.00  0.00    +0.000 NA
ATOM     16  C   UNL     1       0.453   9.982  18.137  0.00  0.00    +0.000 C 
BRANCH  16  17
ATOM     17  C   UNL     1      -0.447  10.759  19.018  0.00  0.00    +0.000 A 
ATOM     18  C   UNL     1      -0.157  10.847  20.388  0.00  0.00    +0.000 A 
ATOM     19  C   UNL     1      -0.981  11.617  21.217  0.00  0.00    +0.000 A 
ATOM     20  C   UNL     1      -2.090  12.295  20.688  0.00  0.00    +0.000 A 
ATOM     21  C   UNL     1      -2.377  12.195  19.323  0.00  0.00    +0.000 A 
ATOM     22  C   UNL     1      -1.556  11.430  18.492  0.00  0.00    +0.000 A 
BRANCH  19  23
ATOM     23  N   UNL     1      -0.678  11.727  22.650  0.00  0.00    +0.000 N 
ATOM     24  O   UNL     1      -0.744  10.701  23.338  0.00  0.00    +0.000 OA
ATOM     25  O   UNL     1      -0.372  12.847  23.085  0.00  0.00    +0.000 OA
ENDBRANCH  19  23
BRANCH  22  26
ATOM     26  O   UNL     1      -1.835  11.345  17.157  0.00  0.00    +0.000 OA
ATOM     27  H   UNL     1      -2.718  11.718  16.985  0.00  0.00    +0.000 HD
ENDBRANCH  22  26
ENDBRANCH  16  17
ENDBRANCH   5  15
TORSDOF 5
ENDMDL
MODEL 3
REMARK VINA RESULT:      -7.6      0.677      1.327
REMARK  Name = 
REMARK  6 active torsions:
REMARK  status: ('A' for Active; 'I' for Inactive)
REMARK    1  A    between atoms: C_1  and  C_2
REMARK    2  A    between atoms: N_5  and  N_6
REMARK    3  A    between atoms: C_7  and  C_8
REMARK    4  A    between atoms: C_10  and  N_11
REMARK    5  A    between atoms: C_16  and  O_17
REMARK    6  A    between atoms: C_19  and  C_20
REMARK                            x       y       z     vdW  Elec       q    Type
REMARK                         _______ _______ _______ _____ _____    ______ ____
ROOT
ATOM      1  C   UNL     1       5.354   4.689  18.282  0.00  0.00    +0.000 C 
ATOM      2  C   UNL     1       4.240   5.675  18.233  0.00  0.00    +0.000 A 
ATOM      3  S   UNL     1       4.434   7.126  17.322  0.00  0.00    +0.000 S 
ATOM      4  C   UNL     1       2.841   7.623  17.745  0.00  0.00    +0.000 A 
ATOM      5  N   UNL     1       2.363   8.825  17.322  0.00  0.00    +0.000 N 
ATOM      6  N   UNL     1       2.190   6.760  18.489  0.00  0.00    +0.000 NA
ATOM      7  C   UNL     1       2.968   5.652  18.786  0.00  0.00    +0.000 A 
ATOM      8  H   UNL     1       2.999   9.394  16.771  0.00  0.00    +0.000 HD
ENDROOT
BRANCH   7   9
ATOM      9  C   UNL     1       2.391   4.574  19.588  0.00  0.00    +0.000 A 
ATOM     10  C   UNL     1       1.510   3.671  18.974  0.00  0.00    +0.000 A 
ATOM     11  C   UNL     1       0.912   2.639  19.703  0.00  0.00    +0.000 A 
ATOM     12  C   UNL     1       1.191   2.496  21.060  0.00  0.00    +0.000 A 
ATOM     13  C   UNL     1       2.053   3.392  21.688  0.00  0.00    +0.000 A 
ATOM     14  C   UNL     1       2.640   4.432  20.958  0.00  0.00    +0.000 A 
ENDBRANCH   7   9
BRANCH   5  15
ATOM     15  N   UNL     1       1.334   9.434  17.977  0.00  0.00    +0.000 NA
ATOM     16  C   UNL     1       1.634  10.437  18.734  0.00  0.00    +0.000 C 
BRANCH  16  17
ATOM     17  C   UNL     1       0.582  11.091  19.542  0.00  0.00    +0.000 A 
ATOM     18  C   UNL     1       0.331  10.631  20.844  0.00  0.00    +0.000 A 
ATOM     19  C   UNL     1      -0.632  11.275  21.628  0.00  0.00    +0.000 A 
ATOM     20  C   UNL     1      -1.347  12.370  21.120  0.00  0.00    +0.000 A 
ATOM     21  C   UNL     1      -1.099  12.818  19.819  0.00  0.00    +0.000 A 
ATOM     22  C   UNL     1      -0.135  12.179  19.034  0.00  0.00    +0.000 A 
BRANCH  19  23
ATOM     23  N   UNL     1      -0.892  10.810  22.997  0.00  0.00    +0.000 N 
ATOM     24  O   UNL     1      -1.954  11.146  23.534  0.00  0.00    +0.000 OA
ATOM     25  O   UNL     1      -0.026  10.102  23.534  0.00  0.00    +0.000 OA
ENDBRANCH  19  23
BRANCH  22  26
ATOM     26  O   UNL     1       0.111  12.628  17.768  0.00  0.00    +0.000 OA
ATOM     27  H   UNL     1       0.103  13.601  17.760  0.00  0.00    +0.000 HD
ENDBRANCH  22  26
ENDBRANCH  16  17
ENDBRANCH   5  15
TORSDOF 5
ENDMDL
MODEL 4
REMARK VINA RESULT:      -7.6      2.347      4.306
REMARK  Name = 
REMARK  6 active torsions:
REMARK  status: ('A' for Active; 'I' for Inactive)
REMARK    1  A    between atoms: C_1  and  C_2
REMARK    2  A    between atoms: N_5  and  N_6
REMARK    3  A    between atoms: C_7  and  C_8
REMARK    4  A    between atoms: C_10  and  N_11
REMARK    5  A    between atoms: C_16  and  O_17
REMARK    6  A    between atoms: C_19  and  C_20
REMARK                            x       y       z     vdW  Elec       q    Type
REMARK                         _______ _______ _______ _____ _____    ______ ____
ROOT
ATOM      1  C   UNL     1       3.232   2.773  19.296  0.00  0.00    +0.000 C 
ATOM      2  C   UNL     1       2.957   4.229  19.444  0.00  0.00    +0.000 A 
ATOM      3  S   UNL     1       2.063   4.788  20.807  0.00  0.00    +0.000 S 
ATOM      4  C   UNL     1       2.210   6.412  20.259  0.00  0.00    +0.000 A 
ATOM      5  N   UNL     1       1.624   7.427  20.953  0.00  0.00    +0.000 N 
ATOM      6  N   UNL     1       2.903   6.544  19.152  0.00  0.00    +0.000 NA
ATOM      7  C   UNL     1       3.329   5.317  18.668  0.00  0.00    +0.000 A 
ATOM      8  H   UNL     1       1.098   7.161  21.780  0.00  0.00    +0.000 HD
ENDROOT
BRANCH   7   9
ATOM      9  C   UNL     1       4.139   5.278  17.451  0.00  0.00    +0.000 A 
ATOM     10  C   UNL     1       4.591   4.037  16.978  0.00  0.00    +0.000 A 
ATOM     11  C   UNL     1       5.389   3.949  15.833  0.00  0.00    +0.000 A 
ATOM     12  C   UNL     1       5.744   5.106  15.145  0.00  0.00    +0.000 A 
ATOM     13  C   UNL     1       5.315   6.347  15.608  0.00  0.00    +0.000 A 
ATOM     14  C   UNL     1       4.527   6.433  16.761  0.00  0.00    +0.000 A 
ENDBRANCH   7   9
BRANCH   5  15
ATOM     15  N   UNL     1       1.339   8.612  20.344  0.00  0.00    +0.000 NA
ATOM     16  C   UNL     1       0.191   9.144  20.605  0.00  0.00    +0.000 C 
BRANCH  16  17
ATOM     17  C   UNL     1      -0.222  10.385  19.914  0.00  0.00    +0.000 A 
ATOM     18  C   UNL     1      -1.226  10.324  18.936  0.00  0.00    +0.000 A 
ATOM     19  C   UNL     1      -1.650  11.502  18.311  0.00  0.00    +0.000 A 
ATOM     20  C   UNL     1      -1.078  12.736  18.654  0.00  0.00    +0.000 A 
ATOM     21  C   UNL     1      -0.073  12.788  19.624  0.00  0.00    +0.000 A 
ATOM     22  C   UNL     1       0.352  11.615  20.252  0.00  0.00    +0.000 A 
BRANCH  19  23
ATOM     23  N   UNL     1      -2.710  11.449  17.295  0.00  0.00    +0.000 N 
ATOM     24  O   UNL     1      -3.871  11.683  17.654  0.00  0.00    +0.000 OA
ATOM     25  O   UNL     1      -2.375  11.175  16.133  0.00  0.00    +0.000 OA
ENDBRANCH  19  23
BRANCH  22  26
ATOM     26  O   UNL     1       1.328  11.674  21.206  0.00  0.00    +0.000 OA
ATOM     27  H   UNL     1       2.201  11.702  20.778  0.00  0.00    +0.000 HD
ENDBRANCH  22  26
ENDBRANCH  16  17
ENDBRANCH   5  15
TORSDOF 5
ENDMDL
MODEL 5
REMARK VINA RESULT:      -7.6      2.439      4.605
REMARK  Name = 
REMARK  6 active torsions:
REMARK  status: ('A' for Active; 'I' for Inactive)
REMARK    1  A    between atoms: C_1  and  C_2
REMARK    2  A    between atoms: N_5  and  N_6
REMARK    3  A    between atoms: C_7  and  C_8
REMARK    4  A    between atoms: C_10  and  N_11
REMARK    5  A    between atoms: C_16  and  O_17
REMARK    6  A    between atoms: C_19  and  C_20
REMARK                            x       y       z     vdW  Elec       q    Type
REMARK                         _______ _______ _______ _____ _____    ______ ____
ROOT
ATOM      1  C   UNL     1       3.453   1.703  18.296  0.00  0.00    +0.000 C 
ATOM      2  C   UNL     1       3.211   3.060  18.858  0.00  0.00    +0.000 A 
ATOM      3  S   UNL     1       2.025   3.266  20.091  0.00  0.00    +0.000 S 
ATOM      4  C   UNL     1       2.374   4.949  20.169  0.00  0.00    +0.000 A 
ATOM      5  N   UNL     1       1.674   5.757  21.012  0.00  0.00    +0.000 N 
ATOM      6  N   UNL     1       3.329   5.336  19.356  0.00  0.00    +0.000 NA
ATOM      7  C   UNL     1       3.812   4.282  18.597  0.00  0.00    +0.000 A 
ATOM      8  H   UNL     1       0.946   5.311  21.562  0.00  0.00    +0.000 HD
ENDROOT
BRANCH   7   9
ATOM      9  C   UNL     1       4.901   4.530  17.653  0.00  0.00    +0.000 A 
ATOM     10  C   UNL     1       6.217   4.580  18.135  0.00  0.00    +0.000 A 
ATOM     11  C   UNL     1       7.290   4.837  17.277  0.00  0.00    +0.000 A 
ATOM     12  C   UNL     1       7.058   5.047  15.921  0.00  0.00    +0.000 A 
ATOM     13  C   UNL     1       5.757   5.014  15.427  0.00  0.00    +0.000 A 
ATOM     14  C   UNL     1       4.683   4.768  16.290  0.00  0.00    +0.000 A 
ENDBRANCH   7   9
BRANCH   5  15
ATOM     15  N   UNL     1       1.602   7.100  20.789  0.00  0.00    +0.000 NA
ATOM     16  C   UNL     1       0.764   7.769  21.510  0.00  0.00    +0.000 C 
BRANCH  16  17
ATOM     17  C   UNL     1       0.569   9.214  21.264  0.00  0.00    +0.000 A 
ATOM     18  C   UNL     1       1.131   9.797  20.117  0.00  0.00    +0.000 A 
ATOM     19  C   UNL     1       0.913  11.154  19.857  0.00  0.00    +0.000 A 
ATOM     20  C   UNL     1       0.141  11.932  20.734  0.00  0.00    +0.000 A 
ATOM     21  C   UNL     1      -0.409  11.347  21.879  0.00  0.00    +0.000 A 
ATOM     22  C   UNL     1      -0.195   9.991  22.140  0.00  0.00    +0.000 A 
BRANCH  19  23
ATOM     23  N   UNL     1       1.486  11.770  18.653  0.00  0.00    +0.000 N 
ATOM     24  O   UNL     1       2.320  11.122  18.010  0.00  0.00    +0.000 OA
ATOM     25  O   UNL     1       1.094  12.907  18.351  0.00  0.00    +0.000 OA
ENDBRANCH  19  23
BRANCH  22  26
ATOM     26  O   UNL     1      -0.744   9.423  23.255  0.00  0.00    +0.000 OA
ATOM     27  H   UNL     1      -0.130   9.516  24.004  0.00  0.00    +0.000 HD
ENDBRANCH  22  26
ENDBRANCH  16  17
ENDBRANCH   5  15
TORSDOF 5
ENDMDL
MODEL 6
REMARK VINA RESULT:      -7.6      3.822      7.924
REMARK  Name = 
REMARK  6 active torsions:
REMARK  status: ('A' for Active; 'I' for Inactive)
REMARK    1  A    between atoms: C_1  and  C_2
REMARK    2  A    between atoms: N_5  and  N_6
REMARK    3  A    between atoms: C_7  and  C_8
REMARK    4  A    between atoms: C_10  and  N_11
REMARK    5  A    between atoms: C_16  and  O_17
REMARK    6  A    between atoms: C_19  and  C_20
REMARK                            x       y       z     vdW  Elec       q    Type
REMARK                         _______ _______ _______ _____ _____    ______ ____
ROOT
ATOM      1  C   UNL     1      -1.071  13.745  19.487  0.00  0.00    +0.000 C 
ATOM      2  C   UNL     1      -0.777  12.326  19.831  0.00  0.00    +0.000 A 
ATOM      3  S   UNL     1       0.268  11.976  21.156  0.00  0.00    +0.000 S 
ATOM      4  C   UNL     1       0.064  10.288  20.892  0.00  0.00    +0.000 A 
ATOM      5  N   UNL     1       0.728   9.387  21.667  0.00  0.00    +0.000 N 
ATOM      6  N   UNL     1      -0.749   9.994  19.905  0.00  0.00    +0.000 NA
ATOM      7  C   UNL     1      -1.231  11.136  19.283  0.00  0.00    +0.000 A 
ATOM      8  H   UNL     1       1.343   9.772  22.378  0.00  0.00    +0.000 HD
ENDROOT
BRANCH   7   9
ATOM      9  C   UNL     1      -2.173  10.995  18.174  0.00  0.00    +0.000 A 
ATOM     10  C   UNL     1      -1.785  10.259  17.045  0.00  0.00    +0.000 A 
ATOM     11  C   UNL     1      -2.640  10.115  15.949  0.00  0.00    +0.000 A 
ATOM     12  C   UNL     1      -3.900  10.708  15.970  0.00  0.00    +0.000 A 
ATOM     13  C   UNL     1      -4.297  11.453  17.077  0.00  0.00    +0.000 A 
ATOM     14  C   UNL     1      -3.434  11.605  18.168  0.00  0.00    +0.000 A 
ENDBRANCH   7   9
BRANCH   5  15
ATOM     15  N   UNL     1       0.946   8.116  21.225  0.00  0.00    +0.000 NA
ATOM     16  C   UNL     1       1.917   7.945  20.391  0.00  0.00    +0.000 C 
BRANCH  16  17
ATOM     17  C   UNL     1       2.157   6.609  19.802  0.00  0.00    +0.000 A 
ATOM     18  C   UNL     1       1.912   5.465  20.576  0.00  0.00    +0.000 A 
ATOM     19  C   UNL     1       2.096   4.199  20.010  0.00  0.00    +0.000 A 
ATOM     20  C   UNL     1       2.523   4.069  18.680  0.00  0.00    +0.000 A 
ATOM     21  C   UNL     1       2.773   5.214  17.917  0.00  0.00    +0.000 A 
ATOM     22  C   UNL     1       2.589   6.480  18.478  0.00  0.00    +0.000 A 
BRANCH  19  23
ATOM     23  N   UNL     1       1.829   2.995  20.808  0.00  0.00    +0.000 N 
ATOM     24  O   UNL     1       1.974   3.067  22.034  0.00  0.00    +0.000 OA
ATOM     25  O   UNL     1       1.472   1.974  20.201  0.00  0.00    +0.000 OA
ENDBRANCH  19  23
BRANCH  22  26
ATOM     26  O   UNL     1       2.824   7.594  17.725  0.00  0.00    +0.000 OA
ATOM     27  H   UNL     1       3.003   8.351  18.310  0.00  0.00    +0.000 HD
ENDBRANCH  22  26
ENDBRANCH  16  17
ENDBRANCH   5  15
TORSDOF 5
ENDMDL
MODEL 7
REMARK VINA RESULT:      -7.6      2.422      4.249
REMARK  Name = 
REMARK  6 active torsions:
REMARK  status: ('A' for Active; 'I' for Inactive)
REMARK    1  A    between atoms: C_1  and  C_2
REMARK    2  A    between atoms: N_5  and  N_6
REMARK    3  A    between atoms: C_7  and  C_8
REMARK    4  A    between atoms: C_10  and  N_11
REMARK    5  A    between atoms: C_16  and  O_17
REMARK    6  A    between atoms: C_19  and  C_20
REMARK                            x       y       z     vdW  Elec       q    Type
REMARK                         _______ _______ _______ _____ _____    ______ ____
ROOT
ATOM      1  C   UNL     1       3.447   2.736  19.524  0.00  0.00    +0.000 C 
ATOM      2  C   UNL     1       3.122   4.185  19.621  0.00  0.00    +0.000 A 
ATOM      3  S   UNL     1       2.080   4.736  20.879  0.00  0.00    +0.000 S 
ATOM      4  C   UNL     1       2.241   6.357  20.325  0.00  0.00    +0.000 A 
ATOM      5  N   UNL     1       1.561   7.364  20.940  0.00  0.00    +0.000 N 
ATOM      6  N   UNL     1       3.038   6.494  19.291  0.00  0.00    +0.000 NA
ATOM      7  C   UNL     1       3.542   5.273  18.870  0.00  0.00    +0.000 A 
ATOM      8  H   UNL     1       0.962   7.094  21.715  0.00  0.00    +0.000 HD
ENDROOT
BRANCH   7   9
ATOM      9  C   UNL     1       4.471   5.241  17.742  0.00  0.00    +0.000 A 
ATOM     10  C   UNL     1       5.535   6.155  17.715  0.00  0.00    +0.000 A 
ATOM     11  C   UNL     1       6.436   6.180  16.646  0.00  0.00    +0.000 A 
ATOM     12  C   UNL     1       6.284   5.287  15.589  0.00  0.00    +0.000 A 
ATOM     13  C   UNL     1       5.225   4.382  15.593  0.00  0.00    +0.000 A 
ATOM     14  C   UNL     1       4.318   4.367  16.658  0.00  0.00    +0.000 A 
ENDBRANCH   7   9
BRANCH   5  15
ATOM     15  N   UNL     1       1.309   8.534  20.288  0.00  0.00    +0.000 NA
ATOM     16  C   UNL     1       0.207   9.141  20.580  0.00  0.00    +0.000 C 
BRANCH  16  17
ATOM     17  C   UNL     1      -0.175  10.369  19.849  0.00  0.00    +0.000 A 
ATOM     18  C   UNL     1      -1.197  10.308  18.890  0.00  0.00    +0.000 A 
ATOM     19  C   UNL     1      -1.591  11.476  18.228  0.00  0.00    +0.000 A 
ATOM     20  C   UNL     1      -0.970  12.701  18.516  0.00  0.00    +0.000 A 
ATOM     21  C   UNL     1       0.054  12.753  19.466  0.00  0.00    +0.000 A 
ATOM     22  C   UNL     1       0.448  11.590  20.131  0.00  0.00    +0.000 A 
BRANCH  19  23
ATOM     23  N   UNL     1      -2.670  11.424  17.233  0.00  0.00    +0.000 N 
ATOM     24  O   UNL     1      -2.370  11.153  16.064  0.00  0.00    +0.000 OA
ATOM     25  O   UNL     1      -3.823  11.655  17.627  0.00  0.00    +0.000 OA
ENDBRANCH  19  23
BRANCH  22  26
ATOM     26  O   UNL     1       1.441  11.649  21.067  0.00  0.00    +0.000 OA
ATOM     27  H   UNL     1       1.057  11.852  21.937  0.00  0.00    +0.000 HD
ENDBRANCH  22  26
ENDBRANCH  16  17
ENDBRANCH   5  15
TORSDOF 5
ENDMDL
MODEL 8
REMARK VINA RESULT:      -7.5      2.481      3.921
REMARK  Name = 
REMARK  6 active torsions:
REMARK  status: ('A' for Active; 'I' for Inactive)
REMARK    1  A    between atoms: C_1  and  C_2
REMARK    2  A    between atoms: N_5  and  N_6
REMARK    3  A    between atoms: C_7  and  C_8
REMARK    4  A    between atoms: C_10  and  N_11
REMARK    5  A    between atoms: C_16  and  O_17
REMARK    6  A    between atoms: C_19  and  C_20
REMARK                            x       y       z     vdW  Elec       q    Type
REMARK                         _______ _______ _______ _____ _____    ______ ____
ROOT
ATOM      1  C   UNL     1       2.927   1.960  18.888  0.00  0.00    +0.000 C 
ATOM      2  C   UNL     1       2.858   3.395  19.280  0.00  0.00    +0.000 A 
ATOM      3  S   UNL     1       1.682   3.901  20.434  0.00  0.00    +0.000 S 
ATOM      4  C   UNL     1       2.254   5.521  20.331  0.00  0.00    +0.000 A 
ATOM      5  N   UNL     1       1.650   6.509  21.048  0.00  0.00    +0.000 N 
ATOM      6  N   UNL     1       3.271   5.679  19.517  0.00  0.00    +0.000 NA
ATOM      7  C   UNL     1       3.625   4.488  18.903  0.00  0.00    +0.000 A 
ATOM      8  H   UNL     1       0.856   6.231  21.616  0.00  0.00    +0.000 HD
ENDROOT
BRANCH   7   9
ATOM      9  C   UNL     1       4.759   4.475  17.981  0.00  0.00    +0.000 A 
ATOM     10  C   UNL     1       6.049   4.688  18.490  0.00  0.00    +0.000 A 
ATOM     11  C   UNL     1       7.162   4.710  17.645  0.00  0.00    +0.000 A 
ATOM     12  C   UNL     1       6.998   4.516  16.276  0.00  0.00    +0.000 A 
ATOM     13  C   UNL     1       5.724   4.317  15.752  0.00  0.00    +0.000 A 
ATOM     14  C   UNL     1       4.609   4.308  16.599  0.00  0.00    +0.000 A 
ENDBRANCH   7   9
BRANCH   5  15
ATOM     15  N   UNL     1       1.766   7.813  20.669  0.00  0.00    +0.000 NA
ATOM     16  C   UNL     1       0.734   8.569  20.852  0.00  0.00    +0.000 C 
BRANCH  16  17
ATOM     17  C   UNL     1       0.757   9.973  20.385  0.00  0.00    +0.000 A 
ATOM     18  C   UNL     1       0.418  10.999  21.280  0.00  0.00    +0.000 A 
ATOM     19  C   UNL     1       0.481  12.331  20.856  0.00  0.00    +0.000 A 
ATOM     20  C   UNL     1       0.876  12.643  19.546  0.00  0.00    +0.000 A 
ATOM     21  C   UNL     1       1.205  11.615  18.657  0.00  0.00    +0.000 A 
ATOM     22  C   UNL     1       1.146  10.284  19.078  0.00  0.00    +0.000 A 
BRANCH  19  23
ATOM     23  N   UNL     1       0.142  13.413  21.790  0.00  0.00    +0.000 N 
ATOM     24  O   UNL     1      -0.152  13.107  22.951  0.00  0.00    +0.000 OA
ATOM     25  O   UNL     1       0.172  14.574  21.355  0.00  0.00    +0.000 OA
ENDBRANCH  19  23
BRANCH  22  26
ATOM     26  O   UNL     1       1.478   9.285  18.208  0.00  0.00    +0.000 OA
ATOM     27  H   UNL     1       1.353   8.422  18.640  0.00  0.00    +0.000 HD
ENDBRANCH  22  26
ENDBRANCH  16  17
ENDBRANCH   5  15
TORSDOF 5
ENDMDL
MODEL 9
REMARK VINA RESULT:      -7.5      2.472      4.050
REMARK  Name = 
REMARK  6 active torsions:
REMARK  status: ('A' for Active; 'I' for Inactive)
REMARK    1  A    between atoms: C_1  and  C_2
REMARK    2  A    between atoms: N_5  and  N_6
REMARK    3  A    between atoms: C_7  and  C_8
REMARK    4  A    between atoms: C_10  and  N_11
REMARK    5  A    between atoms: C_16  and  O_17
REMARK    6  A    between atoms: C_19  and  C_20
REMARK                            x       y       z     vdW  Elec       q    Type
REMARK                         _______ _______ _______ _____ _____    ______ ____
ROOT
ATOM      1  C   UNL     1       3.045   2.174  18.400  0.00  0.00    +0.000 C 
ATOM      2  C   UNL     1       2.965   3.579  18.885  0.00  0.00    +0.000 A 
ATOM      3  S   UNL     1       1.748   4.013  20.026  0.00  0.00    +0.000 S 
ATOM      4  C   UNL     1       2.327   5.633  20.053  0.00  0.00    +0.000 A 
ATOM      5  N   UNL     1       1.700   6.574  20.811  0.00  0.00    +0.000 N 
ATOM      6  N   UNL     1       3.375   5.840  19.290  0.00  0.00    +0.000 NA
ATOM      7  C   UNL     1       3.748   4.691  18.611  0.00  0.00    +0.000 A 
ATOM      8  H   UNL     1       0.884   6.262  21.330  0.00  0.00    +0.000 HD
ENDROOT
BRANCH   7   9
ATOM      9  C   UNL     1       4.916   4.734  17.733  0.00  0.00    +0.000 A 
ATOM     10  C   UNL     1       4.717   4.786  16.345  0.00  0.00    +0.000 A 
ATOM     11  C   UNL     1       5.801   4.804  15.462  0.00  0.00    +0.000 A 
ATOM     12  C   UNL     1       7.101   4.772  15.959  0.00  0.00    +0.000 A 
ATOM     13  C   UNL     1       7.316   4.707  17.333  0.00  0.00    +0.000 A 
ATOM     14  C   UNL     1       6.229   4.677  18.214  0.00  0.00    +0.000 A 
ENDBRANCH   7   9
BRANCH   5  15
ATOM     15  N   UNL     1       1.832   7.900  20.525  0.00  0.00    +0.000 NA
ATOM     16  C   UNL     1       0.776   8.634  20.648  0.00  0.00    +0.000 C 
BRANCH  16  17
ATOM     17  C   UNL     1       0.824  10.064  20.271  0.00  0.00    +0.000 A 
ATOM     18  C   UNL     1       0.549  11.039  21.243  0.00  0.00    +0.000 A 
ATOM     19  C   UNL     1       0.636  12.393  20.902  0.00  0.00    +0.000 A 
ATOM     20  C   UNL     1       0.993  12.778  19.601  0.00  0.00    +0.000 A 
ATOM     21  C   UNL     1       1.258  11.802  18.637  0.00  0.00    +0.000 A 
ATOM     22  C   UNL     1       1.175  10.448  18.973  0.00  0.00    +0.000 A 
BRANCH  19  23
ATOM     23  N   UNL     1       0.363  13.421  21.916  0.00  0.00    +0.000 N 
ATOM     24  O   UNL     1       0.774  14.568  21.705  0.00  0.00    +0.000 OA
ATOM     25  O   UNL     1      -0.268  13.074  22.925  0.00  0.00    +0.000 OA
ENDBRANCH  19  23
BRANCH  22  26
ATOM     26  O   UNL     1       1.445   9.499  18.029  0.00  0.00    +0.000 OA
ATOM     27  H   UNL     1       0.923   8.698  18.213  0.00  0.00    +0.000 HD
ENDBRANCH  22  26
ENDBRANCH  16  17
ENDBRANCH   5  15
TORSDOF 5
ENDMDL
