MODEL 1
REMARK VINA RESULT:      -8.1      0.000      0.000
REMARK  Name = 
REMARK  5 active torsions:
REMARK  status: ('A' for Active; 'I' for Inactive)
REMARK    1  A    between atoms: C_1  and  C_2
REMARK    2  A    between atoms: C_2  and  N_3
REMARK    3  A    between atoms: C_4  and  C_6
REMARK    4  A    between atoms: C_10  and  C_12
REMARK    5  A    between atoms: C_17  and  C_18
REMARK                            x       y       z     vdW  Elec       q    Type
REMARK                         _______ _______ _______ _____ _____    ______ ____
ROOT
ATOM      1  C   UNL     1       6.303   5.642  17.374  0.00  0.00    +0.000 A 
ATOM      2  C   UNL     1       7.296   5.189  18.349  0.00  0.00    +0.000 A 
ATOM      3  C   UNL     1       8.112   6.028  19.002  0.00  0.00    +0.000 A 
ATOM      4  C   UNL     1       8.132   7.390  18.640  0.00  0.00    +0.000 A 
ATOM      5  N   UNL     1       8.884   8.371  19.077  0.00  0.00    +0.000 NA
ATOM      6  C   UNL     1       8.550   9.459  18.315  0.00  0.00    +0.000 A 
ATOM      7  C   UNL     1       7.568   9.127  17.398  0.00  0.00    +0.000 A 
ATOM      8  N   UNL     1       7.286   7.796  17.615  0.00  0.00    +0.000 N 
ATOM      9  C   UNL     1       6.362   6.947  16.996  0.00  0.00    +0.000 A 
ENDROOT
BRANCH   1  14
ATOM     10  C   UNL     1       2.541   4.004  19.208  0.00  0.00    +0.000 C 
ATOM     11  C   UNL     1       1.938   3.729  17.833  0.00  0.00    +0.000 C 
ATOM     12  C   UNL     1       3.152   3.430  16.951  0.00  0.00    +0.000 C 
ATOM     13  N   UNL     1       4.208   4.262  17.498  0.00  0.00    +0.000 N 
ATOM     14  C   UNL     1       5.267   4.733  16.736  0.00  0.00    +0.000 C 
ATOM     15  O   UNL     1       5.360   4.464  15.534  0.00  0.00    +0.000 OA
ATOM     16  C   UNL     1       3.928   4.547  18.893  0.00  0.00    +0.000 C 
BRANCH  10  18
ATOM     17  N   UNL     1       2.339   6.263  20.103  0.00  0.00    +0.000 N 
ATOM     18  C   UNL     1       1.795   5.003  20.076  0.00  0.00    +0.000 C 
ATOM     19  O   UNL     1       0.757   4.727  20.671  0.00  0.00    +0.000 OA
ATOM     20  H   UNL     1       3.071   6.507  19.449  0.00  0.00    +0.000 HD
BRANCH  17  22
ATOM     21  C   UNL     1       1.461   8.566  20.046  0.00  0.00    +0.000 C 
ATOM     22  C   UNL     1       1.709   7.318  20.873  0.00  0.00    +0.000 C 
ENDBRANCH  17  22
ENDBRANCH  10  18
ENDBRANCH   1  14
BRANCH   6  23
ATOM     23  C   UNL     1       9.187  10.746  18.538  0.00  0.00    +0.000 A 
ATOM     24  C   UNL     1      10.190  10.843  19.518  0.00  0.00    +0.000 A 
ATOM     25  C   UNL     1      10.795  12.064  19.817  0.00  0.00    +0.000 A 
ATOM     26  C   UNL     1      10.410  13.210  19.128  0.00  0.00    +0.000 A 
ATOM     27  C   UNL     1       9.431  13.128  18.138  0.00  0.00    +0.000 A 
ATOM     28  C   UNL     1       8.828  11.906  17.840  0.00  0.00    +0.000 A 
ENDBRANCH   6  23
TORSDOF 4
ENDMDL
MODEL 2
REMARK VINA RESULT:      -8.1      5.169      8.017
REMARK  Name = 
REMARK  5 active torsions:
REMARK  status: ('A' for Active; 'I' for Inactive)
REMARK    1  A    between atoms: C_1  and  C_2
REMARK    2  A    between atoms: C_2  and  N_3
REMARK    3  A    between atoms: C_4  and  C_6
REMARK    4  A    between atoms: C_10  and  C_12
REMARK    5  A    between atoms: C_17  and  C_18
REMARK                            x       y       z     vdW  Elec       q    Type
REMARK                         _______ _______ _______ _____ _____    ______ ____
ROOT
ATOM      1  C   UNL     1       1.125   8.928  20.422  0.00  0.00    +0.000 A 
ATOM      2  C   UNL     1       1.023   7.635  21.100  0.00  0.00    +0.000 A 
ATOM      3  C   UNL     1       1.730   6.559  20.728  0.00  0.00    +0.000 A 
ATOM      4  C   UNL     1       2.498   6.615  19.547  0.00  0.00    +0.000 A 
ATOM      5  N   UNL     1       3.203   5.683  18.953  0.00  0.00    +0.000 NA
ATOM      6  C   UNL     1       3.660   6.252  17.793  0.00  0.00    +0.000 A 
ATOM      7  C   UNL     1       3.223   7.561  17.688  0.00  0.00    +0.000 A 
ATOM      8  N   UNL     1       2.485   7.802  18.826  0.00  0.00    +0.000 N 
ATOM      9  C   UNL     1       1.828   8.960  19.258  0.00  0.00    +0.000 A 
ENDROOT
BRANCH   1  14
ATOM     10  C   UNL     1      -1.677  11.640  18.186  0.00  0.00    +0.000 C 
ATOM     11  C   UNL     1      -2.217  12.227  19.487  0.00  0.00    +0.000 C 
ATOM     12  C   UNL     1      -1.029  12.147  20.449  0.00  0.00    +0.000 C 
ATOM     13  N   UNL     1      -0.317  10.950  20.041  0.00  0.00    +0.000 N 
ATOM     14  C   UNL     1       0.454  10.198  20.916  0.00  0.00    +0.000 C 
ATOM     15  O   UNL     1       0.569  10.517  22.104  0.00  0.00    +0.000 OA
ATOM     16  C   UNL     1      -0.602  10.666  18.648  0.00  0.00    +0.000 C 
BRANCH  10  18
ATOM     17  N   UNL     1      -2.836  11.412  16.053  0.00  0.00    +0.000 N 
ATOM     18  C   UNL     1      -2.683  10.903  17.318  0.00  0.00    +0.000 C 
ATOM     19  O   UNL     1      -3.280   9.898  17.695  0.00  0.00    +0.000 OA
ATOM     20  H   UNL     1      -2.187  12.109  15.711  0.00  0.00    +0.000 HD
BRANCH  17  22
ATOM     21  C   UNL     1      -3.025   9.899  14.114  0.00  0.00    +0.000 C 
ATOM     22  C   UNL     1      -3.746  10.784  15.114  0.00  0.00    +0.000 C 
ENDBRANCH  17  22
ENDBRANCH  10  18
ENDBRANCH   1  14
BRANCH   6  23
ATOM     23  C   UNL     1       4.502   5.499  16.878  0.00  0.00    +0.000 A 
ATOM     24  C   UNL     1       5.201   6.193  15.876  0.00  0.00    +0.000 A 
ATOM     25  C   UNL     1       5.977   5.516  14.934  0.00  0.00    +0.000 A 
ATOM     26  C   UNL     1       6.073   4.130  14.989  0.00  0.00    +0.000 A 
ATOM     27  C   UNL     1       5.404   3.427  15.990  0.00  0.00    +0.000 A 
ATOM     28  C   UNL     1       4.629   4.105  16.932  0.00  0.00    +0.000 A 
ENDBRANCH   6  23
TORSDOF 4
ENDMDL
MODEL 3
REMARK VINA RESULT:      -8.0      5.303      9.039
REMARK  Name = 
REMARK  5 active torsions:
REMARK  status: ('A' for Active; 'I' for Inactive)
REMARK    1  A    between atoms: C_1  and  C_2
REMARK    2  A    between atoms: C_2  and  N_3
REMARK    3  A    between atoms: C_4  and  C_6
REMARK    4  A    between atoms: C_10  and  C_12
REMARK    5  A    between atoms: C_17  and  C_18
REMARK                            x       y       z     vdW  Elec       q    Type
REMARK                         _______ _______ _______ _____ _____    ______ ____
ROOT
ATOM      1  C   UNL     1       0.379  10.330  20.835  0.00  0.00    +0.000 A 
ATOM      2  C   UNL     1       0.668  11.024  19.579  0.00  0.00    +0.000 A 
ATOM      3  C   UNL     1       1.225  10.418  18.522  0.00  0.00    +0.000 A 
ATOM      4  C   UNL     1       1.695   9.095  18.655  0.00  0.00    +0.000 A 
ATOM      5  N   UNL     1       2.329   8.332  17.798  0.00  0.00    +0.000 NA
ATOM      6  C   UNL     1       2.631   7.184  18.481  0.00  0.00    +0.000 A 
ATOM      7  C   UNL     1       2.163   7.254  19.782  0.00  0.00    +0.000 A 
ATOM      8  N   UNL     1       1.545   8.480  19.892  0.00  0.00    +0.000 N 
ATOM      9  C   UNL     1       0.878   9.071  20.971  0.00  0.00    +0.000 A 
ENDROOT
BRANCH   1  14
ATOM     10  C   UNL     1      -3.326  12.868  20.662  0.00  0.00    +0.000 C 
ATOM     11  C   UNL     1      -3.651  12.570  22.123  0.00  0.00    +0.000 C 
ATOM     12  C   UNL     1      -2.280  12.372  22.773  0.00  0.00    +0.000 C 
ATOM     13  N   UNL     1      -1.468  11.780  21.726  0.00  0.00    +0.000 N 
ATOM     14  C   UNL     1      -0.387  10.951  21.989  0.00  0.00    +0.000 C 
ATOM     15  O   UNL     1      -0.063  10.671  23.147  0.00  0.00    +0.000 OA
ATOM     16  C   UNL     1      -2.008  12.142  20.429  0.00  0.00    +0.000 C 
BRANCH  10  18
ATOM     17  N   UNL     1      -3.838  12.136  18.393  0.00  0.00    +0.000 N 
ATOM     18  C   UNL     1      -4.347  12.395  19.641  0.00  0.00    +0.000 C 
ATOM     19  O   UNL     1      -5.529  12.209  19.916  0.00  0.00    +0.000 OA
ATOM     20  H   UNL     1      -2.836  12.106  18.257  0.00  0.00    +0.000 HD
BRANCH  17  22
ATOM     21  C   UNL     1      -3.926  10.966  16.224  0.00  0.00    +0.000 C 
ATOM     22  C   UNL     1      -4.702  11.653  17.334  0.00  0.00    +0.000 C 
ENDBRANCH  17  22
ENDBRANCH  10  18
ENDBRANCH   1  14
BRANCH   6  23
ATOM     23  C   UNL     1       3.332   6.093  17.825  0.00  0.00    +0.000 A 
ATOM     24  C   UNL     1       4.484   6.384  17.074  0.00  0.00    +0.000 A 
ATOM     25  C   UNL     1       5.163   5.386  16.374  0.00  0.00    +0.000 A 
ATOM     26  C   UNL     1       4.704   4.073  16.427  0.00  0.00    +0.000 A 
ATOM     27  C   UNL     1       3.575   3.763  17.185  0.00  0.00    +0.000 A 
ATOM     28  C   UNL     1       2.897   4.762  17.884  0.00  0.00    +0.000 A 
ENDBRANCH   6  23
TORSDOF 4
ENDMDL
MODEL 4
REMARK VINA RESULT:      -7.9      5.554      9.015
REMARK  Name = 
REMARK  5 active torsions:
REMARK  status: ('A' for Active; 'I' for Inactive)
REMARK    1  A    between atoms: C_1  and  C_2
REMARK    2  A    between atoms: C_2  and  N_3
REMARK    3  A    between atoms: C_4  and  C_6
REMARK    4  A    between atoms: C_10  and  C_12
REMARK    5  A    between atoms: C_17  and  C_18
REMARK                            x       y       z     vdW  Elec       q    Type
REMARK                         _______ _______ _______ _____ _____    ______ ____
ROOT
ATOM      1  C   UNL     1       1.154   9.632  20.059  0.00  0.00    +0.000 A 
ATOM      2  C   UNL     1       1.760   9.807  18.738  0.00  0.00    +0.000 A 
ATOM      3  C   UNL     1       2.222   8.784  18.006  0.00  0.00    +0.000 A 
ATOM      4  C   UNL     1       2.269   7.495  18.577  0.00  0.00    +0.000 A 
ATOM      5  N   UNL     1       2.739   6.372  18.091  0.00  0.00    +0.000 NA
ATOM      6  C   UNL     1       2.621   5.456  19.103  0.00  0.00    +0.000 A 
ATOM      7  C   UNL     1       2.062   6.041  20.226  0.00  0.00    +0.000 A 
ATOM      8  N   UNL     1       1.821   7.354  19.884  0.00  0.00    +0.000 N 
ATOM      9  C   UNL     1       1.248   8.397  20.621  0.00  0.00    +0.000 A 
ENDROOT
BRANCH   1  14
ATOM     10  C   UNL     1      -2.169  12.350  18.728  0.00  0.00    +0.000 C 
ATOM     11  C   UNL     1      -2.523  12.697  20.171  0.00  0.00    +0.000 C 
ATOM     12  C   UNL     1      -1.188  12.596  20.912  0.00  0.00    +0.000 C 
ATOM     13  N   UNL     1      -0.471  11.540  20.221  0.00  0.00    +0.000 N 
ATOM     14  C   UNL     1       0.487  10.751  20.839  0.00  0.00    +0.000 C 
ATOM     15  O   UNL     1       0.778  10.911  22.029  0.00  0.00    +0.000 OA
ATOM     16  C   UNL     1      -0.965  11.428  18.862  0.00  0.00    +0.000 C 
BRANCH  10  18
ATOM     17  N   UNL     1      -2.956  11.460  16.598  0.00  0.00    +0.000 N 
ATOM     18  C   UNL     1      -3.252  11.649  17.925  0.00  0.00    +0.000 C 
ATOM     19  O   UNL     1      -4.293  11.235  18.427  0.00  0.00    +0.000 OA
ATOM     20  H   UNL     1      -2.016  11.630  16.265  0.00  0.00    +0.000 HD
BRANCH  17  22
ATOM     21  C   UNL     1      -3.209  10.132  14.535  0.00  0.00    +0.000 C 
ATOM     22  C   UNL     1      -3.893  10.779  15.726  0.00  0.00    +0.000 C 
ENDBRANCH  17  22
ENDBRANCH  10  18
ENDBRANCH   1  14
BRANCH   6  23
ATOM     23  C   UNL     1       3.037   4.077  18.908  0.00  0.00    +0.000 A 
ATOM     24  C   UNL     1       2.406   3.314  17.911  0.00  0.00    +0.000 A 
ATOM     25  C   UNL     1       2.723   1.970  17.719  0.00  0.00    +0.000 A 
ATOM     26  C   UNL     1       3.690   1.369  18.519  0.00  0.00    +0.000 A 
ATOM     27  C   UNL     1       4.342   2.116  19.499  0.00  0.00    +0.000 A 
ATOM     28  C   UNL     1       4.024   3.461  19.689  0.00  0.00    +0.000 A 
ENDBRANCH   6  23
TORSDOF 4
ENDMDL
MODEL 5
REMARK VINA RESULT:      -7.8      5.200      8.300
REMARK  Name = 
REMARK  5 active torsions:
REMARK  status: ('A' for Active; 'I' for Inactive)
REMARK    1  A    between atoms: C_1  and  C_2
REMARK    2  A    between atoms: C_2  and  N_3
REMARK    3  A    between atoms: C_4  and  C_6
REMARK    4  A    between atoms: C_10  and  C_12
REMARK    5  A    between atoms: C_17  and  C_18
REMARK                            x       y       z     vdW  Elec       q    Type
REMARK                         _______ _______ _______ _____ _____    ______ ____
ROOT
ATOM      1  C   UNL     1       0.761   9.506  20.664  0.00  0.00    +0.000 A 
ATOM      2  C   UNL     1       0.663   8.231  21.376  0.00  0.00    +0.000 A 
ATOM      3  C   UNL     1       1.357   7.142  21.021  0.00  0.00    +0.000 A 
ATOM      4  C   UNL     1       2.106   7.162  19.827  0.00  0.00    +0.000 A 
ATOM      5  N   UNL     1       2.797   6.211  19.245  0.00  0.00    +0.000 NA
ATOM      6  C   UNL     1       3.238   6.747  18.064  0.00  0.00    +0.000 A 
ATOM      7  C   UNL     1       2.807   8.056  17.932  0.00  0.00    +0.000 A 
ATOM      8  N   UNL     1       2.089   8.331  19.076  0.00  0.00    +0.000 N 
ATOM      9  C   UNL     1       1.445   9.503  19.488  0.00  0.00    +0.000 A 
ENDROOT
BRANCH   1  14
ATOM     10  C   UNL     1      -2.128  12.130  18.434  0.00  0.00    +0.000 C 
ATOM     11  C   UNL     1      -2.621  12.764  19.731  0.00  0.00    +0.000 C 
ATOM     12  C   UNL     1      -1.399  12.721  20.651  0.00  0.00    +0.000 C 
ATOM     13  N   UNL     1      -0.700  11.510  20.262  0.00  0.00    +0.000 N 
ATOM     14  C   UNL     1       0.105  10.792  21.135  0.00  0.00    +0.000 C 
ATOM     15  O   UNL     1       0.263  11.155  22.305  0.00  0.00    +0.000 OA
ATOM     16  C   UNL     1      -1.034  11.175  18.891  0.00  0.00    +0.000 C 
BRANCH  10  18
ATOM     17  N   UNL     1      -2.854  11.187  16.306  0.00  0.00    +0.000 N 
ATOM     18  C   UNL     1      -3.164  11.360  17.632  0.00  0.00    +0.000 C 
ATOM     19  O   UNL     1      -4.178  10.883  18.133  0.00  0.00    +0.000 OA
ATOM     20  H   UNL     1      -1.926  11.415  15.974  0.00  0.00    +0.000 HD
BRANCH  17  22
ATOM     21  C   UNL     1      -3.063   9.999  14.155  0.00  0.00    +0.000 C 
ATOM     22  C   UNL     1      -3.746  10.447  15.434  0.00  0.00    +0.000 C 
ENDBRANCH  17  22
ENDBRANCH  10  18
ENDBRANCH   1  14
BRANCH   6  23
ATOM     23  C   UNL     1       4.060   5.965  17.156  0.00  0.00    +0.000 A 
ATOM     24  C   UNL     1       4.020   4.563  17.244  0.00  0.00    +0.000 A 
ATOM     25  C   UNL     1       4.831   3.764  16.438  0.00  0.00    +0.000 A 
ATOM     26  C   UNL     1       5.691   4.359  15.521  0.00  0.00    +0.000 A 
ATOM     27  C   UNL     1       5.729   5.748  15.405  0.00  0.00    +0.000 A 
ATOM     28  C   UNL     1       4.916   6.546  16.211  0.00  0.00    +0.000 A 
ENDBRANCH   6  23
TORSDOF 4
ENDMDL
MODEL 6
REMARK VINA RESULT:      -7.8      5.154      7.826
REMARK  Name = 
REMARK  5 active torsions:
REMARK  status: ('A' for Active; 'I' for Inactive)
REMARK    1  A    between atoms: C_1  and  C_2
REMARK    2  A    between atoms: C_2  and  N_3
REMARK    3  A    between atoms: C_4  and  C_6
REMARK    4  A    between atoms: C_10  and  C_12
REMARK    5  A    between atoms: C_17  and  C_18
REMARK                            x       y       z     vdW  Elec       q    Type
REMARK                         _______ _______ _______ _____ _____    ______ ____
ROOT
ATOM      1  C   UNL     1       1.238   8.428  20.642  0.00  0.00    +0.000 A 
ATOM      2  C   UNL     1       1.064   7.058  21.128  0.00  0.00    +0.000 A 
ATOM      3  C   UNL     1       1.735   6.015  20.623  0.00  0.00    +0.000 A 
ATOM      4  C   UNL     1       2.537   6.201  19.478  0.00  0.00    +0.000 A 
ATOM      5  N   UNL     1       3.219   5.331  18.773  0.00  0.00    +0.000 NA
ATOM      6  C   UNL     1       3.731   6.036  17.715  0.00  0.00    +0.000 A 
ATOM      7  C   UNL     1       3.353   7.366  17.787  0.00  0.00    +0.000 A 
ATOM      8  N   UNL     1       2.594   7.477  18.932  0.00  0.00    +0.000 N 
ATOM      9  C   UNL     1       1.974   8.591  19.510  0.00  0.00    +0.000 A 
ENDROOT
BRANCH   1  14
ATOM     10  C   UNL     1      -1.469  11.494  18.779  0.00  0.00    +0.000 C 
ATOM     11  C   UNL     1      -1.993  11.927  20.145  0.00  0.00    +0.000 C 
ATOM     12  C   UNL     1      -0.810  11.685  21.086  0.00  0.00    +0.000 C 
ATOM     13  N   UNL     1      -0.137  10.527  20.527  0.00  0.00    +0.000 N 
ATOM     14  C   UNL     1       0.607   9.645  21.296  0.00  0.00    +0.000 C 
ATOM     15  O   UNL     1       0.731   9.805  22.515  0.00  0.00    +0.000 OA
ATOM     16  C   UNL     1      -0.427  10.434  19.109  0.00  0.00    +0.000 C 
BRANCH  10  18
ATOM     17  N   UNL     1      -1.970  10.200  16.773  0.00  0.00    +0.000 N 
ATOM     18  C   UNL     1      -2.497  10.907  17.825  0.00  0.00    +0.000 C 
ATOM     19  O   UNL     1      -3.707  11.010  18.002  0.00  0.00    +0.000 OA
ATOM     20  H   UNL     1      -0.986   9.965  16.769  0.00  0.00    +0.000 HD
BRANCH  17  22
ATOM     21  C   UNL     1      -3.097  10.445  14.593  0.00  0.00    +0.000 C 
ATOM     22  C   UNL     1      -2.844   9.566  15.805  0.00  0.00    +0.000 C 
ENDBRANCH  17  22
ENDBRANCH  10  18
ENDBRANCH   1  14
BRANCH   6  23
ATOM     23  C   UNL     1       4.566   5.382  16.721  0.00  0.00    +0.000 A 
ATOM     24  C   UNL     1       4.720   3.986  16.781  0.00  0.00    +0.000 A 
ATOM     25  C   UNL     1       5.555   3.312  15.890  0.00  0.00    +0.000 A 
ATOM     26  C   UNL     1       6.243   4.027  14.915  0.00  0.00    +0.000 A 
ATOM     27  C   UNL     1       6.085   5.410  14.827  0.00  0.00    +0.000 A 
ATOM     28  C   UNL     1       5.249   6.082  15.719  0.00  0.00    +0.000 A 
ENDBRANCH   6  23
TORSDOF 4
ENDMDL
MODEL 7
REMARK VINA RESULT:      -7.7      2.325      7.346
REMARK  Name = 
REMARK  5 active torsions:
REMARK  status: ('A' for Active; 'I' for Inactive)
REMARK    1  A    between atoms: C_1  and  C_2
REMARK    2  A    between atoms: C_2  and  N_3
REMARK    3  A    between atoms: C_4  and  C_6
REMARK    4  A    between atoms: C_10  and  C_12
REMARK    5  A    between atoms: C_17  and  C_18
REMARK                            x       y       z     vdW  Elec       q    Type
REMARK                         _______ _______ _______ _____ _____    ______ ____
ROOT
ATOM      1  C   UNL     1       3.062   5.168  18.812  0.00  0.00    +0.000 A 
ATOM      2  C   UNL     1       2.432   4.468  19.933  0.00  0.00    +0.000 A 
ATOM      3  C   UNL     1       1.570   5.059  20.770  0.00  0.00    +0.000 A 
ATOM      4  C   UNL     1       1.361   6.450  20.675  0.00  0.00    +0.000 A 
ATOM      5  N   UNL     1       0.633   7.249  21.417  0.00  0.00    +0.000 NA
ATOM      6  C   UNL     1       0.870   8.511  20.940  0.00  0.00    +0.000 A 
ATOM      7  C   UNL     1       1.759   8.472  19.880  0.00  0.00    +0.000 A 
ATOM      8  N   UNL     1       2.066   7.141  19.697  0.00  0.00    +0.000 N 
ATOM      9  C   UNL     1       2.893   6.517  18.757  0.00  0.00    +0.000 A 
ENDROOT
BRANCH   1  14
ATOM     10  C   UNL     1       6.892   6.634  16.973  0.00  0.00    +0.000 C 
ATOM     11  C   UNL     1       7.273   5.223  16.535  0.00  0.00    +0.000 C 
ATOM     12  C   UNL     1       5.927   4.539  16.284  0.00  0.00    +0.000 C 
ATOM     13  N   UNL     1       5.031   5.142  17.253  0.00  0.00    +0.000 N 
ATOM     14  C   UNL     1       3.920   4.486  17.761  0.00  0.00    +0.000 C 
ATOM     15  O   UNL     1       3.638   3.336  17.409  0.00  0.00    +0.000 OA
ATOM     16  C   UNL     1       5.526   6.456  17.620  0.00  0.00    +0.000 C 
BRANCH  10  18
ATOM     17  N   UNL     1       8.010   8.650  17.770  0.00  0.00    +0.000 N 
ATOM     18  C   UNL     1       7.832   7.302  17.962  0.00  0.00    +0.000 C 
ATOM     19  O   UNL     1       8.358   6.701  18.895  0.00  0.00    +0.000 OA
ATOM     20  H   UNL     1       7.411   9.147  17.124  0.00  0.00    +0.000 HD
BRANCH  17  22
ATOM     21  C   UNL     1       9.103  10.825  18.161  0.00  0.00    +0.000 C 
ATOM     22  C   UNL     1       8.861   9.413  18.662  0.00  0.00    +0.000 C 
ENDBRANCH  17  22
ENDBRANCH  10  18
ENDBRANCH   1  14
BRANCH   6  23
ATOM     23  C   UNL     1       0.206   9.663  21.527  0.00  0.00    +0.000 A 
ATOM     24  C   UNL     1       0.385  10.923  20.931  0.00  0.00    +0.000 A 
ATOM     25  C   UNL     1      -0.179  12.073  21.485  0.00  0.00    +0.000 A 
ATOM     26  C   UNL     1      -0.943  11.975  22.643  0.00  0.00    +0.000 A 
ATOM     27  C   UNL     1      -1.149  10.730  23.236  0.00  0.00    +0.000 A 
ATOM     28  C   UNL     1      -0.585   9.581  22.680  0.00  0.00    +0.000 A 
ENDBRANCH   6  23
TORSDOF 4
ENDMDL
MODEL 8
REMARK VINA RESULT:      -7.7      5.626      9.161
REMARK  Name = 
REMARK  5 active torsions:
REMARK  status: ('A' for Active; 'I' for Inactive)
REMARK    1  A    between atoms: C_1  and  C_2
REMARK    2  A    between atoms: C_2  and  N_3
REMARK    3  A    between atoms: C_4  and  C_6
REMARK    4  A    between atoms: C_10  and  C_12
REMARK    5  A    between atoms: C_17  and  C_18
REMARK                            x       y       z     vdW  Elec       q    Type
REMARK                         _______ _______ _______ _____ _____    ______ ____
ROOT
ATOM      1  C   UNL     1       1.172   9.748  19.928  0.00  0.00    +0.000 A 
ATOM      2  C   UNL     1       1.678   9.869  18.560  0.00  0.00    +0.000 A 
ATOM      3  C   UNL     1       2.080   8.816  17.835  0.00  0.00    +0.000 A 
ATOM      4  C   UNL     1       2.165   7.549  18.449  0.00  0.00    +0.000 A 
ATOM      5  N   UNL     1       2.593   6.405  17.972  0.00  0.00    +0.000 NA
ATOM      6  C   UNL     1       2.548   5.529  19.025  0.00  0.00    +0.000 A 
ATOM      7  C   UNL     1       2.077   6.159  20.163  0.00  0.00    +0.000 A 
ATOM      8  N   UNL     1       1.815   7.460  19.791  0.00  0.00    +0.000 N 
ATOM      9  C   UNL     1       1.303   8.533  20.528  0.00  0.00    +0.000 A 
ENDROOT
BRANCH   1  14
ATOM     10  C   UNL     1      -2.404  12.258  18.874  0.00  0.00    +0.000 C 
ATOM     11  C   UNL     1      -2.578  12.698  20.324  0.00  0.00    +0.000 C 
ATOM     12  C   UNL     1      -1.154  12.693  20.884  0.00  0.00    +0.000 C 
ATOM     13  N   UNL     1      -0.493  11.612  20.177  0.00  0.00    +0.000 N 
ATOM     14  C   UNL     1       0.569  10.899  20.713  0.00  0.00    +0.000 C 
ATOM     15  O   UNL     1       1.008  11.154  21.839  0.00  0.00    +0.000 OA
ATOM     16  C   UNL     1      -1.157  11.386  18.907  0.00  0.00    +0.000 C 
BRANCH  10  18
ATOM     17  N   UNL     1      -4.762  12.120  18.267  0.00  0.00    +0.000 N 
ATOM     18  C   UNL     1      -3.554  11.468  18.273  0.00  0.00    +0.000 C 
ATOM     19  O   UNL     1      -3.413  10.351  17.783  0.00  0.00    +0.000 OA
ATOM     20  H   UNL     1      -4.801  13.106  18.492  0.00  0.00    +0.000 HD
BRANCH  17  22
ATOM     21  C   UNL     1      -7.186  12.331  17.866  0.00  0.00    +0.000 C 
ATOM     22  C   UNL     1      -5.936  11.486  17.698  0.00  0.00    +0.000 C 
ENDBRANCH  17  22
ENDBRANCH  10  18
ENDBRANCH   1  14
BRANCH   6  23
ATOM     23  C   UNL     1       2.944   4.141  18.852  0.00  0.00    +0.000 A 
ATOM     24  C   UNL     1       2.317   3.379  17.851  0.00  0.00    +0.000 A 
ATOM     25  C   UNL     1       2.614   2.027  17.678  0.00  0.00    +0.000 A 
ATOM     26  C   UNL     1       3.555   1.418  18.503  0.00  0.00    +0.000 A 
ATOM     27  C   UNL     1       4.202   2.164  19.487  0.00  0.00    +0.000 A 
ATOM     28  C   UNL     1       3.905   3.516  19.657  0.00  0.00    +0.000 A 
ENDBRANCH   6  23
TORSDOF 4
ENDMDL
MODEL 9
REMARK VINA RESULT:      -7.7      5.589      9.014
REMARK  Name = 
REMARK  5 active torsions:
REMARK  status: ('A' for Active; 'I' for Inactive)
REMARK    1  A    between atoms: C_1  and  C_2
REMARK    2  A    between atoms: C_2  and  N_3
REMARK    3  A    between atoms: C_4  and  C_6
REMARK    4  A    between atoms: C_10  and  C_12
REMARK    5  A    between atoms: C_17  and  C_18
REMARK                            x       y       z     vdW  Elec       q    Type
REMARK                         _______ _______ _______ _____ _____    ______ ____
ROOT
ATOM      1  C   UNL     1       1.218   9.759  19.770  0.00  0.00    +0.000 A 
ATOM      2  C   UNL     1       1.789   9.843  18.424  0.00  0.00    +0.000 A 
ATOM      3  C   UNL     1       2.196   8.767  17.736  0.00  0.00    +0.000 A 
ATOM      4  C   UNL     1       2.220   7.510  18.375  0.00  0.00    +0.000 A 
ATOM      5  N   UNL     1       2.639   6.348  17.937  0.00  0.00    +0.000 NA
ATOM      6  C   UNL     1       2.525   5.492  19.001  0.00  0.00    +0.000 A 
ATOM      7  C   UNL     1       2.020   6.154  20.107  0.00  0.00    +0.000 A 
ATOM      8  N   UNL     1       1.808   7.454  19.701  0.00  0.00    +0.000 N 
ATOM      9  C   UNL     1       1.291   8.553  20.395  0.00  0.00    +0.000 A 
ENDROOT
BRANCH   1  14
ATOM     10  C   UNL     1      -2.472  12.096  18.710  0.00  0.00    +0.000 C 
ATOM     11  C   UNL     1      -2.603  12.619  20.137  0.00  0.00    +0.000 C 
ATOM     12  C   UNL     1      -1.159  12.690  20.639  0.00  0.00    +0.000 C 
ATOM     13  N   UNL     1      -0.493  11.586  19.972  0.00  0.00    +0.000 N 
ATOM     14  C   UNL     1       0.611  10.940  20.507  0.00  0.00    +0.000 C 
ATOM     15  O   UNL     1       1.085  11.276  21.597  0.00  0.00    +0.000 OA
ATOM     16  C   UNL     1      -1.198  11.263  18.746  0.00  0.00    +0.000 C 
BRANCH  10  18
ATOM     17  N   UNL     1      -4.861  11.608  18.659  0.00  0.00    +0.000 N 
ATOM     18  C   UNL     1      -3.619  11.236  18.206  0.00  0.00    +0.000 C 
ATOM     19  O   UNL     1      -3.463  10.310  17.415  0.00  0.00    +0.000 OA
ATOM     20  H   UNL     1      -4.975  12.490  19.142  0.00  0.00    +0.000 HD
BRANCH  17  22
ATOM     21  C   UNL     1      -6.882  10.407  19.403  0.00  0.00    +0.000 C 
ATOM     22  C   UNL     1      -6.044  10.887  18.231  0.00  0.00    +0.000 C 
ENDBRANCH  17  22
ENDBRANCH  10  18
ENDBRANCH   1  14
BRANCH   6  23
ATOM     23  C   UNL     1       2.892   4.092  18.870  0.00  0.00    +0.000 A 
ATOM     24  C   UNL     1       3.849   3.558  19.751  0.00  0.00    +0.000 A 
ATOM     25  C   UNL     1       4.283   2.237  19.635  0.00  0.00    +0.000 A 
ATOM     26  C   UNL     1       3.755   1.424  18.637  0.00  0.00    +0.000 A 
ATOM     27  C   UNL     1       2.789   1.931  17.767  0.00  0.00    +0.000 A 
ATOM     28  C   UNL     1       2.356   3.252  17.886  0.00  0.00    +0.000 A 
ENDBRANCH   6  23
TORSDOF 4
ENDMDL
