MODEL 1
REMARK VINA RESULT:      -8.2      0.000      0.000
REMARK  Name = 
REMARK  10 active torsions:
REMARK  status: ('A' for Active; 'I' for Inactive)
REMARK    1  A    between atoms: C_1  and  C_2
REMARK    2  A    between atoms: C_2  and  C_3
REMARK    3  A    between atoms: C_2  and  C_4
REMARK    4  A    between atoms: C_4  and  N_5
REMARK    5  A    between atoms: N_5  and  S_12
REMARK    6  A    between atoms: S_12  and  C_15
REMARK    7  A    between atoms: C_18  and  O_19
REMARK    8  A    between atoms: O_19  and  C_20
REMARK    9  A    between atoms: N_23  and  S_24
REMARK   10  A    between atoms: S_24  and  C_25
REMARK                            x       y       z     vdW  Elec       q    Type
REMARK                         _______ _______ _______ _____ _____    ______ ____
ROOT
ATOM      1  C   UNL     1       7.500   6.538  17.977  0.00  0.00    +0.000 A 
ATOM      2  C   UNL     1       6.827   7.409  17.118  0.00  0.00    +0.000 A 
ATOM      3  C   UNL     1       7.111   8.787  17.146  0.00  0.00    +0.000 A 
ATOM      4  C   UNL     1       8.065   9.309  18.027  0.00  0.00    +0.000 A 
ATOM      5  C   UNL     1       8.723   8.426  18.890  0.00  0.00    +0.000 A 
ATOM      6  C   UNL     1       8.429   7.054  18.885  0.00  0.00    +0.000 A 
ENDROOT
BRANCH   1   7
ATOM      7  S   UNL     1       7.031   4.812  18.076  0.00  0.00    +0.000 S 
ATOM      8  O   UNL     1       6.436   4.610  19.385  0.00  0.00    +0.000 OA
ATOM      9  O   UNL     1       8.200   4.037  17.701  0.00  0.00    +0.000 OA
BRANCH   7  10
ATOM     10  N   UNL     1       5.822   4.567  16.910  0.00  0.00    +0.000 N 
ATOM     11  C   UNL     1       4.504   4.498  17.429  0.00  0.00    +0.000 A 
ATOM     12  C   UNL     1       3.740   5.654  17.496  0.00  0.00    +0.000 A 
ATOM     13  C   UNL     1       2.486   5.588  18.093  0.00  0.00    +0.000 A 
ATOM     14  C   UNL     1       2.052   4.377  18.618  0.00  0.00    +0.000 A 
ATOM     15  C   UNL     1       2.884   3.274  18.496  0.00  0.00    +0.000 A 
ATOM     16  N   UNL     1       4.099   3.303  17.898  0.00  0.00    +0.000 NA
BRANCH  10  17
ATOM     17  C   UNL     1       6.139   3.756  15.714  0.00  0.00    +0.000 C 
BRANCH  17  19
ATOM     18  C   UNL     1       7.386   5.172  13.973  0.00  0.00    +0.000 C 
ATOM     19  C   UNL     1       6.030   4.617  14.430  0.00  0.00    +0.000 C 
ATOM     20  C   UNL     1       5.411   3.802  13.287  0.00  0.00    +0.000 C 
ENDBRANCH  17  19
ENDBRANCH  10  17
ENDBRANCH   7  10
ENDBRANCH   1   7
BRANCH   4  21
ATOM     21  O   UNL     1       8.422  10.633  18.166  0.00  0.00    +0.000 OA
BRANCH  21  22
ATOM     22  C   UNL     1       9.672  10.950  18.803  0.00  0.00    +0.000 C 
ATOM     23  C   UNL     1       9.459  11.983  19.918  0.00  0.00    +0.000 C 
ATOM     24  C   UNL     1       9.243  13.409  19.423  0.00  0.00    +0.000 C 
ATOM     25  N   UNL     1      10.337  13.828  18.502  0.00  0.00    +0.000 NA
ATOM     26  C   UNL     1      10.438  12.896  17.335  0.00  0.00    +0.000 C 
ATOM     27  C   UNL     1      10.694  11.463  17.789  0.00  0.00    +0.000 C 
BRANCH  25  28
ATOM     28  S   UNL     1      10.206  15.471  17.966  0.00  0.00    +0.000 S 
ATOM     29  C   UNL     1      10.715  16.405  19.399  0.00  0.00    +0.000 C 
ATOM     30  O   UNL     1      11.217  15.674  16.952  0.00  0.00    +0.000 OA
ATOM     31  O   UNL     1       8.808  15.737  17.702  0.00  0.00    +0.000 OA
ENDBRANCH  25  28
ENDBRANCH  21  22
ENDBRANCH   4  21
TORSDOF 7
ENDMDL
MODEL 2
REMARK VINA RESULT:      -8.2      0.750      1.208
REMARK  Name = 
REMARK  10 active torsions:
REMARK  status: ('A' for Active; 'I' for Inactive)
REMARK    1  A    between atoms: C_1  and  C_2
REMARK    2  A    between atoms: C_2  and  C_3
REMARK    3  A    between atoms: C_2  and  C_4
REMARK    4  A    between atoms: C_4  and  N_5
REMARK    5  A    between atoms: N_5  and  S_12
REMARK    6  A    between atoms: S_12  and  C_15
REMARK    7  A    between atoms: C_18  and  O_19
REMARK    8  A    between atoms: O_19  and  C_20
REMARK    9  A    between atoms: N_23  and  S_24
REMARK   10  A    between atoms: S_24  and  C_25
REMARK                            x       y       z     vdW  Elec       q    Type
REMARK                         _______ _______ _______ _____ _____    ______ ____
ROOT
ATOM      1  C   UNL     1       7.419   6.472  18.085  0.00  0.00    +0.000 A 
ATOM      2  C   UNL     1       8.338   6.901  19.046  0.00  0.00    +0.000 A 
ATOM      3  C   UNL     1       8.756   8.245  19.071  0.00  0.00    +0.000 A 
ATOM      4  C   UNL     1       8.265   9.171  18.144  0.00  0.00    +0.000 A 
ATOM      5  C   UNL     1       7.354   8.723  17.180  0.00  0.00    +0.000 A 
ATOM      6  C   UNL     1       6.950   7.380  17.133  0.00  0.00    +0.000 A 
ENDROOT
BRANCH   1   7
ATOM      7  S   UNL     1       7.008   4.736  17.930  0.00  0.00    +0.000 S 
ATOM      8  O   UNL     1       6.489   4.308  19.217  0.00  0.00    +0.000 OA
ATOM      9  O   UNL     1       8.179   4.074  17.383  0.00  0.00    +0.000 OA
BRANCH   7  10
ATOM     10  N   UNL     1       5.748   4.631  16.798  0.00  0.00    +0.000 N 
ATOM     11  C   UNL     1       4.446   4.721  17.351  0.00  0.00    +0.000 A 
ATOM     12  C   UNL     1       3.826   5.961  17.428  0.00  0.00    +0.000 A 
ATOM     13  C   UNL     1       2.590   6.048  18.058  0.00  0.00    +0.000 A 
ATOM     14  C   UNL     1       2.029   4.900  18.603  0.00  0.00    +0.000 A 
ATOM     15  C   UNL     1       2.720   3.705  18.468  0.00  0.00    +0.000 A 
ATOM     16  N   UNL     1       3.913   3.586  17.840  0.00  0.00    +0.000 NA
BRANCH  10  17
ATOM     17  C   UNL     1       5.935   3.782  15.600  0.00  0.00    +0.000 C 
BRANCH  17  19
ATOM     18  C   UNL     1       7.374   5.217  14.033  0.00  0.00    +0.000 C 
ATOM     19  C   UNL     1       5.977   4.652  14.319  0.00  0.00    +0.000 C 
ATOM     20  C   UNL     1       5.504   3.844  13.104  0.00  0.00    +0.000 C 
ENDBRANCH  17  19
ENDBRANCH  10  17
ENDBRANCH   7  10
ENDBRANCH   1   7
BRANCH   4  21
ATOM     21  O   UNL     1       8.604  10.503  18.049  0.00  0.00    +0.000 OA
BRANCH  21  22
ATOM     22  C   UNL     1       9.797  10.962  18.709  0.00  0.00    +0.000 C 
ATOM     23  C   UNL     1       9.439  11.854  19.906  0.00  0.00    +0.000 C 
ATOM     24  C   UNL     1       8.992  13.263  19.530  0.00  0.00    +0.000 C 
ATOM     25  N   UNL     1       9.993  13.925  18.646  0.00  0.00    +0.000 NA
ATOM     26  C   UNL     1      10.224  13.118  17.406  0.00  0.00    +0.000 C 
ATOM     27  C   UNL     1      10.710  11.712  17.740  0.00  0.00    +0.000 C 
BRANCH  25  28
ATOM     28  S   UNL     1       9.595  15.563  18.247  0.00  0.00    +0.000 S 
ATOM     29  C   UNL     1      10.778  15.966  16.973  0.00  0.00    +0.000 C 
ATOM     30  O   UNL     1       8.292  15.548  17.619  0.00  0.00    +0.000 OA
ATOM     31  O   UNL     1       9.862  16.378  19.413  0.00  0.00    +0.000 OA
ENDBRANCH  25  28
ENDBRANCH  21  22
ENDBRANCH   4  21
TORSDOF 7
ENDMDL
MODEL 3
REMARK VINA RESULT:      -7.6      5.826      7.526
REMARK  Name = 
REMARK  10 active torsions:
REMARK  status: ('A' for Active; 'I' for Inactive)
REMARK    1  A    between atoms: C_1  and  C_2
REMARK    2  A    between atoms: C_2  and  C_3
REMARK    3  A    between atoms: C_2  and  C_4
REMARK    4  A    between atoms: C_4  and  N_5
REMARK    5  A    between atoms: N_5  and  S_12
REMARK    6  A    between atoms: S_12  and  C_15
REMARK    7  A    between atoms: C_18  and  O_19
REMARK    8  A    between atoms: O_19  and  C_20
REMARK    9  A    between atoms: N_23  and  S_24
REMARK   10  A    between atoms: S_24  and  C_25
REMARK                            x       y       z     vdW  Elec       q    Type
REMARK                         _______ _______ _______ _____ _____    ______ ____
ROOT
ATOM      1  C   UNL     1       3.752   6.696  18.381  0.00  0.00    +0.000 A 
ATOM      2  C   UNL     1       3.103   6.493  19.601  0.00  0.00    +0.000 A 
ATOM      3  C   UNL     1       2.062   7.354  19.999  0.00  0.00    +0.000 A 
ATOM      4  C   UNL     1       1.661   8.423  19.188  0.00  0.00    +0.000 A 
ATOM      5  C   UNL     1       2.329   8.621  17.974  0.00  0.00    +0.000 A 
ATOM      6  C   UNL     1       3.382   7.781  17.582  0.00  0.00    +0.000 A 
ENDROOT
BRANCH   1   7
ATOM      7  S   UNL     1       5.186   5.718  17.940  0.00  0.00    +0.000 S 
ATOM      8  O   UNL     1       5.705   5.150  19.171  0.00  0.00    +0.000 OA
ATOM      9  O   UNL     1       6.044   6.571  17.136  0.00  0.00    +0.000 OA
BRANCH   7  10
ATOM     10  N   UNL     1       4.628   4.442  16.970  0.00  0.00    +0.000 N 
ATOM     11  C   UNL     1       3.608   3.653  17.560  0.00  0.00    +0.000 A 
ATOM     12  C   UNL     1       2.279   3.973  17.323  0.00  0.00    +0.000 A 
ATOM     13  C   UNL     1       1.293   3.248  17.983  0.00  0.00    +0.000 A 
ATOM     14  C   UNL     1       1.671   2.246  18.868  0.00  0.00    +0.000 A 
ATOM     15  C   UNL     1       3.025   1.994  19.032  0.00  0.00    +0.000 A 
ATOM     16  N   UNL     1       4.006   2.666  18.385  0.00  0.00    +0.000 NA
BRANCH  10  17
ATOM     17  C   UNL     1       5.578   3.775  16.054  0.00  0.00    +0.000 C 
BRANCH  17  19
ATOM     18  C   UNL     1       7.133   4.978  14.404  0.00  0.00    +0.000 C 
ATOM     19  C   UNL     1       5.692   4.560  14.723  0.00  0.00    +0.000 C 
ATOM     20  C   UNL     1       5.142   3.727  13.558  0.00  0.00    +0.000 C 
ENDBRANCH  17  19
ENDBRANCH  10  17
ENDBRANCH   7  10
ENDBRANCH   1   7
BRANCH   4  21
ATOM     21  O   UNL     1       0.675   9.344  19.467  0.00  0.00    +0.000 OA
BRANCH  21  22
ATOM     22  C   UNL     1       0.494  10.456  18.573  0.00  0.00    +0.000 C 
ATOM     23  C   UNL     1       0.896  11.768  19.259  0.00  0.00    +0.000 C 
ATOM     24  C   UNL     1      -0.123  12.291  20.266  0.00  0.00    +0.000 C 
ATOM     25  N   UNL     1      -1.476  12.399  19.652  0.00  0.00    +0.000 NA
ATOM     26  C   UNL     1      -1.925  11.074  19.117  0.00  0.00    +0.000 C 
ATOM     27  C   UNL     1      -0.950  10.535  18.076  0.00  0.00    +0.000 C 
BRANCH  25  28
ATOM     28  S   UNL     1      -2.672  13.069  20.712  0.00  0.00    +0.000 S 
ATOM     29  C   UNL     1      -4.208  12.591  19.940  0.00  0.00    +0.000 C 
ATOM     30  O   UNL     1      -2.589  12.348  21.963  0.00  0.00    +0.000 OA
ATOM     31  O   UNL     1      -2.547  14.510  20.662  0.00  0.00    +0.000 OA
ENDBRANCH  25  28
ENDBRANCH  21  22
ENDBRANCH   4  21
TORSDOF 7
ENDMDL
MODEL 4
REMARK VINA RESULT:      -7.6      5.940      7.591
REMARK  Name = 
REMARK  10 active torsions:
REMARK  status: ('A' for Active; 'I' for Inactive)
REMARK    1  A    between atoms: C_1  and  C_2
REMARK    2  A    between atoms: C_2  and  C_3
REMARK    3  A    between atoms: C_2  and  C_4
REMARK    4  A    between atoms: C_4  and  N_5
REMARK    5  A    between atoms: N_5  and  S_12
REMARK    6  A    between atoms: S_12  and  C_15
REMARK    7  A    between atoms: C_18  and  O_19
REMARK    8  A    between atoms: O_19  and  C_20
REMARK    9  A    between atoms: N_23  and  S_24
REMARK   10  A    between atoms: S_24  and  C_25
REMARK                            x       y       z     vdW  Elec       q    Type
REMARK                         _______ _______ _______ _____ _____    ______ ____
ROOT
ATOM      1  C   UNL     1       3.519   6.874  18.446  0.00  0.00    +0.000 A 
ATOM      2  C   UNL     1       2.899   6.792  19.695  0.00  0.00    +0.000 A 
ATOM      3  C   UNL     1       1.845   7.667  20.017  0.00  0.00    +0.000 A 
ATOM      4  C   UNL     1       1.400   8.629  19.103  0.00  0.00    +0.000 A 
ATOM      5  C   UNL     1       2.040   8.707  17.860  0.00  0.00    +0.000 A 
ATOM      6  C   UNL     1       3.107   7.854  17.539  0.00  0.00    +0.000 A 
ENDROOT
BRANCH   1   7
ATOM      7  S   UNL     1       4.969   5.887  18.083  0.00  0.00    +0.000 S 
ATOM      8  O   UNL     1       5.454   5.367  19.349  0.00  0.00    +0.000 OA
ATOM      9  O   UNL     1       5.847   6.712  17.273  0.00  0.00    +0.000 OA
BRANCH   7  10
ATOM     10  N   UNL     1       4.445   4.573  17.146  0.00  0.00    +0.000 N 
ATOM     11  C   UNL     1       3.414   3.798  17.737  0.00  0.00    +0.000 A 
ATOM     12  C   UNL     1       2.090   4.101  17.454  0.00  0.00    +0.000 A 
ATOM     13  C   UNL     1       1.091   3.393  18.113  0.00  0.00    +0.000 A 
ATOM     14  C   UNL     1       1.451   2.426  19.044  0.00  0.00    +0.000 A 
ATOM     15  C   UNL     1       2.802   2.190  19.253  0.00  0.00    +0.000 A 
ATOM     16  N   UNL     1       3.795   2.845  18.608  0.00  0.00    +0.000 NA
BRANCH  10  17
ATOM     17  C   UNL     1       5.422   3.879  16.280  0.00  0.00    +0.000 C 
BRANCH  17  19
ATOM     18  C   UNL     1       7.143   4.986  14.729  0.00  0.00    +0.000 C 
ATOM     19  C   UNL     1       5.659   4.682  14.976  0.00  0.00    +0.000 C 
ATOM     20  C   UNL     1       5.095   3.925  13.768  0.00  0.00    +0.000 C 
ENDBRANCH  17  19
ENDBRANCH  10  17
ENDBRANCH   7  10
ENDBRANCH   1   7
BRANCH   4  21
ATOM     21  O   UNL     1       0.397   9.553  19.300  0.00  0.00    +0.000 OA
BRANCH  21  22
ATOM     22  C   UNL     1       0.752  10.937  19.462  0.00  0.00    +0.000 C 
ATOM     23  C   UNL     1       1.009  11.255  20.940  0.00  0.00    +0.000 C 
ATOM     24  C   UNL     1      -0.253  11.383  21.787  0.00  0.00    +0.000 C 
ATOM     25  N   UNL     1      -1.205  12.358  21.185  0.00  0.00    +0.000 NA
ATOM     26  C   UNL     1      -1.568  11.955  19.789  0.00  0.00    +0.000 C 
ATOM     27  C   UNL     1      -0.334  11.854  18.900  0.00  0.00    +0.000 C 
BRANCH  25  28
ATOM     28  S   UNL     1      -2.628  12.622  22.138  0.00  0.00    +0.000 S 
ATOM     29  C   UNL     1      -2.449  14.316  22.669  0.00  0.00    +0.000 C 
ATOM     30  O   UNL     1      -3.761  12.583  21.239  0.00  0.00    +0.000 OA
ATOM     31  O   UNL     1      -2.551  11.755  23.293  0.00  0.00    +0.000 OA
ENDBRANCH  25  28
ENDBRANCH  21  22
ENDBRANCH   4  21
TORSDOF 7
ENDMDL
MODEL 5
REMARK VINA RESULT:      -7.5      6.110      9.764
REMARK  Name = 
REMARK  10 active torsions:
REMARK  status: ('A' for Active; 'I' for Inactive)
REMARK    1  A    between atoms: C_1  and  C_2
REMARK    2  A    between atoms: C_2  and  C_3
REMARK    3  A    between atoms: C_2  and  C_4
REMARK    4  A    between atoms: C_4  and  N_5
REMARK    5  A    between atoms: N_5  and  S_12
REMARK    6  A    between atoms: S_12  and  C_15
REMARK    7  A    between atoms: C_18  and  O_19
REMARK    8  A    between atoms: O_19  and  C_20
REMARK    9  A    between atoms: N_23  and  S_24
REMARK   10  A    between atoms: S_24  and  C_25
REMARK                            x       y       z     vdW  Elec       q    Type
REMARK                         _______ _______ _______ _____ _____    ______ ____
ROOT
ATOM      1  C   UNL     1       1.493   9.694  19.619  0.00  0.00    +0.000 A 
ATOM      2  C   UNL     1       1.443   8.599  20.485  0.00  0.00    +0.000 A 
ATOM      3  C   UNL     1       1.717   7.305  20.002  0.00  0.00    +0.000 A 
ATOM      4  C   UNL     1       2.041   7.091  18.657  0.00  0.00    +0.000 A 
ATOM      5  C   UNL     1       2.074   8.196  17.800  0.00  0.00    +0.000 A 
ATOM      6  C   UNL     1       1.780   9.486  18.268  0.00  0.00    +0.000 A 
ENDROOT
BRANCH   1   7
ATOM      7  S   UNL     1       0.983  11.318  20.176  0.00  0.00    +0.000 S 
ATOM      8  O   UNL     1       1.533  12.279  19.236  0.00  0.00    +0.000 OA
ATOM      9  O   UNL     1       1.343  11.414  21.580  0.00  0.00    +0.000 OA
BRANCH   7  10
ATOM     10  N   UNL     1      -0.708  11.370  20.046  0.00  0.00    +0.000 N 
ATOM     11  C   UNL     1      -1.368  11.982  21.143  0.00  0.00    +0.000 A 
ATOM     12  C   UNL     1      -1.654  13.339  21.091  0.00  0.00    +0.000 A 
ATOM     13  C   UNL     1      -2.216  13.943  22.211  0.00  0.00    +0.000 A 
ATOM     14  C   UNL     1      -2.451  13.174  23.345  0.00  0.00    +0.000 A 
ATOM     15  C   UNL     1      -2.138  11.824  23.297  0.00  0.00    +0.000 A 
ATOM     16  N   UNL     1      -1.614  11.204  22.213  0.00  0.00    +0.000 NA
BRANCH  10  17
ATOM     17  C   UNL     1      -1.404  10.269  19.347  0.00  0.00    +0.000 C 
BRANCH  17  19
ATOM     18  C   UNL     1      -1.547  12.142  17.597  0.00  0.00    +0.000 C 
ATOM     19  C   UNL     1      -2.107  10.794  18.069  0.00  0.00    +0.000 C 
ATOM     20  C   UNL     1      -1.985   9.774  16.931  0.00  0.00    +0.000 C 
ENDBRANCH  17  19
ENDBRANCH  10  17
ENDBRANCH   7  10
ENDBRANCH   1   7
BRANCH   4  21
ATOM     21  O   UNL     1       2.310   5.880  18.057  0.00  0.00    +0.000 OA
BRANCH  21  22
ATOM     22  C   UNL     1       3.086   4.907  18.777  0.00  0.00    +0.000 C 
ATOM     23  C   UNL     1       4.330   5.562  19.393  0.00  0.00    +0.000 C 
ATOM     24  C   UNL     1       5.448   5.852  18.396  0.00  0.00    +0.000 C 
ATOM     25  N   UNL     1       5.809   4.629  17.625  0.00  0.00    +0.000 NA
ATOM     26  C   UNL     1       4.615   4.082  16.905  0.00  0.00    +0.000 C 
ATOM     27  C   UNL     1       3.488   3.742  17.873  0.00  0.00    +0.000 C 
BRANCH  25  28
ATOM     28  S   UNL     1       7.133   4.859  16.532  0.00  0.00    +0.000 S 
ATOM     29  C   UNL     1       6.547   4.106  15.024  0.00  0.00    +0.000 C 
ATOM     30  O   UNL     1       7.238   6.280  16.277  0.00  0.00    +0.000 OA
ATOM     31  O   UNL     1       8.257   4.098  17.034  0.00  0.00    +0.000 OA
ENDBRANCH  25  28
ENDBRANCH  21  22
ENDBRANCH   4  21
TORSDOF 7
ENDMDL
MODEL 6
REMARK VINA RESULT:      -7.5      6.764     10.220
REMARK  Name = 
REMARK  10 active torsions:
REMARK  status: ('A' for Active; 'I' for Inactive)
REMARK    1  A    between atoms: C_1  and  C_2
REMARK    2  A    between atoms: C_2  and  C_3
REMARK    3  A    between atoms: C_2  and  C_4
REMARK    4  A    between atoms: C_4  and  N_5
REMARK    5  A    between atoms: N_5  and  S_12
REMARK    6  A    between atoms: S_12  and  C_15
REMARK    7  A    between atoms: C_18  and  O_19
REMARK    8  A    between atoms: O_19  and  C_20
REMARK    9  A    between atoms: N_23  and  S_24
REMARK   10  A    between atoms: S_24  and  C_25
REMARK                            x       y       z     vdW  Elec       q    Type
REMARK                         _______ _______ _______ _____ _____    ______ ____
ROOT
ATOM      1  C   UNL     1       0.404  10.140  20.609  0.00  0.00    +0.000 A 
ATOM      2  C   UNL     1       0.849  10.058  19.287  0.00  0.00    +0.000 A 
ATOM      3  C   UNL     1       1.593   8.942  18.861  0.00  0.00    +0.000 A 
ATOM      4  C   UNL     1       1.901   7.900  19.744  0.00  0.00    +0.000 A 
ATOM      5  C   UNL     1       1.459   8.003  21.068  0.00  0.00    +0.000 A 
ATOM      6  C   UNL     1       0.737   9.123  21.507  0.00  0.00    +0.000 A 
ENDROOT
BRANCH   1   7
ATOM      7  S   UNL     1      -0.393  11.626  21.210  0.00  0.00    +0.000 S 
ATOM      8  O   UNL     1       0.662  12.539  21.612  0.00  0.00    +0.000 OA
ATOM      9  O   UNL     1      -1.378  11.207  22.191  0.00  0.00    +0.000 OA
BRANCH   7  10
ATOM     10  N   UNL     1      -1.205  12.315  19.889  0.00  0.00    +0.000 N 
ATOM     11  C   UNL     1      -0.920  13.687  19.669  0.00  0.00    +0.000 A 
ATOM     12  C   UNL     1       0.102  14.037  18.798  0.00  0.00    +0.000 A 
ATOM     13  C   UNL     1       0.431  15.382  18.665  0.00  0.00    +0.000 A 
ATOM     14  C   UNL     1      -0.259  16.322  19.420  0.00  0.00    +0.000 A 
ATOM     15  C   UNL     1      -1.271  15.876  20.257  0.00  0.00    +0.000 A 
ATOM     16  N   UNL     1      -1.629  14.577  20.388  0.00  0.00    +0.000 NA
BRANCH  10  17
ATOM     17  C   UNL     1      -2.558  11.826  19.549  0.00  0.00    +0.000 C 
BRANCH  17  19
ATOM     18  C   UNL     1      -2.209  10.023  17.755  0.00  0.00    +0.000 C 
ATOM     19  C   UNL     1      -2.644  11.465  18.044  0.00  0.00    +0.000 C 
ATOM     20  C   UNL     1      -4.071  11.674  17.521  0.00  0.00    +0.000 C 
ENDBRANCH  17  19
ENDBRANCH  10  17
ENDBRANCH   7  10
ENDBRANCH   1   7
BRANCH   4  21
ATOM     21  O   UNL     1       2.633   6.768  19.461  0.00  0.00    +0.000 OA
BRANCH  21  22
ATOM     22  C   UNL     1       2.669   6.288  18.106  0.00  0.00    +0.000 C 
ATOM     23  C   UNL     1       3.121   4.822  18.068  0.00  0.00    +0.000 C 
ATOM     24  C   UNL     1       4.617   4.617  18.278  0.00  0.00    +0.000 C 
ATOM     25  N   UNL     1       5.410   5.449  17.330  0.00  0.00    +0.000 NA
ATOM     26  C   UNL     1       5.070   6.900  17.481  0.00  0.00    +0.000 C 
ATOM     27  C   UNL     1       3.586   7.151  17.238  0.00  0.00    +0.000 C 
BRANCH  25  28
ATOM     28  S   UNL     1       7.122   5.205  17.452  0.00  0.00    +0.000 S 
ATOM     29  C   UNL     1       7.734   6.834  17.845  0.00  0.00    +0.000 C 
ATOM     30  O   UNL     1       7.356   4.378  18.615  0.00  0.00    +0.000 OA
ATOM     31  O   UNL     1       7.606   4.822  16.143  0.00  0.00    +0.000 OA
ENDBRANCH  25  28
ENDBRANCH  21  22
ENDBRANCH   4  21
TORSDOF 7
ENDMDL
MODEL 7
REMARK VINA RESULT:      -7.5      0.973      1.159
REMARK  Name = 
REMARK  10 active torsions:
REMARK  status: ('A' for Active; 'I' for Inactive)
REMARK    1  A    between atoms: C_1  and  C_2
REMARK    2  A    between atoms: C_2  and  C_3
REMARK    3  A    between atoms: C_2  and  C_4
REMARK    4  A    between atoms: C_4  and  N_5
REMARK    5  A    between atoms: N_5  and  S_12
REMARK    6  A    between atoms: S_12  and  C_15
REMARK    7  A    between atoms: C_18  and  O_19
REMARK    8  A    between atoms: O_19  and  C_20
REMARK    9  A    between atoms: N_23  and  S_24
REMARK   10  A    between atoms: S_24  and  C_25
REMARK                            x       y       z     vdW  Elec       q    Type
REMARK                         _______ _______ _______ _____ _____    ______ ____
ROOT
ATOM      1  C   UNL     1       7.517   6.675  18.215  0.00  0.00    +0.000 A 
ATOM      2  C   UNL     1       6.867   7.524  17.316  0.00  0.00    +0.000 A 
ATOM      3  C   UNL     1       7.228   8.883  17.243  0.00  0.00    +0.000 A 
ATOM      4  C   UNL     1       8.235   9.407  18.061  0.00  0.00    +0.000 A 
ATOM      5  C   UNL     1       8.868   8.547  18.966  0.00  0.00    +0.000 A 
ATOM      6  C   UNL     1       8.499   7.196  19.062  0.00  0.00    +0.000 A 
ENDROOT
BRANCH   1   7
ATOM      7  S   UNL     1       6.957   4.989  18.443  0.00  0.00    +0.000 S 
ATOM      8  O   UNL     1       6.663   4.829  19.856  0.00  0.00    +0.000 OA
ATOM      9  O   UNL     1       7.949   4.129  17.823  0.00  0.00    +0.000 OA
BRANCH   7  10
ATOM     10  N   UNL     1       5.499   4.839  17.587  0.00  0.00    +0.000 N 
ATOM     11  C   UNL     1       4.331   4.936  18.385  0.00  0.00    +0.000 A 
ATOM     12  C   UNL     1       3.721   6.172  18.548  0.00  0.00    +0.000 A 
ATOM     13  C   UNL     1       2.633   6.268  19.408  0.00  0.00    +0.000 A 
ATOM     14  C   UNL     1       2.207   5.132  20.087  0.00  0.00    +0.000 A 
ATOM     15  C   UNL     1       2.876   3.940  19.851  0.00  0.00    +0.000 A 
ATOM     16  N   UNL     1       3.922   3.811  19.002  0.00  0.00    +0.000 NA
BRANCH  10  17
ATOM     17  C   UNL     1       5.456   3.955  16.401  0.00  0.00    +0.000 C 
BRANCH  17  19
ATOM     18  C   UNL     1       5.097   6.232  15.271  0.00  0.00    +0.000 C 
ATOM     19  C   UNL     1       5.581   4.786  15.099  0.00  0.00    +0.000 C 
ATOM     20  C   UNL     1       7.033   4.798  14.606  0.00  0.00    +0.000 C 
ENDBRANCH  17  19
ENDBRANCH  10  17
ENDBRANCH   7  10
ENDBRANCH   1   7
BRANCH   4  21
ATOM     21  O   UNL     1       8.668  10.714  18.101  0.00  0.00    +0.000 OA
BRANCH  21  22
ATOM     22  C   UNL     1       9.919  11.010  18.746  0.00  0.00    +0.000 C 
ATOM     23  C   UNL     1       9.682  11.799  20.041  0.00  0.00    +0.000 C 
ATOM     24  C   UNL     1       9.336  13.269  19.829  0.00  0.00    +0.000 C 
ATOM     25  N   UNL     1      10.352  13.940  18.969  0.00  0.00    +0.000 NA
ATOM     26  C   UNL     1      10.468  13.249  17.645  0.00  0.00    +0.000 C 
ATOM     27  C   UNL     1      10.852  11.783  17.814  0.00  0.00    +0.000 C 
BRANCH  25  28
ATOM     28  S   UNL     1      10.073  15.637  18.754  0.00  0.00    +0.000 S 
ATOM     29  C   UNL     1      11.707  16.274  18.423  0.00  0.00    +0.000 C 
ATOM     30  O   UNL     1       9.307  15.795  17.538  0.00  0.00    +0.000 OA
ATOM     31  O   UNL     1       9.606  16.169  20.016  0.00  0.00    +0.000 OA
ENDBRANCH  25  28
ENDBRANCH  21  22
ENDBRANCH   4  21
TORSDOF 7
ENDMDL
MODEL 8
REMARK VINA RESULT:      -7.4      6.030      7.799
REMARK  Name = 
REMARK  10 active torsions:
REMARK  status: ('A' for Active; 'I' for Inactive)
REMARK    1  A    between atoms: C_1  and  C_2
REMARK    2  A    between atoms: C_2  and  C_3
REMARK    3  A    between atoms: C_2  and  C_4
REMARK    4  A    between atoms: C_4  and  N_5
REMARK    5  A    between atoms: N_5  and  S_12
REMARK    6  A    between atoms: S_12  and  C_15
REMARK    7  A    between atoms: C_18  and  O_19
REMARK    8  A    between atoms: O_19  and  C_20
REMARK    9  A    between atoms: N_23  and  S_24
REMARK   10  A    between atoms: S_24  and  C_25
REMARK                            x       y       z     vdW  Elec       q    Type
REMARK                         _______ _______ _______ _____ _____    ______ ____
ROOT
ATOM      1  C   UNL     1       3.327   6.829  18.364  0.00  0.00    +0.000 A 
ATOM      2  C   UNL     1       3.074   6.400  19.669  0.00  0.00    +0.000 A 
ATOM      3  C   UNL     1       2.143   7.090  20.470  0.00  0.00    +0.000 A 
ATOM      4  C   UNL     1       1.460   8.210  19.980  0.00  0.00    +0.000 A 
ATOM      5  C   UNL     1       1.735   8.635  18.676  0.00  0.00    +0.000 A 
ATOM      6  C   UNL     1       2.678   7.967  17.879  0.00  0.00    +0.000 A 
ENDROOT
BRANCH   1   7
ATOM      7  S   UNL     1       4.628   6.071  17.394  0.00  0.00    +0.000 S 
ATOM      8  O   UNL     1       5.741   5.830  18.294  0.00  0.00    +0.000 OA
ATOM      9  O   UNL     1       4.829   6.914  16.229  0.00  0.00    +0.000 OA
BRANCH   7  10
ATOM     10  N   UNL     1       4.038   4.565  16.878  0.00  0.00    +0.000 N 
ATOM     11  C   UNL     1       3.159   3.929  17.791  0.00  0.00    +0.000 A 
ATOM     12  C   UNL     1       1.791   4.133  17.669  0.00  0.00    +0.000 A 
ATOM     13  C   UNL     1       0.949   3.579  18.627  0.00  0.00    +0.000 A 
ATOM     14  C   UNL     1       1.505   2.862  19.679  0.00  0.00    +0.000 A 
ATOM     15  C   UNL     1       2.883   2.706  19.710  0.00  0.00    +0.000 A 
ATOM     16  N   UNL     1       3.725   3.212  18.779  0.00  0.00    +0.000 NA
BRANCH  10  17
ATOM     17  C   UNL     1       4.906   3.708  16.042  0.00  0.00    +0.000 C 
BRANCH  17  19
ATOM     18  C   UNL     1       7.127   4.648  15.162  0.00  0.00    +0.000 C 
ATOM     19  C   UNL     1       5.611   4.550  14.948  0.00  0.00    +0.000 C 
ATOM     20  C   UNL     1       5.338   3.964  13.558  0.00  0.00    +0.000 C 
ENDBRANCH  17  19
ENDBRANCH  10  17
ENDBRANCH   7  10
ENDBRANCH   1   7
BRANCH   4  21
ATOM     21  O   UNL     1       0.545   8.980  20.663  0.00  0.00    +0.000 OA
BRANCH  21  22
ATOM     22  C   UNL     1       1.021   9.910  21.650  0.00  0.00    +0.000 C 
ATOM     23  C   UNL     1       0.283   9.706  22.980  0.00  0.00    +0.000 C 
ATOM     24  C   UNL     1      -1.136  10.264  23.006  0.00  0.00    +0.000 C 
ATOM     25  N   UNL     1      -1.157  11.696  22.593  0.00  0.00    +0.000 NA
ATOM     26  C   UNL     1      -0.569  11.864  21.226  0.00  0.00    +0.000 C 
ATOM     27  C   UNL     1       0.866  11.353  21.171  0.00  0.00    +0.000 C 
BRANCH  25  28
ATOM     28  S   UNL     1      -2.727  12.424  22.680  0.00  0.00    +0.000 S 
ATOM     29  C   UNL     1      -2.365  14.106  23.153  0.00  0.00    +0.000 C 
ATOM     30  O   UNL     1      -3.254  12.471  21.334  0.00  0.00    +0.000 OA
ATOM     31  O   UNL     1      -3.453  11.777  23.752  0.00  0.00    +0.000 OA
ENDBRANCH  25  28
ENDBRANCH  21  22
ENDBRANCH   4  21
TORSDOF 7
ENDMDL
MODEL 9
REMARK VINA RESULT:      -7.4      5.785      7.089
REMARK  Name = 
REMARK  10 active torsions:
REMARK  status: ('A' for Active; 'I' for Inactive)
REMARK    1  A    between atoms: C_1  and  C_2
REMARK    2  A    between atoms: C_2  and  C_3
REMARK    3  A    between atoms: C_2  and  C_4
REMARK    4  A    between atoms: C_4  and  N_5
REMARK    5  A    between atoms: N_5  and  S_12
REMARK    6  A    between atoms: S_12  and  C_15
REMARK    7  A    between atoms: C_18  and  O_19
REMARK    8  A    between atoms: O_19  and  C_20
REMARK    9  A    between atoms: N_23  and  S_24
REMARK   10  A    between atoms: S_24  and  C_25
REMARK                            x       y       z     vdW  Elec       q    Type
REMARK                         _______ _______ _______ _____ _____    ______ ____
ROOT
ATOM      1  C   UNL     1       3.549   6.868  18.385  0.00  0.00    +0.000 A 
ATOM      2  C   UNL     1       2.926   6.794  19.633  0.00  0.00    +0.000 A 
ATOM      3  C   UNL     1       1.864   7.666  19.943  0.00  0.00    +0.000 A 
ATOM      4  C   UNL     1       1.416   8.616  19.018  0.00  0.00    +0.000 A 
ATOM      5  C   UNL     1       2.060   8.686  17.777  0.00  0.00    +0.000 A 
ATOM      6  C   UNL     1       3.133   7.837  17.468  0.00  0.00    +0.000 A 
ENDROOT
BRANCH   1   7
ATOM      7  S   UNL     1       5.007   5.888  18.037  0.00  0.00    +0.000 S 
ATOM      8  O   UNL     1       5.487   5.378  19.309  0.00  0.00    +0.000 OA
ATOM      9  O   UNL     1       5.886   6.714  17.228  0.00  0.00    +0.000 OA
BRANCH   7  10
ATOM     10  N   UNL     1       4.496   4.565  17.104  0.00  0.00    +0.000 N 
ATOM     11  C   UNL     1       3.478   3.778  17.701  0.00  0.00    +0.000 A 
ATOM     12  C   UNL     1       2.149   4.063  17.422  0.00  0.00    +0.000 A 
ATOM     13  C   UNL     1       1.162   3.344  18.087  0.00  0.00    +0.000 A 
ATOM     14  C   UNL     1       1.538   2.383  19.017  0.00  0.00    +0.000 A 
ATOM     15  C   UNL     1       2.892   2.164  19.221  0.00  0.00    +0.000 A 
ATOM     16  N   UNL     1       3.875   2.832  18.571  0.00  0.00    +0.000 NA
BRANCH  10  17
ATOM     17  C   UNL     1       5.479   3.883  16.235  0.00  0.00    +0.000 C 
BRANCH  17  19
ATOM     18  C   UNL     1       7.152   5.053  14.679  0.00  0.00    +0.000 C 
ATOM     19  C   UNL     1       5.685   4.676  14.920  0.00  0.00    +0.000 C 
ATOM     20  C   UNL     1       5.170   3.871  13.720  0.00  0.00    +0.000 C 
ENDBRANCH  17  19
ENDBRANCH  10  17
ENDBRANCH   7  10
ENDBRANCH   1   7
BRANCH   4  21
ATOM     21  O   UNL     1       0.406   9.534  19.202  0.00  0.00    +0.000 OA
BRANCH  21  22
ATOM     22  C   UNL     1       0.623  10.894  18.789  0.00  0.00    +0.000 C 
ATOM     23  C   UNL     1       1.619  11.588  19.728  0.00  0.00    +0.000 C 
ATOM     24  C   UNL     1       1.036  11.993  21.078  0.00  0.00    +0.000 C 
ATOM     25  N   UNL     1      -0.199  12.809  20.905  0.00  0.00    +0.000 NA
ATOM     26  C   UNL     1      -1.225  12.061  20.112  0.00  0.00    +0.000 C 
ATOM     27  C   UNL     1      -0.692  11.672  18.738  0.00  0.00    +0.000 C 
BRANCH  25  28
ATOM     28  S   UNL     1      -0.872  13.380  22.396  0.00  0.00    +0.000 S 
ATOM     29  C   UNL     1      -2.504  13.922  21.920  0.00  0.00    +0.000 C 
ATOM     30  O   UNL     1      -1.046  12.231  23.257  0.00  0.00    +0.000 OA
ATOM     31  O   UNL     1      -0.098  14.528  22.817  0.00  0.00    +0.000 OA
ENDBRANCH  25  28
ENDBRANCH  21  22
ENDBRANCH   4  21
TORSDOF 7
ENDMDL
