MODEL 1
REMARK VINA RESULT:      -6.9      0.000      0.000
REMARK  Name = 
REMARK  5 active torsions:
REMARK  status: ('A' for Active; 'I' for Inactive)
REMARK    1  A    between atoms: C_1  and  N_2
REMARK    2  A    between atoms: N_2  and  C_3
REMARK    3  A    between atoms: C_3  and  C_4
REMARK    4  A    between atoms: N_9  and  C_10
REMARK    5  A    between atoms: C_10  and  C_11
REMARK                            x       y       z     vdW  Elec       q    Type
REMARK                         _______ _______ _______ _____ _____    ______ ____
ROOT
ATOM      1  C   UNL     1       7.313   4.969  15.087  0.00  0.00    +0.000 C 
ATOM      2  N   UNL     1       6.791   4.459  16.347  0.00  0.00    +0.000 N 
ATOM      3  C   UNL     1       5.467   4.056  16.337  0.00  0.00    +0.000 C 
ATOM      4  O   UNL     1       4.787   4.108  15.310  0.00  0.00    +0.000 OA
ATOM      5  N   UNL     1       4.953   3.599  17.512  0.00  0.00    +0.000 N 
ATOM      6  H   UNL     1       5.528   3.497  18.329  0.00  0.00    +0.000 HD
ENDROOT
BRANCH   2   7
ATOM      7  C   UNL     1       7.659   4.548  17.530  0.00  0.00    +0.000 C 
BRANCH   7   8
ATOM      8  C   UNL     1       7.487   5.823  18.353  0.00  0.00    +0.000 C 
ATOM      9  F   UNL     1       8.306   5.803  19.436  0.00  0.00    +0.000 F 
ATOM     10  F   UNL     1       7.881   6.887  17.602  0.00  0.00    +0.000 F 
ENDBRANCH   7   8
ENDBRANCH   2   7
BRANCH   5  11
ATOM     11  C   UNL     1       3.590   3.129  17.611  0.00  0.00    +0.000 C 
BRANCH  11  12
ATOM     12  C   UNL     1       2.941   3.542  18.911  0.00  0.00    +0.000 A 
ATOM     13  C   UNL     1       2.696   2.548  19.877  0.00  0.00    +0.000 A 
ATOM     14  C   UNL     1       2.096   2.866  21.091  0.00  0.00    +0.000 A 
ATOM     15  F   UNL     1       1.869   1.901  21.992  0.00  0.00    +0.000 F 
ATOM     16  C   UNL     1       1.729   4.171  21.382  0.00  0.00    +0.000 A 
ATOM     17  C   UNL     1       1.977   5.176  20.447  0.00  0.00    +0.000 A 
ATOM     18  C   UNL     1       2.587   4.866  19.223  0.00  0.00    +0.000 A 
ATOM     19 BR   UNL     1       2.913   6.312  18.033  0.00  0.00    +0.000 Br
ENDBRANCH  11  12
ENDBRANCH   5  11
TORSDOF 4
ENDMDL
MODEL 2
REMARK VINA RESULT:      -6.8      3.159      3.877
REMARK  Name = 
REMARK  5 active torsions:
REMARK  status: ('A' for Active; 'I' for Inactive)
REMARK    1  A    between atoms: C_1  and  N_2
REMARK    2  A    between atoms: N_2  and  C_3
REMARK    3  A    between atoms: C_3  and  C_4
REMARK    4  A    between atoms: N_9  and  C_10
REMARK    5  A    between atoms: C_10  and  C_11
REMARK                            x       y       z     vdW  Elec       q    Type
REMARK                         _______ _______ _______ _____ _____    ______ ____
ROOT
ATOM      1  C   UNL     1       7.770   5.243  13.270  0.00  0.00    +0.000 C 
ATOM      2  N   UNL     1       6.822   4.501  14.089  0.00  0.00    +0.000 N 
ATOM      3  C   UNL     1       6.763   4.859  15.425  0.00  0.00    +0.000 C 
ATOM      4  O   UNL     1       7.461   5.769  15.877  0.00  0.00    +0.000 OA
ATOM      5  N   UNL     1       5.900   4.162  16.213  0.00  0.00    +0.000 N 
ATOM      6  H   UNL     1       5.287   3.466  15.827  0.00  0.00    +0.000 HD
ENDROOT
BRANCH   2   7
ATOM      7  C   UNL     1       6.125   3.366  13.467  0.00  0.00    +0.000 C 
BRANCH   7   8
ATOM      8  C   UNL     1       6.183   3.341  11.941  0.00  0.00    +0.000 C 
ATOM      9  F   UNL     1       6.893   2.269  11.510  0.00  0.00    +0.000 F 
ATOM     10  F   UNL     1       4.922   3.177  11.457  0.00  0.00    +0.000 F 
ENDBRANCH   7   8
ENDBRANCH   2   7
BRANCH   5  11
ATOM     11  C   UNL     1       5.739   4.467  17.617  0.00  0.00    +0.000 C 
BRANCH  11  12
ATOM     12  C   UNL     1       4.302   4.330  18.065  0.00  0.00    +0.000 A 
ATOM     13  C   UNL     1       3.870   3.077  18.538  0.00  0.00    +0.000 A 
ATOM     14  C   UNL     1       2.558   2.889  18.958  0.00  0.00    +0.000 A 
ATOM     15  F   UNL     1       2.169   1.685  19.399  0.00  0.00    +0.000 F 
ATOM     16  C   UNL     1       1.645   3.931  18.927  0.00  0.00    +0.000 A 
ATOM     17  C   UNL     1       2.055   5.187  18.479  0.00  0.00    +0.000 A 
ATOM     18  C   UNL     1       3.377   5.389  18.059  0.00  0.00    +0.000 A 
ATOM     19 BR   UNL     1       3.845   7.144  17.499  0.00  0.00    +0.000 Br
ENDBRANCH  11  12
ENDBRANCH   5  11
TORSDOF 4
ENDMDL
MODEL 3
REMARK VINA RESULT:      -6.6      3.912      4.847
REMARK  Name = 
REMARK  5 active torsions:
REMARK  status: ('A' for Active; 'I' for Inactive)
REMARK    1  A    between atoms: C_1  and  N_2
REMARK    2  A    between atoms: N_2  and  C_3
REMARK    3  A    between atoms: C_3  and  C_4
REMARK    4  A    between atoms: N_9  and  C_10
REMARK    5  A    between atoms: C_10  and  C_11
REMARK                            x       y       z     vdW  Elec       q    Type
REMARK                         _______ _______ _______ _____ _____    ______ ____
ROOT
ATOM      1  C   UNL     1       7.332   4.738  11.786  0.00  0.00    +0.000 C 
ATOM      2  N   UNL     1       6.515   4.031  12.762  0.00  0.00    +0.000 N 
ATOM      3  C   UNL     1       6.737   4.355  14.088  0.00  0.00    +0.000 C 
ATOM      4  O   UNL     1       7.565   5.209  14.412  0.00  0.00    +0.000 OA
ATOM      5  N   UNL     1       6.000   3.687  15.018  0.00  0.00    +0.000 N 
ATOM      6  H   UNL     1       5.280   3.041  14.748  0.00  0.00    +0.000 HD
ENDROOT
BRANCH   2   7
ATOM      7  C   UNL     1       5.641   2.957  12.268  0.00  0.00    +0.000 C 
BRANCH   7   8
ATOM      8  C   UNL     1       6.271   2.060  11.206  0.00  0.00    +0.000 C 
ATOM      9  F   UNL     1       7.593   1.884  11.455  0.00  0.00    +0.000 F 
ATOM     10  F   UNL     1       5.706   0.824  11.282  0.00  0.00    +0.000 F 
ENDBRANCH   7   8
ENDBRANCH   2   7
BRANCH   5  11
ATOM     11  C   UNL     1       6.132   3.963  16.431  0.00  0.00    +0.000 C 
BRANCH  11  12
ATOM     12  C   UNL     1       4.906   4.646  16.992  0.00  0.00    +0.000 A 
ATOM     13  C   UNL     1       3.728   3.888  17.133  0.00  0.00    +0.000 A 
ATOM     14  C   UNL     1       2.567   4.464  17.637  0.00  0.00    +0.000 A 
ATOM     15  F   UNL     1       1.457   3.723  17.756  0.00  0.00    +0.000 F 
ATOM     16  C   UNL     1       2.542   5.796  18.019  0.00  0.00    +0.000 A 
ATOM     17  C   UNL     1       3.702   6.562  17.905  0.00  0.00    +0.000 A 
ATOM     18  C   UNL     1       4.879   5.990  17.403  0.00  0.00    +0.000 A 
ATOM     19 BR   UNL     1       6.414   7.109  17.321  0.00  0.00    +0.000 Br
ENDBRANCH  11  12
ENDBRANCH   5  11
TORSDOF 4
ENDMDL
MODEL 4
REMARK VINA RESULT:      -6.5      4.300      5.994
REMARK  Name = 
REMARK  5 active torsions:
REMARK  status: ('A' for Active; 'I' for Inactive)
REMARK    1  A    between atoms: C_1  and  N_2
REMARK    2  A    between atoms: N_2  and  C_3
REMARK    3  A    between atoms: C_3  and  C_4
REMARK    4  A    between atoms: N_9  and  C_10
REMARK    5  A    between atoms: C_10  and  C_11
REMARK                            x       y       z     vdW  Elec       q    Type
REMARK                         _______ _______ _______ _____ _____    ______ ____
ROOT
ATOM      1  C   UNL     1       1.012  10.476  18.861  0.00  0.00    +0.000 C 
ATOM      2  N   UNL     1       1.532   9.193  19.314  0.00  0.00    +0.000 N 
ATOM      3  C   UNL     1       2.185   8.433  18.361  0.00  0.00    +0.000 C 
ATOM      4  O   UNL     1       2.333   8.837  17.206  0.00  0.00    +0.000 OA
ATOM      5  N   UNL     1       2.657   7.219  18.758  0.00  0.00    +0.000 N 
ATOM      6  H   UNL     1       2.593   6.921  19.715  0.00  0.00    +0.000 HD
ENDROOT
BRANCH   2   7
ATOM      7  C   UNL     1       1.199   8.768  20.681  0.00  0.00    +0.000 C 
BRANCH   7   8
ATOM      8  C   UNL     1      -0.215   9.123  21.133  0.00  0.00    +0.000 C 
ATOM      9  F   UNL     1      -0.836   8.034  21.654  0.00  0.00    +0.000 F 
ATOM     10  F   UNL     1      -0.138  10.031  22.144  0.00  0.00    +0.000 F 
ENDBRANCH   7   8
ENDBRANCH   2   7
BRANCH   5  11
ATOM     11  C   UNL     1       3.378   6.352  17.853  0.00  0.00    +0.000 C 
BRANCH  11  12
ATOM     12  C   UNL     1       2.959   4.907  17.999  0.00  0.00    +0.000 A 
ATOM     13  C   UNL     1       1.825   4.619  18.781  0.00  0.00    +0.000 A 
ATOM     14  C   UNL     1       1.395   3.308  18.957  0.00  0.00    +0.000 A 
ATOM     15  F   UNL     1       0.316   3.059  19.711  0.00  0.00    +0.000 F 
ATOM     16  C   UNL     1       2.070   2.253  18.363  0.00  0.00    +0.000 A 
ATOM     17  C   UNL     1       3.187   2.516  17.569  0.00  0.00    +0.000 A 
ATOM     18  C   UNL     1       3.624   3.834  17.380  0.00  0.00    +0.000 A 
ATOM     19 BR   UNL     1       5.134   4.088  16.253  0.00  0.00    +0.000 Br
ENDBRANCH  11  12
ENDBRANCH   5  11
TORSDOF 4
ENDMDL
MODEL 5
REMARK VINA RESULT:      -6.5      2.044      2.373
REMARK  Name = 
REMARK  5 active torsions:
REMARK  status: ('A' for Active; 'I' for Inactive)
REMARK    1  A    between atoms: C_1  and  N_2
REMARK    2  A    between atoms: N_2  and  C_3
REMARK    3  A    between atoms: C_3  and  C_4
REMARK    4  A    between atoms: N_9  and  C_10
REMARK    5  A    between atoms: C_10  and  C_11
REMARK                            x       y       z     vdW  Elec       q    Type
REMARK                         _______ _______ _______ _____ _____    ______ ____
ROOT
ATOM      1  C   UNL     1       7.470   4.886  14.997  0.00  0.00    +0.000 C 
ATOM      2  N   UNL     1       6.786   4.580  16.245  0.00  0.00    +0.000 N 
ATOM      3  C   UNL     1       5.419   4.387  16.156  0.00  0.00    +0.000 C 
ATOM      4  O   UNL     1       4.829   4.450  15.076  0.00  0.00    +0.000 OA
ATOM      5  N   UNL     1       4.756   4.124  17.317  0.00  0.00    +0.000 N 
ATOM      6  H   UNL     1       5.249   4.009  18.184  0.00  0.00    +0.000 HD
ENDROOT
BRANCH   2   7
ATOM      7  C   UNL     1       7.572   4.642  17.486  0.00  0.00    +0.000 C 
BRANCH   7   8
ATOM      8  C   UNL     1       7.478   5.968  18.236  0.00  0.00    +0.000 C 
ATOM      9  F   UNL     1       8.349   5.989  19.276  0.00  0.00    +0.000 F 
ATOM     10  F   UNL     1       7.865   6.972  17.402  0.00  0.00    +0.000 F 
ENDBRANCH   7   8
ENDBRANCH   2   7
BRANCH   5  11
ATOM     11  C   UNL     1       3.332   3.880  17.338  0.00  0.00    +0.000 C 
BRANCH  11  12
ATOM     12  C   UNL     1       2.660   4.552  18.514  0.00  0.00    +0.000 A 
ATOM     13  C   UNL     1       2.817   5.942  18.664  0.00  0.00    +0.000 A 
ATOM     14  C   UNL     1       2.227   6.614  19.730  0.00  0.00    +0.000 A 
ATOM     15  F   UNL     1       2.396   7.937  19.854  0.00  0.00    +0.000 F 
ATOM     16  C   UNL     1       1.467   5.932  20.667  0.00  0.00    +0.000 A 
ATOM     17  C   UNL     1       1.283   4.557  20.529  0.00  0.00    +0.000 A 
ATOM     18  C   UNL     1       1.868   3.871  19.455  0.00  0.00    +0.000 A 
ATOM     19 BR   UNL     1       1.529   2.004  19.338  0.00  0.00    +0.000 Br
ENDBRANCH  11  12
ENDBRANCH   5  11
TORSDOF 4
ENDMDL
MODEL 6
REMARK VINA RESULT:      -6.5      2.169      2.794
REMARK  Name = 
REMARK  5 active torsions:
REMARK  status: ('A' for Active; 'I' for Inactive)
REMARK    1  A    between atoms: C_1  and  N_2
REMARK    2  A    between atoms: N_2  and  C_3
REMARK    3  A    between atoms: C_3  and  C_4
REMARK    4  A    between atoms: N_9  and  C_10
REMARK    5  A    between atoms: C_10  and  C_11
REMARK                            x       y       z     vdW  Elec       q    Type
REMARK                         _______ _______ _______ _____ _____    ______ ____
ROOT
ATOM      1  C   UNL     1       7.126   4.744  15.370  0.00  0.00    +0.000 C 
ATOM      2  N   UNL     1       6.672   4.546  16.740  0.00  0.00    +0.000 N 
ATOM      3  C   UNL     1       5.318   4.312  16.903  0.00  0.00    +0.000 C 
ATOM      4  O   UNL     1       4.555   4.256  15.937  0.00  0.00    +0.000 OA
ATOM      5  N   UNL     1       4.870   4.148  18.178  0.00  0.00    +0.000 N 
ATOM      6  H   UNL     1       5.505   4.130  18.956  0.00  0.00    +0.000 HD
ENDROOT
BRANCH   2   7
ATOM      7  C   UNL     1       7.652   4.746  17.817  0.00  0.00    +0.000 C 
BRANCH   7   8
ATOM      8  C   UNL     1       7.382   5.956  18.708  0.00  0.00    +0.000 C 
ATOM      9  F   UNL     1       7.179   5.566  19.992  0.00  0.00    +0.000 F 
ATOM     10  F   UNL     1       8.490   6.745  18.725  0.00  0.00    +0.000 F 
ENDBRANCH   7   8
ENDBRANCH   2   7
BRANCH   5  11
ATOM     11  C   UNL     1       3.480   3.874  18.464  0.00  0.00    +0.000 C 
BRANCH  11  12
ATOM     12  C   UNL     1       2.808   5.030  19.168  0.00  0.00    +0.000 A 
ATOM     13  C   UNL     1       2.887   6.305  18.578  0.00  0.00    +0.000 A 
ATOM     14  C   UNL     1       2.294   7.408  19.182  0.00  0.00    +0.000 A 
ATOM     15  F   UNL     1       2.388   8.613  18.603  0.00  0.00    +0.000 F 
ATOM     16  C   UNL     1       1.605   7.279  20.378  0.00  0.00    +0.000 A 
ATOM     17  C   UNL     1       1.499   6.022  20.973  0.00  0.00    +0.000 A 
ATOM     18  C   UNL     1       2.088   4.902  20.369  0.00  0.00    +0.000 A 
ATOM     19 BR   UNL     1       1.856   3.230  21.242  0.00  0.00    +0.000 Br
ENDBRANCH  11  12
ENDBRANCH   5  11
TORSDOF 4
ENDMDL
MODEL 7
REMARK VINA RESULT:      -6.5      3.684      4.649
REMARK  Name = 
REMARK  5 active torsions:
REMARK  status: ('A' for Active; 'I' for Inactive)
REMARK    1  A    between atoms: C_1  and  N_2
REMARK    2  A    between atoms: N_2  and  C_3
REMARK    3  A    between atoms: C_3  and  C_4
REMARK    4  A    between atoms: N_9  and  C_10
REMARK    5  A    between atoms: C_10  and  C_11
REMARK                            x       y       z     vdW  Elec       q    Type
REMARK                         _______ _______ _______ _____ _____    ______ ____
ROOT
ATOM      1  C   UNL     1       7.579   5.128  12.155  0.00  0.00    +0.000 C 
ATOM      2  N   UNL     1       6.849   4.256  13.064  0.00  0.00    +0.000 N 
ATOM      3  C   UNL     1       6.916   4.584  14.406  0.00  0.00    +0.000 C 
ATOM      4  O   UNL     1       7.542   5.572  14.795  0.00  0.00    +0.000 OA
ATOM      5  N   UNL     1       6.260   3.767  15.274  0.00  0.00    +0.000 N 
ATOM      6  H   UNL     1       5.698   3.001  14.948  0.00  0.00    +0.000 HD
ENDROOT
BRANCH   2   7
ATOM      7  C   UNL     1       6.232   3.046  12.499  0.00  0.00    +0.000 C 
BRANCH   7   8
ATOM      8  C   UNL     1       5.014   3.304  11.615  0.00  0.00    +0.000 C 
ATOM      9  F   UNL     1       4.568   2.145  11.070  0.00  0.00    +0.000 F 
ATOM     10  F   UNL     1       3.999   3.769  12.393  0.00  0.00    +0.000 F 
ENDBRANCH   7   8
ENDBRANCH   2   7
BRANCH   5  11
ATOM     11  C   UNL     1       6.242   4.028  16.696  0.00  0.00    +0.000 C 
BRANCH  11  12
ATOM     12  C   UNL     1       4.940   4.654  17.140  0.00  0.00    +0.000 A 
ATOM     13  C   UNL     1       3.801   3.831  17.223  0.00  0.00    +0.000 A 
ATOM     14  C   UNL     1       2.574   4.351  17.620  0.00  0.00    +0.000 A 
ATOM     15  F   UNL     1       1.503   3.549  17.685  0.00  0.00    +0.000 F 
ATOM     16  C   UNL     1       2.443   5.692  17.949  0.00  0.00    +0.000 A 
ATOM     17  C   UNL     1       3.562   6.523  17.892  0.00  0.00    +0.000 A 
ATOM     18  C   UNL     1       4.805   6.007  17.499  0.00  0.00    +0.000 A 
ATOM     19 BR   UNL     1       6.274   7.213  17.486  0.00  0.00    +0.000 Br
ENDBRANCH  11  12
ENDBRANCH   5  11
TORSDOF 4
ENDMDL
MODEL 8
REMARK VINA RESULT:      -6.5      3.627      4.831
REMARK  Name = 
REMARK  5 active torsions:
REMARK  status: ('A' for Active; 'I' for Inactive)
REMARK    1  A    between atoms: C_1  and  N_2
REMARK    2  A    between atoms: N_2  and  C_3
REMARK    3  A    between atoms: C_3  and  C_4
REMARK    4  A    between atoms: N_9  and  C_10
REMARK    5  A    between atoms: C_10  and  C_11
REMARK                            x       y       z     vdW  Elec       q    Type
REMARK                         _______ _______ _______ _____ _____    ______ ____
ROOT
ATOM      1  C   UNL     1       8.013   5.192  12.936  0.00  0.00    +0.000 C 
ATOM      2  N   UNL     1       6.832   4.545  13.491  0.00  0.00    +0.000 N 
ATOM      3  C   UNL     1       6.768   4.482  14.872  0.00  0.00    +0.000 C 
ATOM      4  O   UNL     1       7.652   4.969  15.580  0.00  0.00    +0.000 OA
ATOM      5  N   UNL     1       5.683   3.860  15.411  0.00  0.00    +0.000 N 
ATOM      6  H   UNL     1       4.934   3.523  14.833  0.00  0.00    +0.000 HD
ENDROOT
BRANCH   2   7
ATOM      7  C   UNL     1       5.901   3.905  12.552  0.00  0.00    +0.000 C 
BRANCH   7   8
ATOM      8  C   UNL     1       6.305   2.500  12.109  0.00  0.00    +0.000 C 
ATOM      9  F   UNL     1       5.342   1.953  11.325  0.00  0.00    +0.000 F 
ATOM     10  F   UNL     1       7.419   2.589  11.332  0.00  0.00    +0.000 F 
ENDBRANCH   7   8
ENDBRANCH   2   7
BRANCH   5  11
ATOM     11  C   UNL     1       5.500   3.758  16.841  0.00  0.00    +0.000 C 
BRANCH  11  12
ATOM     12  C   UNL     1       4.346   4.606  17.326  0.00  0.00    +0.000 A 
ATOM     13  C   UNL     1       4.491   6.005  17.297  0.00  0.00    +0.000 A 
ATOM     14  C   UNL     1       3.466   6.837  17.736  0.00  0.00    +0.000 A 
ATOM     15  F   UNL     1       3.631   8.166  17.704  0.00  0.00    +0.000 F 
ATOM     16  C   UNL     1       2.275   6.308  18.207  0.00  0.00    +0.000 A 
ATOM     17  C   UNL     1       2.101   4.924  18.229  0.00  0.00    +0.000 A 
ATOM     18  C   UNL     1       3.126   4.077  17.783  0.00  0.00    +0.000 A 
ATOM     19 BR   UNL     1       2.778   2.209  17.821  0.00  0.00    +0.000 Br
ENDBRANCH  11  12
ENDBRANCH   5  11
TORSDOF 4
ENDMDL
MODEL 9
REMARK VINA RESULT:      -6.5      3.355      4.041
REMARK  Name = 
REMARK  5 active torsions:
REMARK  status: ('A' for Active; 'I' for Inactive)
REMARK    1  A    between atoms: C_1  and  N_2
REMARK    2  A    between atoms: N_2  and  C_3
REMARK    3  A    between atoms: C_3  and  C_4
REMARK    4  A    between atoms: N_9  and  C_10
REMARK    5  A    between atoms: C_10  and  C_11
REMARK                            x       y       z     vdW  Elec       q    Type
REMARK                         _______ _______ _______ _____ _____    ______ ____
ROOT
ATOM      1  C   UNL     1       7.764   4.666  17.869  0.00  0.00    +0.000 C 
ATOM      2  N   UNL     1       6.537   5.025  17.173  0.00  0.00    +0.000 N 
ATOM      3  C   UNL     1       5.358   4.759  17.845  0.00  0.00    +0.000 C 
ATOM      4  O   UNL     1       5.359   4.267  18.976  0.00  0.00    +0.000 OA
ATOM      5  N   UNL     1       4.198   5.065  17.201  0.00  0.00    +0.000 N 
ATOM      6  H   UNL     1       4.202   5.525  16.309  0.00  0.00    +0.000 HD
ENDROOT
BRANCH   2   7
ATOM      7  C   UNL     1       6.654   5.501  15.787  0.00  0.00    +0.000 C 
BRANCH   7   8
ATOM      8  C   UNL     1       6.749   4.394  14.739  0.00  0.00    +0.000 C 
ATOM      9  F   UNL     1       5.510   3.968  14.384  0.00  0.00    +0.000 F 
ATOM     10  F   UNL     1       7.309   4.906  13.609  0.00  0.00    +0.000 F 
ENDBRANCH   7   8
ENDBRANCH   2   7
BRANCH   5  11
ATOM     11  C   UNL     1       2.908   4.852  17.819  0.00  0.00    +0.000 C 
BRANCH  11  12
ATOM     12  C   UNL     1       2.456   6.055  18.614  0.00  0.00    +0.000 A 
ATOM     13  C   UNL     1       2.360   7.293  17.950  0.00  0.00    +0.000 A 
ATOM     14  C   UNL     1       1.955   8.436  18.631  0.00  0.00    +0.000 A 
ATOM     15  F   UNL     1       1.877   9.604  17.979  0.00  0.00    +0.000 F 
ATOM     16  C   UNL     1       1.631   8.385  19.978  0.00  0.00    +0.000 A 
ATOM     17  C   UNL     1       1.701   7.166  20.652  0.00  0.00    +0.000 A 
ATOM     18  C   UNL     1       2.103   6.006  19.974  0.00  0.00    +0.000 A 
ATOM     19 BR   UNL     1       2.133   4.390  20.974  0.00  0.00    +0.000 Br
ENDBRANCH  11  12
ENDBRANCH   5  11
TORSDOF 4
ENDMDL
