MODEL 1
REMARK VINA RESULT:      -7.0      0.000      0.000
REMARK  Name = 
REMARK  10 active torsions:
REMARK  status: ('A' for Active; 'I' for Inactive)
REMARK    1  A    between atoms: C_1  and  C_2
REMARK    2  A    between atoms: C_2  and  C_4
REMARK    3  A    between atoms: C_7  and  N_8
REMARK    4  A    between atoms: C_9  and  C_11
REMARK    5  A    between atoms: C_11  and  C_12
REMARK    6  A    between atoms: C_12  and  C_13
REMARK    7  A    between atoms: C_13  and  O_15
REMARK    8  A    between atoms: O_15  and  C_16
REMARK    9  A    between atoms: C_16  and  C_17
REMARK   10  A    between atoms: C_17  and  C_20
REMARK                            x       y       z     vdW  Elec       q    Type
REMARK                         _______ _______ _______ _____ _____    ______ ____
ROOT
ATOM      1  N   UNL     1       3.282   7.147  18.113  0.00  0.00    +0.000 N 
ATOM      2  C   UNL     1       3.075   5.835  17.731  0.00  0.00    +0.000 C 
ATOM      3  O   UNL     1       2.032   5.196  17.844  0.00  0.00    +0.000 OA
ATOM      4  H   UNL     1       4.184   7.559  17.900  0.00  0.00    +0.000 HD
ENDROOT
BRANCH   1   8
ATOM      5  C   UNL     1       0.364   9.776  19.707  0.00  0.00    +0.000 A 
ATOM      6  C   UNL     1       0.945   8.807  20.524  0.00  0.00    +0.000 A 
ATOM      7  C   UNL     1       1.919   7.941  20.014  0.00  0.00    +0.000 A 
ATOM      8  C   UNL     1       2.325   8.019  18.682  0.00  0.00    +0.000 A 
ATOM      9  C   UNL     1       1.753   9.000  17.865  0.00  0.00    +0.000 A 
ATOM     10  C   UNL     1       0.776   9.874  18.374  0.00  0.00    +0.000 A 
BRANCH   5  12
ATOM     11  C   UNL     1      -1.625  11.356  19.243  0.00  0.00    +0.000 C 
ATOM     12  C   UNL     1      -0.685  10.703  20.228  0.00  0.00    +0.000 C 
ATOM     13  O   UNL     1      -0.770  10.918  21.435  0.00  0.00    +0.000 OA
ENDBRANCH   5  12
ENDBRANCH   1   8
BRANCH   2  14
ATOM     14  C   UNL     1       4.281   5.176  17.084  0.00  0.00    +0.000 C 
BRANCH  14  15
ATOM     15  C   UNL     1       4.478   3.776  17.666  0.00  0.00    +0.000 C 
BRANCH  15  16
ATOM     16  C   UNL     1       5.186   3.870  18.996  0.00  0.00    +0.000 C 
ATOM     17  O   UNL     1       6.063   4.685  19.247  0.00  0.00    +0.000 OA
BRANCH  16  18
ATOM     18  O   UNL     1       4.761   2.886  19.831  0.00  0.00    +0.000 OA
BRANCH  18  19
ATOM     19  C   UNL     1       3.365   2.534  19.727  0.00  0.00    +0.000 C 
BRANCH  19  20
ATOM     20  C   UNL     1       2.504   3.193  20.795  0.00  0.00    +0.000 C 
ATOM     21  F   UNL     1       2.744   2.641  22.015  0.00  0.00    +0.000 F 
ATOM     22  F   UNL     1       2.829   4.512  20.910  0.00  0.00    +0.000 F 
BRANCH  20  23
ATOM     23  C   UNL     1       1.029   3.062  20.444  0.00  0.00    +0.000 C 
ATOM     24  F   UNL     1       0.447   4.290  20.364  0.00  0.00    +0.000 F 
ATOM     25  F   UNL     1       0.873   2.495  19.218  0.00  0.00    +0.000 F 
ENDBRANCH  20  23
ENDBRANCH  19  20
ENDBRANCH  18  19
ENDBRANCH  16  18
ENDBRANCH  15  16
ENDBRANCH  14  15
ENDBRANCH   2  14
TORSDOF 9
ENDMDL
MODEL 2
REMARK VINA RESULT:      -6.8      2.835      4.028
REMARK  Name = 
REMARK  10 active torsions:
REMARK  status: ('A' for Active; 'I' for Inactive)
REMARK    1  A    between atoms: C_1  and  C_2
REMARK    2  A    between atoms: C_2  and  C_4
REMARK    3  A    between atoms: C_7  and  N_8
REMARK    4  A    between atoms: C_9  and  C_11
REMARK    5  A    between atoms: C_11  and  C_12
REMARK    6  A    between atoms: C_12  and  C_13
REMARK    7  A    between atoms: C_13  and  O_15
REMARK    8  A    between atoms: O_15  and  C_16
REMARK    9  A    between atoms: C_16  and  C_17
REMARK   10  A    between atoms: C_17  and  C_20
REMARK                            x       y       z     vdW  Elec       q    Type
REMARK                         _______ _______ _______ _____ _____    ______ ____
ROOT
ATOM      1  N   UNL     1       2.489   5.569  20.587  0.00  0.00    +0.000 N 
ATOM      2  C   UNL     1       1.691   4.446  20.695  0.00  0.00    +0.000 C 
ATOM      3  O   UNL     1       0.510   4.355  20.371  0.00  0.00    +0.000 OA
ATOM      4  H   UNL     1       3.467   5.474  20.841  0.00  0.00    +0.000 HD
ENDROOT
BRANCH   1   8
ATOM      5  C   UNL     1       1.357   9.381  19.117  0.00  0.00    +0.000 A 
ATOM      6  C   UNL     1       2.030   8.487  18.284  0.00  0.00    +0.000 A 
ATOM      7  C   UNL     1       2.398   7.221  18.753  0.00  0.00    +0.000 A 
ATOM      8  C   UNL     1       2.110   6.825  20.059  0.00  0.00    +0.000 A 
ATOM      9  C   UNL     1       1.423   7.715  20.891  0.00  0.00    +0.000 A 
ATOM     10  C   UNL     1       1.049   8.988  20.424  0.00  0.00    +0.000 A 
BRANCH   5  12
ATOM     11  C   UNL     1       2.053  11.751  18.367  0.00  0.00    +0.000 C 
ATOM     12  C   UNL     1       0.966  10.741  18.641  0.00  0.00    +0.000 C 
ATOM     13  O   UNL     1      -0.221  11.016  18.480  0.00  0.00    +0.000 OA
ENDBRANCH   5  12
ENDBRANCH   1   8
BRANCH   2  14
ATOM     14  C   UNL     1       2.406   3.223  21.243  0.00  0.00    +0.000 C 
BRANCH  14  15
ATOM     15  C   UNL     1       2.926   2.369  20.086  0.00  0.00    +0.000 C 
BRANCH  15  16
ATOM     16  C   UNL     1       4.430   2.475  20.008  0.00  0.00    +0.000 C 
ATOM     17  O   UNL     1       5.199   1.711  20.574  0.00  0.00    +0.000 OA
BRANCH  16  18
ATOM     18  O   UNL     1       4.792   3.570  19.289  0.00  0.00    +0.000 OA
BRANCH  18  19
ATOM     19  C   UNL     1       4.288   3.627  17.937  0.00  0.00    +0.000 C 
BRANCH  19  20
ATOM     20  C   UNL     1       5.292   4.211  16.953  0.00  0.00    +0.000 C 
ATOM     21  F   UNL     1       5.616   3.297  15.998  0.00  0.00    +0.000 F 
ATOM     22  F   UNL     1       4.740   5.266  16.290  0.00  0.00    +0.000 F 
BRANCH  20  23
ATOM     23  C   UNL     1       6.547   4.668  17.683  0.00  0.00    +0.000 C 
ATOM     24  F   UNL     1       7.648   4.467  16.908  0.00  0.00    +0.000 F 
ATOM     25  F   UNL     1       6.503   6.005  17.927  0.00  0.00    +0.000 F 
ENDBRANCH  20  23
ENDBRANCH  19  20
ENDBRANCH  18  19
ENDBRANCH  16  18
ENDBRANCH  15  16
ENDBRANCH  14  15
ENDBRANCH   2  14
TORSDOF 9
ENDMDL
MODEL 3
REMARK VINA RESULT:      -6.7      2.484      3.714
REMARK  Name = 
REMARK  10 active torsions:
REMARK  status: ('A' for Active; 'I' for Inactive)
REMARK    1  A    between atoms: C_1  and  C_2
REMARK    2  A    between atoms: C_2  and  C_4
REMARK    3  A    between atoms: C_7  and  N_8
REMARK    4  A    between atoms: C_9  and  C_11
REMARK    5  A    between atoms: C_11  and  C_12
REMARK    6  A    between atoms: C_12  and  C_13
REMARK    7  A    between atoms: C_13  and  O_15
REMARK    8  A    between atoms: O_15  and  C_16
REMARK    9  A    between atoms: C_16  and  C_17
REMARK   10  A    between atoms: C_17  and  C_20
REMARK                            x       y       z     vdW  Elec       q    Type
REMARK                         _______ _______ _______ _____ _____    ______ ____
ROOT
ATOM      1  N   UNL     1       2.287   5.923  20.841  0.00  0.00    +0.000 N 
ATOM      2  C   UNL     1       1.613   4.719  20.752  0.00  0.00    +0.000 C 
ATOM      3  O   UNL     1       0.508   4.537  20.249  0.00  0.00    +0.000 OA
ATOM      4  H   UNL     1       3.223   5.906  21.232  0.00  0.00    +0.000 HD
ENDROOT
BRANCH   1   8
ATOM      5  C   UNL     1       0.964   9.711  19.473  0.00  0.00    +0.000 A 
ATOM      6  C   UNL     1       1.783   8.927  18.661  0.00  0.00    +0.000 A 
ATOM      7  C   UNL     1       2.216   7.668  19.096  0.00  0.00    +0.000 A 
ATOM      8  C   UNL     1       1.849   7.173  20.346  0.00  0.00    +0.000 A 
ATOM      9  C   UNL     1       1.017   7.953  21.156  0.00  0.00    +0.000 A 
ATOM     10  C   UNL     1       0.577   9.216  20.723  0.00  0.00    +0.000 A 
BRANCH   5  12
ATOM     11  C   UNL     1      -0.959  11.410  19.198  0.00  0.00    +0.000 C 
ATOM     12  C   UNL     1       0.500  11.060  19.035  0.00  0.00    +0.000 C 
ATOM     13  O   UNL     1       1.302  11.859  18.556  0.00  0.00    +0.000 OA
ENDBRANCH   5  12
ENDBRANCH   1   8
BRANCH   2  14
ATOM     14  C   UNL     1       2.374   3.534  21.319  0.00  0.00    +0.000 C 
BRANCH  14  15
ATOM     15  C   UNL     1       2.834   2.624  20.179  0.00  0.00    +0.000 C 
BRANCH  15  16
ATOM     16  C   UNL     1       4.317   2.798  19.953  0.00  0.00    +0.000 C 
ATOM     17  O   UNL     1       5.152   1.940  20.206  0.00  0.00    +0.000 OA
BRANCH  16  18
ATOM     18  O   UNL     1       4.586   4.051  19.504  0.00  0.00    +0.000 OA
BRANCH  18  19
ATOM     19  C   UNL     1       5.292   4.129  18.247  0.00  0.00    +0.000 C 
BRANCH  19  20
ATOM     20  C   UNL     1       4.427   4.659  17.111  0.00  0.00    +0.000 C 
ATOM     21  F   UNL     1       4.217   3.694  16.176  0.00  0.00    +0.000 F 
ATOM     22  F   UNL     1       3.194   5.000  17.581  0.00  0.00    +0.000 F 
BRANCH  20  23
ATOM     23  C   UNL     1       5.081   5.874  16.468  0.00  0.00    +0.000 C 
ATOM     24  F   UNL     1       5.151   5.718  15.118  0.00  0.00    +0.000 F 
ATOM     25  F   UNL     1       4.333   6.991  16.675  0.00  0.00    +0.000 F 
ENDBRANCH  20  23
ENDBRANCH  19  20
ENDBRANCH  18  19
ENDBRANCH  16  18
ENDBRANCH  15  16
ENDBRANCH  14  15
ENDBRANCH   2  14
TORSDOF 9
ENDMDL
MODEL 4
REMARK VINA RESULT:      -6.7      4.341      7.297
REMARK  Name = 
REMARK  10 active torsions:
REMARK  status: ('A' for Active; 'I' for Inactive)
REMARK    1  A    between atoms: C_1  and  C_2
REMARK    2  A    between atoms: C_2  and  C_4
REMARK    3  A    between atoms: C_7  and  N_8
REMARK    4  A    between atoms: C_9  and  C_11
REMARK    5  A    between atoms: C_11  and  C_12
REMARK    6  A    between atoms: C_12  and  C_13
REMARK    7  A    between atoms: C_13  and  O_15
REMARK    8  A    between atoms: O_15  and  C_16
REMARK    9  A    between atoms: C_16  and  C_17
REMARK   10  A    between atoms: C_17  and  C_20
REMARK                            x       y       z     vdW  Elec       q    Type
REMARK                         _______ _______ _______ _____ _____    ______ ____
ROOT
ATOM      1  N   UNL     1       7.541   5.612  15.721  0.00  0.00    +0.000 N 
ATOM      2  C   UNL     1       6.915   6.592  16.468  0.00  0.00    +0.000 C 
ATOM      3  O   UNL     1       5.773   7.014  16.309  0.00  0.00    +0.000 OA
ATOM      4  H   UNL     1       8.470   5.325  16.011  0.00  0.00    +0.000 HD
ENDROOT
BRANCH   1   8
ATOM      5  C   UNL     1       5.747   3.438  12.555  0.00  0.00    +0.000 A 
ATOM      6  C   UNL     1       6.914   4.165  12.323  0.00  0.00    +0.000 A 
ATOM      7  C   UNL     1       7.524   4.876  13.364  0.00  0.00    +0.000 A 
ATOM      8  C   UNL     1       6.980   4.884  14.647  0.00  0.00    +0.000 A 
ATOM      9  C   UNL     1       5.815   4.144  14.883  0.00  0.00    +0.000 A 
ATOM     10  C   UNL     1       5.201   3.425  13.843  0.00  0.00    +0.000 A 
BRANCH   5  12
ATOM     11  C   UNL     1       3.816   3.255  10.851  0.00  0.00    +0.000 C 
ATOM     12  C   UNL     1       5.073   2.682  11.458  0.00  0.00    +0.000 C 
ATOM     13  O   UNL     1       5.546   1.616  11.068  0.00  0.00    +0.000 OA
ENDBRANCH   5  12
ENDBRANCH   1   8
BRANCH   2  14
ATOM     14  C   UNL     1       7.758   7.145  17.604  0.00  0.00    +0.000 C 
BRANCH  14  15
ATOM     15  C   UNL     1       7.347   6.483  18.919  0.00  0.00    +0.000 C 
BRANCH  15  16
ATOM     16  C   UNL     1       7.361   4.981  18.762  0.00  0.00    +0.000 C 
ATOM     17  O   UNL     1       8.235   4.364  18.169  0.00  0.00    +0.000 OA
BRANCH  16  18
ATOM     18  O   UNL     1       6.240   4.436  19.304  0.00  0.00    +0.000 OA
BRANCH  18  19
ATOM     19  C   UNL     1       5.037   5.225  19.183  0.00  0.00    +0.000 C 
BRANCH  19  20
ATOM     20  C   UNL     1       3.939   4.518  18.402  0.00  0.00    +0.000 C 
ATOM     21  F   UNL     1       3.499   5.298  17.378  0.00  0.00    +0.000 F 
ATOM     22  F   UNL     1       4.429   3.384  17.825  0.00  0.00    +0.000 F 
BRANCH  20  23
ATOM     23  C   UNL     1       2.779   4.160  19.320  0.00  0.00    +0.000 C 
ATOM     24  F   UNL     1       2.007   3.190  18.757  0.00  0.00    +0.000 F 
ATOM     25  F   UNL     1       3.234   3.640  20.492  0.00  0.00    +0.000 F 
ENDBRANCH  20  23
ENDBRANCH  19  20
ENDBRANCH  18  19
ENDBRANCH  16  18
ENDBRANCH  15  16
ENDBRANCH  14  15
ENDBRANCH   2  14
TORSDOF 9
ENDMDL
MODEL 5
REMARK VINA RESULT:      -6.7      2.899      4.042
REMARK  Name = 
REMARK  10 active torsions:
REMARK  status: ('A' for Active; 'I' for Inactive)
REMARK    1  A    between atoms: C_1  and  C_2
REMARK    2  A    between atoms: C_2  and  C_4
REMARK    3  A    between atoms: C_7  and  N_8
REMARK    4  A    between atoms: C_9  and  C_11
REMARK    5  A    between atoms: C_11  and  C_12
REMARK    6  A    between atoms: C_12  and  C_13
REMARK    7  A    between atoms: C_13  and  O_15
REMARK    8  A    between atoms: O_15  and  C_16
REMARK    9  A    between atoms: C_16  and  C_17
REMARK   10  A    between atoms: C_17  and  C_20
REMARK                            x       y       z     vdW  Elec       q    Type
REMARK                         _______ _______ _______ _____ _____    ______ ____
ROOT
ATOM      1  N   UNL     1       2.890   5.558  20.047  0.00  0.00    +0.000 N 
ATOM      2  C   UNL     1       2.181   4.387  20.238  0.00  0.00    +0.000 C 
ATOM      3  O   UNL     1       0.966   4.243  20.133  0.00  0.00    +0.000 OA
ATOM      4  H   UNL     1       3.902   5.507  20.110  0.00  0.00    +0.000 HD
ENDROOT
BRANCH   1   8
ATOM      5  C   UNL     1       1.309   9.356  19.024  0.00  0.00    +0.000 A 
ATOM      6  C   UNL     1       1.969   8.596  18.059  0.00  0.00    +0.000 A 
ATOM      7  C   UNL     1       2.484   7.335  18.380  0.00  0.00    +0.000 A 
ATOM      8  C   UNL     1       2.359   6.812  19.667  0.00  0.00    +0.000 A 
ATOM      9  C   UNL     1       1.685   7.568  20.633  0.00  0.00    +0.000 A 
ATOM     10  C   UNL     1       1.163   8.834  20.314  0.00  0.00    +0.000 A 
BRANCH   5  12
ATOM     11  C   UNL     1      -0.733  10.868  18.564  0.00  0.00    +0.000 C 
ATOM     12  C   UNL     1       0.762  10.708  18.707  0.00  0.00    +0.000 C 
ATOM     13  O   UNL     1       1.524  11.662  18.570  0.00  0.00    +0.000 OA
ENDBRANCH   5  12
ENDBRANCH   1   8
BRANCH   2  14
ATOM     14  C   UNL     1       3.044   3.184  20.577  0.00  0.00    +0.000 C 
BRANCH  14  15
ATOM     15  C   UNL     1       4.275   3.161  19.671  0.00  0.00    +0.000 C 
BRANCH  15  16
ATOM     16  C   UNL     1       3.855   2.916  18.242  0.00  0.00    +0.000 C 
ATOM     17  O   UNL     1       3.433   1.844  17.828  0.00  0.00    +0.000 OA
BRANCH  16  18
ATOM     18  O   UNL     1       4.079   4.021  17.484  0.00  0.00    +0.000 OA
BRANCH  18  19
ATOM     19  C   UNL     1       5.055   3.871  16.430  0.00  0.00    +0.000 C 
BRANCH  19  20
ATOM     20  C   UNL     1       6.332   4.658  16.686  0.00  0.00    +0.000 C 
ATOM     21  F   UNL     1       6.856   4.342  17.901  0.00  0.00    +0.000 F 
ATOM     22  F   UNL     1       7.283   4.321  15.769  0.00  0.00    +0.000 F 
BRANCH  20  23
ATOM     23  C   UNL     1       6.059   6.154  16.610  0.00  0.00    +0.000 C 
ATOM     24  F   UNL     1       5.014   6.405  15.774  0.00  0.00    +0.000 F 
ATOM     25  F   UNL     1       5.688   6.639  17.825  0.00  0.00    +0.000 F 
ENDBRANCH  20  23
ENDBRANCH  19  20
ENDBRANCH  18  19
ENDBRANCH  16  18
ENDBRANCH  15  16
ENDBRANCH  14  15
ENDBRANCH   2  14
TORSDOF 9
ENDMDL
MODEL 6
REMARK VINA RESULT:      -6.7      1.519      2.028
REMARK  Name = 
REMARK  10 active torsions:
REMARK  status: ('A' for Active; 'I' for Inactive)
REMARK    1  A    between atoms: C_1  and  C_2
REMARK    2  A    between atoms: C_2  and  C_4
REMARK    3  A    between atoms: C_7  and  N_8
REMARK    4  A    between atoms: C_9  and  C_11
REMARK    5  A    between atoms: C_11  and  C_12
REMARK    6  A    between atoms: C_12  and  C_13
REMARK    7  A    between atoms: C_13  and  O_15
REMARK    8  A    between atoms: O_15  and  C_16
REMARK    9  A    between atoms: C_16  and  C_17
REMARK   10  A    between atoms: C_17  and  C_20
REMARK                            x       y       z     vdW  Elec       q    Type
REMARK                         _______ _______ _______ _____ _____    ______ ____
ROOT
ATOM      1  N   UNL     1       3.088   6.253  17.823  0.00  0.00    +0.000 N 
ATOM      2  C   UNL     1       4.356   6.303  17.275  0.00  0.00    +0.000 C 
ATOM      3  O   UNL     1       5.101   7.279  17.245  0.00  0.00    +0.000 OA
ATOM      4  H   UNL     1       2.616   5.355  17.825  0.00  0.00    +0.000 HD
ENDROOT
BRANCH   1   8
ATOM      5  C   UNL     1       1.118   9.377  19.903  0.00  0.00    +0.000 A 
ATOM      6  C   UNL     1       1.361   9.499  18.535  0.00  0.00    +0.000 A 
ATOM      7  C   UNL     1       1.999   8.469  17.834  0.00  0.00    +0.000 A 
ATOM      8  C   UNL     1       2.413   7.306  18.481  0.00  0.00    +0.000 A 
ATOM      9  C   UNL     1       2.157   7.176  19.851  0.00  0.00    +0.000 A 
ATOM     10  C   UNL     1       1.513   8.206  20.560  0.00  0.00    +0.000 A 
BRANCH   5  12
ATOM     11  C   UNL     1      -0.827  11.060  20.126  0.00  0.00    +0.000 C 
ATOM     12  C   UNL     1       0.449  10.467  20.673  0.00  0.00    +0.000 C 
ATOM     13  O   UNL     1       0.938  10.861  21.730  0.00  0.00    +0.000 OA
ENDBRANCH   5  12
ENDBRANCH   1   8
BRANCH   2  14
ATOM     14  C   UNL     1       4.838   4.985  16.694  0.00  0.00    +0.000 C 
BRANCH  14  15
ATOM     15  C   UNL     1       6.099   4.529  17.428  0.00  0.00    +0.000 C 
BRANCH  15  16
ATOM     16  C   UNL     1       5.796   4.340  18.895  0.00  0.00    +0.000 C 
ATOM     17  O   UNL     1       6.233   5.061  19.782  0.00  0.00    +0.000 OA
BRANCH  16  18
ATOM     18  O   UNL     1       5.040   3.227  19.084  0.00  0.00    +0.000 OA
BRANCH  18  19
ATOM     19  C   UNL     1       3.804   3.424  19.805  0.00  0.00    +0.000 C 
BRANCH  19  20
ATOM     20  C   UNL     1       2.707   2.460  19.377  0.00  0.00    +0.000 C 
ATOM     21  F   UNL     1       3.240   1.349  18.801  0.00  0.00    +0.000 F 
ATOM     22  F   UNL     1       2.016   2.021  20.467  0.00  0.00    +0.000 F 
BRANCH  20  23
ATOM     23  C   UNL     1       1.750   3.141  18.409  0.00  0.00    +0.000 C 
ATOM     24  F   UNL     1       2.202   3.022  17.130  0.00  0.00    +0.000 F 
ATOM     25  F   UNL     1       0.531   2.537  18.429  0.00  0.00    +0.000 F 
ENDBRANCH  20  23
ENDBRANCH  19  20
ENDBRANCH  18  19
ENDBRANCH  16  18
ENDBRANCH  15  16
ENDBRANCH  14  15
ENDBRANCH   2  14
TORSDOF 9
ENDMDL
MODEL 7
REMARK VINA RESULT:      -6.7      3.137      6.091
REMARK  Name = 
REMARK  10 active torsions:
REMARK  status: ('A' for Active; 'I' for Inactive)
REMARK    1  A    between atoms: C_1  and  C_2
REMARK    2  A    between atoms: C_2  and  C_4
REMARK    3  A    between atoms: C_7  and  N_8
REMARK    4  A    between atoms: C_9  and  C_11
REMARK    5  A    between atoms: C_11  and  C_12
REMARK    6  A    between atoms: C_12  and  C_13
REMARK    7  A    between atoms: C_13  and  O_15
REMARK    8  A    between atoms: O_15  and  C_16
REMARK    9  A    between atoms: C_16  and  C_17
REMARK   10  A    between atoms: C_17  and  C_20
REMARK                            x       y       z     vdW  Elec       q    Type
REMARK                         _______ _______ _______ _____ _____    ______ ____
ROOT
ATOM      1  N   UNL     1       4.213   5.704  18.764  0.00  0.00    +0.000 N 
ATOM      2  C   UNL     1       2.990   6.327  18.922  0.00  0.00    +0.000 C 
ATOM      3  O   UNL     1       2.325   6.867  18.041  0.00  0.00    +0.000 OA
ATOM      4  H   UNL     1       4.614   5.249  19.577  0.00  0.00    +0.000 HD
ENDROOT
BRANCH   1   8
ATOM      5  C   UNL     1       6.456   5.224  15.198  0.00  0.00    +0.000 A 
ATOM      6  C   UNL     1       5.178   4.672  15.295  0.00  0.00    +0.000 A 
ATOM      7  C   UNL     1       4.422   4.835  16.462  0.00  0.00    +0.000 A 
ATOM      8  C   UNL     1       4.926   5.541  17.554  0.00  0.00    +0.000 A 
ATOM      9  C   UNL     1       6.201   6.107  17.453  0.00  0.00    +0.000 A 
ATOM     10  C   UNL     1       6.964   5.949  16.282  0.00  0.00    +0.000 A 
BRANCH   5  12
ATOM     11  C   UNL     1       6.825   4.071  12.918  0.00  0.00    +0.000 C 
ATOM     12  C   UNL     1       7.284   5.054  13.968  0.00  0.00    +0.000 C 
ATOM     13  O   UNL     1       8.315   5.709  13.827  0.00  0.00    +0.000 OA
ENDBRANCH   5  12
ENDBRANCH   1   8
BRANCH   2  14
ATOM     14  C   UNL     1       2.445   6.283  20.339  0.00  0.00    +0.000 C 
BRANCH  14  15
ATOM     15  C   UNL     1       1.546   5.058  20.507  0.00  0.00    +0.000 C 
BRANCH  15  16
ATOM     16  C   UNL     1       2.322   3.940  21.160  0.00  0.00    +0.000 C 
ATOM     17  O   UNL     1       2.063   3.483  22.266  0.00  0.00    +0.000 OA
BRANCH  16  18
ATOM     18  O   UNL     1       3.374   3.574  20.383  0.00  0.00    +0.000 OA
BRANCH  18  19
ATOM     19  C   UNL     1       3.498   2.160  20.119  0.00  0.00    +0.000 C 
BRANCH  19  20
ATOM     20  C   UNL     1       3.481   1.828  18.634  0.00  0.00    +0.000 C 
ATOM     21  F   UNL     1       4.407   2.567  17.966  0.00  0.00    +0.000 F 
ATOM     22  F   UNL     1       3.830   0.525  18.440  0.00  0.00    +0.000 F 
BRANCH  20  23
ATOM     23  C   UNL     1       2.097   2.077  18.050  0.00  0.00    +0.000 C 
ATOM     24  F   UNL     1       1.137   1.850  18.988  0.00  0.00    +0.000 F 
ATOM     25  F   UNL     1       1.956   3.378  17.680  0.00  0.00    +0.000 F 
ENDBRANCH  20  23
ENDBRANCH  19  20
ENDBRANCH  18  19
ENDBRANCH  16  18
ENDBRANCH  15  16
ENDBRANCH  14  15
ENDBRANCH   2  14
TORSDOF 9
ENDMDL
MODEL 8
REMARK VINA RESULT:      -6.6      2.920      3.972
REMARK  Name = 
REMARK  10 active torsions:
REMARK  status: ('A' for Active; 'I' for Inactive)
REMARK    1  A    between atoms: C_1  and  C_2
REMARK    2  A    between atoms: C_2  and  C_4
REMARK    3  A    between atoms: C_7  and  N_8
REMARK    4  A    between atoms: C_9  and  C_11
REMARK    5  A    between atoms: C_11  and  C_12
REMARK    6  A    between atoms: C_12  and  C_13
REMARK    7  A    between atoms: C_13  and  O_15
REMARK    8  A    between atoms: O_15  and  C_16
REMARK    9  A    between atoms: C_16  and  C_17
REMARK   10  A    between atoms: C_17  and  C_20
REMARK                            x       y       z     vdW  Elec       q    Type
REMARK                         _______ _______ _______ _____ _____    ______ ____
ROOT
ATOM      1  N   UNL     1       2.648   5.623  20.467  0.00  0.00    +0.000 N 
ATOM      2  C   UNL     1       1.903   4.461  20.542  0.00  0.00    +0.000 C 
ATOM      3  O   UNL     1       0.701   4.347  20.317  0.00  0.00    +0.000 OA
ATOM      4  H   UNL     1       3.647   5.548  20.624  0.00  0.00    +0.000 HD
ENDROOT
BRANCH   1   8
ATOM      5  C   UNL     1       1.237   9.419  19.212  0.00  0.00    +0.000 A 
ATOM      6  C   UNL     1       0.978   8.976  20.509  0.00  0.00    +0.000 A 
ATOM      7  C   UNL     1       1.450   7.730  20.940  0.00  0.00    +0.000 A 
ATOM      8  C   UNL     1       2.178   6.902  20.087  0.00  0.00    +0.000 A 
ATOM      9  C   UNL     1       2.450   7.350  18.790  0.00  0.00    +0.000 A 
ATOM     10  C   UNL     1       1.981   8.602  18.353  0.00  0.00    +0.000 A 
BRANCH   5  12
ATOM     11  C   UNL     1       1.707  11.888  18.623  0.00  0.00    +0.000 C 
ATOM     12  C   UNL     1       0.734  10.738  18.727  0.00  0.00    +0.000 C 
ATOM     13  O   UNL     1      -0.449  10.869  18.421  0.00  0.00    +0.000 OA
ENDBRANCH   5  12
ENDBRANCH   1   8
BRANCH   2  14
ATOM     14  C   UNL     1       2.707   3.228  20.914  0.00  0.00    +0.000 C 
BRANCH  14  15
ATOM     15  C   UNL     1       3.071   2.450  19.650  0.00  0.00    +0.000 C 
BRANCH  15  16
ATOM     16  C   UNL     1       4.249   3.104  18.968  0.00  0.00    +0.000 C 
ATOM     17  O   UNL     1       5.205   3.582  19.564  0.00  0.00    +0.000 OA
BRANCH  16  18
ATOM     18  O   UNL     1       4.056   3.147  17.624  0.00  0.00    +0.000 OA
BRANCH  18  19
ATOM     19  C   UNL     1       4.091   4.461  17.026  0.00  0.00    +0.000 C 
BRANCH  19  20
ATOM     20  C   UNL     1       5.283   4.661  16.101  0.00  0.00    +0.000 C 
ATOM     21  F   UNL     1       6.382   4.024  16.587  0.00  0.00    +0.000 F 
ATOM     22  F   UNL     1       5.032   4.100  14.884  0.00  0.00    +0.000 F 
BRANCH  20  23
ATOM     23  C   UNL     1       5.576   6.145  15.926  0.00  0.00    +0.000 C 
ATOM     24  F   UNL     1       4.519   6.892  16.348  0.00  0.00    +0.000 F 
ATOM     25  F   UNL     1       6.630   6.523  16.697  0.00  0.00    +0.000 F 
ENDBRANCH  20  23
ENDBRANCH  19  20
ENDBRANCH  18  19
ENDBRANCH  16  18
ENDBRANCH  15  16
ENDBRANCH  14  15
ENDBRANCH   2  14
TORSDOF 9
ENDMDL
MODEL 9
REMARK VINA RESULT:      -6.6      3.075      4.142
REMARK  Name = 
REMARK  10 active torsions:
REMARK  status: ('A' for Active; 'I' for Inactive)
REMARK    1  A    between atoms: C_1  and  C_2
REMARK    2  A    between atoms: C_2  and  C_4
REMARK    3  A    between atoms: C_7  and  N_8
REMARK    4  A    between atoms: C_9  and  C_11
REMARK    5  A    between atoms: C_11  and  C_12
REMARK    6  A    between atoms: C_12  and  C_13
REMARK    7  A    between atoms: C_13  and  O_15
REMARK    8  A    between atoms: O_15  and  C_16
REMARK    9  A    between atoms: C_16  and  C_17
REMARK   10  A    between atoms: C_17  and  C_20
REMARK                            x       y       z     vdW  Elec       q    Type
REMARK                         _______ _______ _______ _____ _____    ______ ____
ROOT
ATOM      1  N   UNL     1       2.768   5.401  20.308  0.00  0.00    +0.000 N 
ATOM      2  C   UNL     1       2.044   4.224  20.297  0.00  0.00    +0.000 C 
ATOM      3  O   UNL     1       0.860   4.097  19.996  0.00  0.00    +0.000 OA
ATOM      4  H   UNL     1       3.758   5.338  20.521  0.00  0.00    +0.000 HD
ENDROOT
BRANCH   1   8
ATOM      5  C   UNL     1       1.345   9.211  19.111  0.00  0.00    +0.000 A 
ATOM      6  C   UNL     1       1.127   8.766  20.415  0.00  0.00    +0.000 A 
ATOM      7  C   UNL     1       1.603   7.516  20.826  0.00  0.00    +0.000 A 
ATOM      8  C   UNL     1       2.296   6.684  19.948  0.00  0.00    +0.000 A 
ATOM      9  C   UNL     1       2.527   7.135  18.643  0.00  0.00    +0.000 A 
ATOM     10  C   UNL     1       2.054   8.391  18.226  0.00  0.00    +0.000 A 
BRANCH   5  12
ATOM     11  C   UNL     1      -0.644  10.693  18.394  0.00  0.00    +0.000 C 
ATOM     12  C   UNL     1       0.836  10.535  18.647  0.00  0.00    +0.000 C 
ATOM     13  O   UNL     1       1.618  11.469  18.482  0.00  0.00    +0.000 OA
ENDBRANCH   5  12
ENDBRANCH   1   8
BRANCH   2  14
ATOM     14  C   UNL     1       2.850   2.992  20.671  0.00  0.00    +0.000 C 
BRANCH  14  15
ATOM     15  C   UNL     1       4.091   2.900  19.783  0.00  0.00    +0.000 C 
BRANCH  15  16
ATOM     16  C   UNL     1       3.686   2.535  18.375  0.00  0.00    +0.000 C 
ATOM     17  O   UNL     1       2.942   1.605  18.096  0.00  0.00    +0.000 OA
BRANCH  16  18
ATOM     18  O   UNL     1       4.318   3.336  17.477  0.00  0.00    +0.000 OA
BRANCH  18  19
ATOM     19  C   UNL     1       5.226   4.311  18.035  0.00  0.00    +0.000 C 
BRANCH  19  20
ATOM     20  C   UNL     1       6.024   5.055  16.974  0.00  0.00    +0.000 C 
ATOM     21  F   UNL     1       7.069   4.299  16.541  0.00  0.00    +0.000 F 
ATOM     22  F   UNL     1       5.248   5.285  15.878  0.00  0.00    +0.000 F 
BRANCH  20  23
ATOM     23  C   UNL     1       6.533   6.380  17.524  0.00  0.00    +0.000 C 
ATOM     24  F   UNL     1       7.691   6.739  16.905  0.00  0.00    +0.000 F 
ATOM     25  F   UNL     1       5.648   7.380  17.268  0.00  0.00    +0.000 F 
ENDBRANCH  20  23
ENDBRANCH  19  20
ENDBRANCH  18  19
ENDBRANCH  16  18
ENDBRANCH  15  16
ENDBRANCH  14  15
ENDBRANCH   2  14
TORSDOF 9
ENDMDL
