MODEL 1
REMARK VINA RESULT:      -7.5      0.000      0.000
REMARK  Name = 
REMARK  8 active torsions:
REMARK  status: ('A' for Active; 'I' for Inactive)
REMARK    1  A    between atoms: C_1  and  O_2
REMARK    2  A    between atoms: O_2  and  C_3
REMARK    3  A    between atoms: C_9  and  C_10
REMARK    4  A    between atoms: C_11  and  C_12
REMARK    5  A    between atoms: C_18  and  C_19
REMARK    6  A    between atoms: C_19  and  O_20
REMARK    7  A    between atoms: C_19  and  C_21
REMARK    8  A    between atoms: C_21  and  N_22
REMARK                            x       y       z     vdW  Elec       q    Type
REMARK                         _______ _______ _______ _____ _____    ______ ____
ROOT
ATOM      1  C   UNL     1       1.746   3.413  19.495  0.00  0.00    +0.000 A 
ATOM      2  C   UNL     1       1.315   2.325  18.723  0.00  0.00    +0.000 A 
ATOM      3  C   UNL     1       2.141   1.779  17.748  0.00  0.00    +0.000 A 
ATOM      4  C   UNL     1       3.417   2.295  17.570  0.00  0.00    +0.000 A 
ATOM      5  C   UNL     1       3.836   3.424  18.292  0.00  0.00    +0.000 A 
ATOM      6  C   UNL     1       2.950   4.073  19.183  0.00  0.00    +0.000 A 
ATOM      7  C   UNL     1       3.369   5.429  19.771  0.00  0.00    +0.000 C 
ATOM      8  C   UNL     1       4.538   6.055  18.927  0.00  0.00    +0.000 C 
ATOM      9  O   UNL     1       5.593   5.072  18.851  0.00  0.00    +0.000 OA
ATOM     10  C   UNL     1       5.243   3.933  18.063  0.00  0.00    +0.000 C 
ENDROOT
BRANCH   1  12
ATOM     11  C   UNL     1       1.267   3.092  21.764  0.00  0.00    +0.000 C 
ATOM     12  O   UNL     1       1.015   3.847  20.574  0.00  0.00    +0.000 OA
ENDBRANCH   1  12
BRANCH   7  13
ATOM     13  C   UNL     1       2.245   6.434  19.905  0.00  0.00    +0.000 C 
ATOM     14  C   UNL     1       2.135   7.358  20.883  0.00  0.00    +0.000 C 
BRANCH  14  15
ATOM     15  C   UNL     1       1.149   8.459  20.862  0.00  0.00    +0.000 A 
ATOM     16  C   UNL     1       0.866   9.201  19.708  0.00  0.00    +0.000 A 
ATOM     17  C   UNL     1      -0.028  10.276  19.739  0.00  0.00    +0.000 A 
ATOM     18  C   UNL     1      -0.672  10.616  20.924  0.00  0.00    +0.000 A 
ATOM     19  C   UNL     1      -0.421   9.881  22.079  0.00  0.00    +0.000 A 
ATOM     20  C   UNL     1       0.481   8.807  22.052  0.00  0.00    +0.000 A 
ENDBRANCH  14  15
ENDBRANCH   7  13
BRANCH   8  21
ATOM     21  C   UNL     1       4.258   6.691  17.510  0.00  0.00    +0.000 C 
BRANCH  21  22
ATOM     22  O   UNL     1       3.403   7.848  17.564  0.00  0.00    +0.000 OA
ATOM     23  H   UNL     1       2.498   7.569  17.347  0.00  0.00    +0.000 HD
ENDBRANCH  21  22
BRANCH  21  24
ATOM     24  C   UNL     1       5.503   7.049  16.678  0.00  0.00    +0.000 C 
BRANCH  24  25
ATOM     25  N   UNL     1       5.486   6.344  15.371  0.00  0.00    +0.000 NA
ATOM     26  N   UNL     1       6.541   5.746  15.090  0.00  0.00    +0.000 NA
ATOM     27  N   UNL     1       7.502   5.189  14.848  0.00  0.00    +0.000 NA
ENDBRANCH  24  25
ENDBRANCH  21  24
ENDBRANCH   8  21
TORSDOF 7
ENDMDL
MODEL 2
REMARK VINA RESULT:      -7.3      3.459      7.364
REMARK  Name = 
REMARK  8 active torsions:
REMARK  status: ('A' for Active; 'I' for Inactive)
REMARK    1  A    between atoms: C_1  and  O_2
REMARK    2  A    between atoms: O_2  and  C_3
REMARK    3  A    between atoms: C_9  and  C_10
REMARK    4  A    between atoms: C_11  and  C_12
REMARK    5  A    between atoms: C_18  and  C_19
REMARK    6  A    between atoms: C_19  and  O_20
REMARK    7  A    between atoms: C_19  and  C_21
REMARK    8  A    between atoms: C_21  and  N_22
REMARK                            x       y       z     vdW  Elec       q    Type
REMARK                         _______ _______ _______ _____ _____    ______ ____
ROOT
ATOM      1  C   UNL     1       4.736   6.930  17.421  0.00  0.00    +0.000 A 
ATOM      2  C   UNL     1       3.704   7.874  17.343  0.00  0.00    +0.000 A 
ATOM      3  C   UNL     1       2.591   7.774  18.168  0.00  0.00    +0.000 A 
ATOM      4  C   UNL     1       2.527   6.749  19.103  0.00  0.00    +0.000 A 
ATOM      5  C   UNL     1       3.523   5.762  19.147  0.00  0.00    +0.000 A 
ATOM      6  C   UNL     1       4.587   5.776  18.215  0.00  0.00    +0.000 A 
ATOM      7  C   UNL     1       5.519   4.557  18.151  0.00  0.00    +0.000 C 
ATOM      8  C   UNL     1       4.850   3.319  18.850  0.00  0.00    +0.000 C 
ATOM      9  O   UNL     1       4.470   3.726  20.182  0.00  0.00    +0.000 OA
ATOM     10  C   UNL     1       3.404   4.677  20.196  0.00  0.00    +0.000 C 
ENDROOT
BRANCH   1  12
ATOM     11  C   UNL     1       6.933   7.732  17.536  0.00  0.00    +0.000 C 
ATOM     12  O   UNL     1       5.915   7.115  16.740  0.00  0.00    +0.000 OA
ENDBRANCH   1  12
BRANCH   7  13
ATOM     13  C   UNL     1       5.963   4.174  16.756  0.00  0.00    +0.000 C 
ATOM     14  C   UNL     1       5.257   4.385  15.624  0.00  0.00    +0.000 C 
BRANCH  14  15
ATOM     15  C   UNL     1       5.811   4.200  14.267  0.00  0.00    +0.000 A 
ATOM     16  C   UNL     1       5.209   3.374  13.309  0.00  0.00    +0.000 A 
ATOM     17  C   UNL     1       5.794   3.174  12.054  0.00  0.00    +0.000 A 
ATOM     18  C   UNL     1       6.985   3.813  11.727  0.00  0.00    +0.000 A 
ATOM     19  C   UNL     1       7.592   4.653  12.657  0.00  0.00    +0.000 A 
ATOM     20  C   UNL     1       7.011   4.849  13.918  0.00  0.00    +0.000 A 
ENDBRANCH  14  15
ENDBRANCH   7  13
BRANCH   8  21
ATOM     21  C   UNL     1       3.678   2.532  18.146  0.00  0.00    +0.000 C 
BRANCH  21  22
ATOM     22  O   UNL     1       4.128   1.384  17.402  0.00  0.00    +0.000 OA
ATOM     23  H   UNL     1       3.774   1.447  16.499  0.00  0.00    +0.000 HD
ENDBRANCH  21  22
BRANCH  21  24
ATOM     24  C   UNL     1       2.522   2.089  19.061  0.00  0.00    +0.000 C 
BRANCH  24  25
ATOM     25  N   UNL     1       1.213   2.271  18.385  0.00  0.00    +0.000 NA
ATOM     26  N   UNL     1       1.100   3.336  17.748  0.00  0.00    +0.000 NA
ATOM     27  N   UNL     1       1.012   4.302  17.156  0.00  0.00    +0.000 NA
ENDBRANCH  24  25
ENDBRANCH  21  24
ENDBRANCH   8  21
TORSDOF 7
ENDMDL
MODEL 3
REMARK VINA RESULT:      -7.3      0.758      1.245
REMARK  Name = 
REMARK  8 active torsions:
REMARK  status: ('A' for Active; 'I' for Inactive)
REMARK    1  A    between atoms: C_1  and  O_2
REMARK    2  A    between atoms: O_2  and  C_3
REMARK    3  A    between atoms: C_9  and  C_10
REMARK    4  A    between atoms: C_11  and  C_12
REMARK    5  A    between atoms: C_18  and  C_19
REMARK    6  A    between atoms: C_19  and  O_20
REMARK    7  A    between atoms: C_19  and  C_21
REMARK    8  A    between atoms: C_21  and  N_22
REMARK                            x       y       z     vdW  Elec       q    Type
REMARK                         _______ _______ _______ _____ _____    ______ ____
ROOT
ATOM      1  C   UNL     1       1.962   3.577  19.153  0.00  0.00    +0.000 A 
ATOM      2  C   UNL     1       1.577   2.482  18.367  0.00  0.00    +0.000 A 
ATOM      3  C   UNL     1       2.510   1.808  17.590  0.00  0.00    +0.000 A 
ATOM      4  C   UNL     1       3.841   2.201  17.629  0.00  0.00    +0.000 A 
ATOM      5  C   UNL     1       4.227   3.334  18.362  0.00  0.00    +0.000 A 
ATOM      6  C   UNL     1       3.260   4.111  19.041  0.00  0.00    +0.000 A 
ATOM      7  C   UNL     1       3.693   5.462  19.632  0.00  0.00    +0.000 C 
ATOM      8  C   UNL     1       5.049   5.931  18.993  0.00  0.00    +0.000 C 
ATOM      9  O   UNL     1       6.002   4.858  19.162  0.00  0.00    +0.000 OA
ATOM     10  C   UNL     1       5.694   3.705  18.376  0.00  0.00    +0.000 C 
ENDROOT
BRANCH   1  12
ATOM     11  C   UNL     1       1.112   3.493  21.334  0.00  0.00    +0.000 C 
ATOM     12  O   UNL     1       1.092   4.139  20.055  0.00  0.00    +0.000 OA
ENDBRANCH   1  12
BRANCH   7  13
ATOM     13  C   UNL     1       2.664   6.565  19.507  0.00  0.00    +0.000 C 
ATOM     14  C   UNL     1       2.127   7.254  20.536  0.00  0.00    +0.000 C 
BRANCH  14  15
ATOM     15  C   UNL     1       1.296   8.464  20.367  0.00  0.00    +0.000 A 
ATOM     16  C   UNL     1       0.443   8.944  21.369  0.00  0.00    +0.000 A 
ATOM     17  C   UNL     1      -0.376  10.057  21.151  0.00  0.00    +0.000 A 
ATOM     18  C   UNL     1      -0.341  10.724  19.931  0.00  0.00    +0.000 A 
ATOM     19  C   UNL     1       0.513  10.276  18.927  0.00  0.00    +0.000 A 
ATOM     20  C   UNL     1       1.329   9.155  19.140  0.00  0.00    +0.000 A 
ENDBRANCH  14  15
ENDBRANCH   7  13
BRANCH   8  21
ATOM     21  C   UNL     1       5.093   6.496  17.521  0.00  0.00    +0.000 C 
BRANCH  21  22
ATOM     22  O   UNL     1       3.900   7.210  17.149  0.00  0.00    +0.000 OA
ATOM     23  H   UNL     1       3.310   6.596  16.680  0.00  0.00    +0.000 HD
ENDBRANCH  21  22
BRANCH  21  24
ATOM     24  C   UNL     1       6.308   7.377  17.176  0.00  0.00    +0.000 C 
BRANCH  24  25
ATOM     25  N   UNL     1       7.494   6.541  16.861  0.00  0.00    +0.000 NA
ATOM     26  N   UNL     1       7.395   5.871  15.816  0.00  0.00    +0.000 NA
ATOM     27  N   UNL     1       7.302   5.276  14.852  0.00  0.00    +0.000 NA
ENDBRANCH  24  25
ENDBRANCH  21  24
ENDBRANCH   8  21
TORSDOF 7
ENDMDL
MODEL 4
REMARK VINA RESULT:      -6.8      5.543      9.163
REMARK  Name = 
REMARK  8 active torsions:
REMARK  status: ('A' for Active; 'I' for Inactive)
REMARK    1  A    between atoms: C_1  and  O_2
REMARK    2  A    between atoms: O_2  and  C_3
REMARK    3  A    between atoms: C_9  and  C_10
REMARK    4  A    between atoms: C_11  and  C_12
REMARK    5  A    between atoms: C_18  and  C_19
REMARK    6  A    between atoms: C_19  and  O_20
REMARK    7  A    between atoms: C_19  and  C_21
REMARK    8  A    between atoms: C_21  and  N_22
REMARK                            x       y       z     vdW  Elec       q    Type
REMARK                         _______ _______ _______ _____ _____    ______ ____
ROOT
ATOM      1  C   UNL     1      -2.785  10.639  17.617  0.00  0.00    +0.000 A 
ATOM      2  C   UNL     1      -4.176  10.476  17.687  0.00  0.00    +0.000 A 
ATOM      3  C   UNL     1      -4.931  11.228  18.578  0.00  0.00    +0.000 A 
ATOM      4  C   UNL     1      -4.301  12.175  19.373  0.00  0.00    +0.000 A 
ATOM      5  C   UNL     1      -2.904  12.303  19.358  0.00  0.00    +0.000 A 
ATOM      6  C   UNL     1      -2.115  11.443  18.559  0.00  0.00    +0.000 A 
ATOM      7  C   UNL     1      -0.591  11.463  18.749  0.00  0.00    +0.000 C 
ATOM      8  C   UNL     1      -0.218  12.140  20.117  0.00  0.00    +0.000 C 
ATOM      9  O   UNL     1      -0.853  13.437  20.147  0.00  0.00    +0.000 OA
ATOM     10  C   UNL     1      -2.277  13.362  20.239  0.00  0.00    +0.000 C 
ENDROOT
BRANCH   1  12
ATOM     11  C   UNL     1      -2.705  10.059  15.350  0.00  0.00    +0.000 C 
ATOM     12  O   UNL     1      -2.053  10.034  16.625  0.00  0.00    +0.000 OA
ENDBRANCH   1  12
BRANCH   7  13
ATOM     13  C   UNL     1       0.076  10.108  18.654  0.00  0.00    +0.000 C 
ATOM     14  C   UNL     1       1.400   9.896  18.504  0.00  0.00    +0.000 C 
BRANCH  14  15
ATOM     15  C   UNL     1       2.038   8.569  18.634  0.00  0.00    +0.000 A 
ATOM     16  C   UNL     1       2.849   8.017  17.635  0.00  0.00    +0.000 A 
ATOM     17  C   UNL     1       3.387   6.732  17.766  0.00  0.00    +0.000 A 
ATOM     18  C   UNL     1       3.138   5.983  18.911  0.00  0.00    +0.000 A 
ATOM     19  C   UNL     1       2.350   6.519  19.926  0.00  0.00    +0.000 A 
ATOM     20  C   UNL     1       1.803   7.804  19.793  0.00  0.00    +0.000 A 
ENDBRANCH  14  15
ENDBRANCH   7  13
BRANCH   8  21
ATOM     21  C   UNL     1      -0.434  11.375  21.480  0.00  0.00    +0.000 C 
BRANCH  21  22
ATOM     22  O   UNL     1       0.751  10.710  21.955  0.00  0.00    +0.000 OA
ATOM     23  H   UNL     1       0.762  10.762  22.925  0.00  0.00    +0.000 HD
ENDBRANCH  21  22
BRANCH  21  24
ATOM     24  C   UNL     1      -1.014  12.212  22.635  0.00  0.00    +0.000 C 
BRANCH  24  25
ATOM     25  N   UNL     1      -2.033  11.439  23.389  0.00  0.00    +0.000 NA
ATOM     26  N   UNL     1      -3.173  11.941  23.385  0.00  0.00    +0.000 NA
ATOM     27  N   UNL     1      -4.214  12.397  23.362  0.00  0.00    +0.000 NA
ENDBRANCH  24  25
ENDBRANCH  21  24
ENDBRANCH   8  21
TORSDOF 7
ENDMDL
MODEL 5
REMARK VINA RESULT:      -6.8      3.796      7.551
REMARK  Name = 
REMARK  8 active torsions:
REMARK  status: ('A' for Active; 'I' for Inactive)
REMARK    1  A    between atoms: C_1  and  O_2
REMARK    2  A    between atoms: O_2  and  C_3
REMARK    3  A    between atoms: C_9  and  C_10
REMARK    4  A    between atoms: C_11  and  C_12
REMARK    5  A    between atoms: C_18  and  C_19
REMARK    6  A    between atoms: C_19  and  O_20
REMARK    7  A    between atoms: C_19  and  C_21
REMARK    8  A    between atoms: C_21  and  N_22
REMARK                            x       y       z     vdW  Elec       q    Type
REMARK                         _______ _______ _______ _____ _____    ______ ____
ROOT
ATOM      1  C   UNL     1       4.884   7.043  17.315  0.00  0.00    +0.000 A 
ATOM      2  C   UNL     1       3.937   8.070  17.212  0.00  0.00    +0.000 A 
ATOM      3  C   UNL     1       2.771   8.035  17.968  0.00  0.00    +0.000 A 
ATOM      4  C   UNL     1       2.570   6.990  18.859  0.00  0.00    +0.000 A 
ATOM      5  C   UNL     1       3.480   5.923  18.924  0.00  0.00    +0.000 A 
ATOM      6  C   UNL     1       4.595   5.881  18.056  0.00  0.00    +0.000 A 
ATOM      7  C   UNL     1       5.430   4.592  18.002  0.00  0.00    +0.000 C 
ATOM      8  C   UNL     1       4.624   3.391  18.616  0.00  0.00    +0.000 C 
ATOM      9  O   UNL     1       4.198   3.785  19.938  0.00  0.00    +0.000 OA
ATOM     10  C   UNL     1       3.212   4.820  19.925  0.00  0.00    +0.000 C 
ENDROOT
BRANCH   1  12
ATOM     11  C   UNL     1       7.102   7.754  17.553  0.00  0.00    +0.000 C 
ATOM     12  O   UNL     1       6.113   7.153  16.711  0.00  0.00    +0.000 OA
ENDBRANCH   1  12
BRANCH   7  13
ATOM     13  C   UNL     1       5.925   4.218  16.622  0.00  0.00    +0.000 C 
ATOM     14  C   UNL     1       5.240   4.389  15.472  0.00  0.00    +0.000 C 
BRANCH  14  15
ATOM     15  C   UNL     1       5.836   4.218  14.130  0.00  0.00    +0.000 A 
ATOM     16  C   UNL     1       5.285   3.372  13.159  0.00  0.00    +0.000 A 
ATOM     17  C   UNL     1       5.909   3.187  11.921  0.00  0.00    +0.000 A 
ATOM     18  C   UNL     1       7.088   3.862  11.624  0.00  0.00    +0.000 A 
ATOM     19  C   UNL     1       7.644   4.723  12.566  0.00  0.00    +0.000 A 
ATOM     20  C   UNL     1       7.023   4.904  13.811  0.00  0.00    +0.000 A 
ENDBRANCH  14  15
ENDBRANCH   7  13
BRANCH   8  21
ATOM     21  C   UNL     1       3.437   2.725  17.817  0.00  0.00    +0.000 C 
BRANCH  21  22
ATOM     22  O   UNL     1       3.191   1.358  18.197  0.00  0.00    +0.000 OA
ATOM     23  H   UNL     1       3.803   0.788  17.702  0.00  0.00    +0.000 HD
ENDBRANCH  21  22
BRANCH  21  24
ATOM     24  C   UNL     1       2.098   3.483  17.849  0.00  0.00    +0.000 C 
BRANCH  24  25
ATOM     25  N   UNL     1       1.018   2.626  18.401  0.00  0.00    +0.000 NA
ATOM     26  N   UNL     1       0.946   2.619  19.645  0.00  0.00    +0.000 NA
ATOM     27  N   UNL     1       0.876   2.631  20.779  0.00  0.00    +0.000 NA
ENDBRANCH  24  25
ENDBRANCH  21  24
ENDBRANCH   8  21
TORSDOF 7
ENDMDL
MODEL 6
REMARK VINA RESULT:      -6.8      1.204      1.544
REMARK  Name = 
REMARK  8 active torsions:
REMARK  status: ('A' for Active; 'I' for Inactive)
REMARK    1  A    between atoms: C_1  and  O_2
REMARK    2  A    between atoms: O_2  and  C_3
REMARK    3  A    between atoms: C_9  and  C_10
REMARK    4  A    between atoms: C_11  and  C_12
REMARK    5  A    between atoms: C_18  and  C_19
REMARK    6  A    between atoms: C_19  and  O_20
REMARK    7  A    between atoms: C_19  and  C_21
REMARK    8  A    between atoms: C_21  and  N_22
REMARK                            x       y       z     vdW  Elec       q    Type
REMARK                         _______ _______ _______ _____ _____    ______ ____
ROOT
ATOM      1  C   UNL     1       1.867   3.383  19.423  0.00  0.00    +0.000 A 
ATOM      2  C   UNL     1       1.440   2.279  18.672  0.00  0.00    +0.000 A 
ATOM      3  C   UNL     1       2.306   1.647  17.789  0.00  0.00    +0.000 A 
ATOM      4  C   UNL     1       3.616   2.094  17.684  0.00  0.00    +0.000 A 
ATOM      5  C   UNL     1       4.037   3.236  18.381  0.00  0.00    +0.000 A 
ATOM      6  C   UNL     1       3.122   3.970  19.172  0.00  0.00    +0.000 A 
ATOM      7  C   UNL     1       3.565   5.333  19.726  0.00  0.00    +0.000 C 
ATOM      8  C   UNL     1       4.822   5.860  18.944  0.00  0.00    +0.000 C 
ATOM      9  O   UNL     1       5.829   4.826  18.995  0.00  0.00    +0.000 OA
ATOM     10  C   UNL     1       5.481   3.667  18.236  0.00  0.00    +0.000 C 
ENDROOT
BRANCH   1  12
ATOM     11  C   UNL     1       1.142   3.147  21.637  0.00  0.00    +0.000 C 
ATOM     12  O   UNL     1       1.082   3.904  20.422  0.00  0.00    +0.000 OA
ENDBRANCH   1  12
BRANCH   7  13
ATOM     13  C   UNL     1       2.486   6.394  19.728  0.00  0.00    +0.000 C 
ATOM     14  C   UNL     1       2.151   7.167  20.783  0.00  0.00    +0.000 C 
BRANCH  14  15
ATOM     15  C   UNL     1       1.250   8.335  20.690  0.00  0.00    +0.000 A 
ATOM     16  C   UNL     1       0.438   8.752  21.752  0.00  0.00    +0.000 A 
ATOM     17  C   UNL     1      -0.448   9.825  21.608  0.00  0.00    +0.000 A 
ATOM     18  C   UNL     1      -0.522  10.515  20.402  0.00  0.00    +0.000 A 
ATOM     19  C   UNL     1       0.290  10.130  19.339  0.00  0.00    +0.000 A 
ATOM     20  C   UNL     1       1.173   9.049  19.479  0.00  0.00    +0.000 A 
ENDBRANCH  14  15
ENDBRANCH   7  13
BRANCH   8  21
ATOM     21  C   UNL     1       4.678   6.436  17.483  0.00  0.00    +0.000 C 
BRANCH  21  22
ATOM     22  O   UNL     1       4.221   7.801  17.451  0.00  0.00    +0.000 OA
ATOM     23  H   UNL     1       4.037   8.040  16.527  0.00  0.00    +0.000 HD
ENDBRANCH  21  22
BRANCH  21  24
ATOM     24  C   UNL     1       5.929   6.326  16.592  0.00  0.00    +0.000 C 
BRANCH  24  25
ATOM     25  N   UNL     1       6.789   7.527  16.736  0.00  0.00    +0.000 NA
ATOM     26  N   UNL     1       7.582   7.487  17.696  0.00  0.00    +0.000 NA
ATOM     27  N   UNL     1       8.314   7.434  18.564  0.00  0.00    +0.000 NA
ENDBRANCH  24  25
ENDBRANCH  21  24
ENDBRANCH   8  21
TORSDOF 7
ENDMDL
MODEL 7
REMARK VINA RESULT:      -6.7      3.197      5.046
REMARK  Name = 
REMARK  8 active torsions:
REMARK  status: ('A' for Active; 'I' for Inactive)
REMARK    1  A    between atoms: C_1  and  O_2
REMARK    2  A    between atoms: O_2  and  C_3
REMARK    3  A    between atoms: C_9  and  C_10
REMARK    4  A    between atoms: C_11  and  C_12
REMARK    5  A    between atoms: C_18  and  C_19
REMARK    6  A    between atoms: C_19  and  O_20
REMARK    7  A    between atoms: C_19  and  C_21
REMARK    8  A    between atoms: C_21  and  N_22
REMARK                            x       y       z     vdW  Elec       q    Type
REMARK                         _______ _______ _______ _____ _____    ______ ____
ROOT
ATOM      1  C   UNL     1       6.675   6.986  17.850  0.00  0.00    +0.000 A 
ATOM      2  C   UNL     1       7.906   6.636  18.421  0.00  0.00    +0.000 A 
ATOM      3  C   UNL     1       8.243   5.302  18.610  0.00  0.00    +0.000 A 
ATOM      4  C   UNL     1       7.366   4.312  18.189  0.00  0.00    +0.000 A 
ATOM      5  C   UNL     1       6.105   4.649  17.675  0.00  0.00    +0.000 A 
ATOM      6  C   UNL     1       5.696   6.002  17.612  0.00  0.00    +0.000 A 
ATOM      7  C   UNL     1       4.231   6.307  17.263  0.00  0.00    +0.000 C 
ATOM      8  C   UNL     1       3.343   5.026  17.461  0.00  0.00    +0.000 C 
ATOM      9  O   UNL     1       3.942   3.960  16.694  0.00  0.00    +0.000 OA
ATOM     10  C   UNL     1       5.197   3.526  17.222  0.00  0.00    +0.000 C 
ENDROOT
BRANCH   1  12
ATOM     11  C   UNL     1       7.548   9.142  17.585  0.00  0.00    +0.000 C 
ATOM     12  O   UNL     1       6.404   8.286  17.498  0.00  0.00    +0.000 OA
ENDBRANCH   1  12
BRANCH   7  13
ATOM     13  C   UNL     1       3.628   7.466  18.026  0.00  0.00    +0.000 C 
ATOM     14  C   UNL     1       2.427   8.028  17.774  0.00  0.00    +0.000 C 
BRANCH  14  15
ATOM     15  C   UNL     1       1.777   9.008  18.670  0.00  0.00    +0.000 A 
ATOM     16  C   UNL     1       1.518  10.330  18.287  0.00  0.00    +0.000 A 
ATOM     17  C   UNL     1       0.956  11.247  19.182  0.00  0.00    +0.000 A 
ATOM     18  C   UNL     1       0.624  10.851  20.473  0.00  0.00    +0.000 A 
ATOM     19  C   UNL     1       0.855   9.536  20.870  0.00  0.00    +0.000 A 
ATOM     20  C   UNL     1       1.425   8.618  19.976  0.00  0.00    +0.000 A 
ENDBRANCH  14  15
ENDBRANCH   7  13
BRANCH   8  21
ATOM     21  C   UNL     1       2.954   4.530  18.907  0.00  0.00    +0.000 C 
BRANCH  21  22
ATOM     22  O   UNL     1       3.413   5.407  19.953  0.00  0.00    +0.000 OA
ATOM     23  H   UNL     1       3.009   6.280  19.820  0.00  0.00    +0.000 HD
ENDBRANCH  21  22
BRANCH  21  24
ATOM     24  C   UNL     1       1.459   4.244  19.140  0.00  0.00    +0.000 C 
BRANCH  24  25
ATOM     25  N   UNL     1       1.104   4.416  20.571  0.00  0.00    +0.000 NA
ATOM     26  N   UNL     1       1.555   3.535  21.328  0.00  0.00    +0.000 NA
ATOM     27  N   UNL     1       1.985   2.737  22.013  0.00  0.00    +0.000 NA
ENDBRANCH  24  25
ENDBRANCH  21  24
ENDBRANCH   8  21
TORSDOF 7
ENDMDL
MODEL 8
REMARK VINA RESULT:      -6.7      1.217      1.485
REMARK  Name = 
REMARK  8 active torsions:
REMARK  status: ('A' for Active; 'I' for Inactive)
REMARK    1  A    between atoms: C_1  and  O_2
REMARK    2  A    between atoms: O_2  and  C_3
REMARK    3  A    between atoms: C_9  and  C_10
REMARK    4  A    between atoms: C_11  and  C_12
REMARK    5  A    between atoms: C_18  and  C_19
REMARK    6  A    between atoms: C_19  and  O_20
REMARK    7  A    between atoms: C_19  and  C_21
REMARK    8  A    between atoms: C_21  and  N_22
REMARK                            x       y       z     vdW  Elec       q    Type
REMARK                         _______ _______ _______ _____ _____    ______ ____
ROOT
ATOM      1  C   UNL     1       2.023   3.825  19.580  0.00  0.00    +0.000 A 
ATOM      2  C   UNL     1       1.076   2.909  19.102  0.00  0.00    +0.000 A 
ATOM      3  C   UNL     1       1.393   2.042  18.064  0.00  0.00    +0.000 A 
ATOM      4  C   UNL     1       2.673   2.061  17.529  0.00  0.00    +0.000 A 
ATOM      5  C   UNL     1       3.610   3.015  17.955  0.00  0.00    +0.000 A 
ATOM      6  C   UNL     1       3.249   3.994  18.910  0.00  0.00    +0.000 A 
ATOM      7  C   UNL     1       4.225   5.152  19.172  0.00  0.00    +0.000 C 
ATOM      8  C   UNL     1       5.268   5.266  18.003  0.00  0.00    +0.000 C 
ATOM      9  O   UNL     1       5.888   3.971  17.847  0.00  0.00    +0.000 OA
ATOM     10  C   UNL     1       4.993   2.978  17.342  0.00  0.00    +0.000 C 
ENDROOT
BRANCH   1  12
ATOM     11  C   UNL     1       2.158   3.881  21.917  0.00  0.00    +0.000 C 
ATOM     12  O   UNL     1       1.783   4.561  20.714  0.00  0.00    +0.000 OA
ENDBRANCH   1  12
BRANCH   7  13
ATOM     13  C   UNL     1       3.565   6.496  19.396  0.00  0.00    +0.000 C 
ATOM     14  C   UNL     1       2.616   7.042  18.607  0.00  0.00    +0.000 C 
BRANCH  14  15
ATOM     15  C   UNL     1       1.841   8.247  18.972  0.00  0.00    +0.000 A 
ATOM     16  C   UNL     1       1.483   9.229  18.039  0.00  0.00    +0.000 A 
ATOM     17  C   UNL     1       0.801  10.386  18.431  0.00  0.00    +0.000 A 
ATOM     18  C   UNL     1       0.449  10.573  19.763  0.00  0.00    +0.000 A 
ATOM     19  C   UNL     1       0.778   9.602  20.705  0.00  0.00    +0.000 A 
ATOM     20  C   UNL     1       1.468   8.444  20.315  0.00  0.00    +0.000 A 
ENDBRANCH  14  15
ENDBRANCH   7  13
BRANCH   8  21
ATOM     21  C   UNL     1       4.848   5.861  16.603  0.00  0.00    +0.000 C 
BRANCH  21  22
ATOM     22  O   UNL     1       4.925   7.298  16.549  0.00  0.00    +0.000 OA
ATOM     23  H   UNL     1       4.432   7.601  15.768  0.00  0.00    +0.000 HD
ENDBRANCH  21  22
BRANCH  21  24
ATOM     24  C   UNL     1       5.592   5.292  15.381  0.00  0.00    +0.000 C 
BRANCH  24  25
ATOM     25  N   UNL     1       7.049   5.558  15.477  0.00  0.00    +0.000 NA
ATOM     26  N   UNL     1       7.656   5.527  14.390  0.00  0.00    +0.000 NA
ATOM     27  N   UNL     1       8.199   5.513  13.391  0.00  0.00    +0.000 NA
ENDBRANCH  24  25
ENDBRANCH  21  24
ENDBRANCH   8  21
TORSDOF 7
ENDMDL
MODEL 9
REMARK VINA RESULT:      -6.6      1.275      1.486
REMARK  Name = 
REMARK  8 active torsions:
REMARK  status: ('A' for Active; 'I' for Inactive)
REMARK    1  A    between atoms: C_1  and  O_2
REMARK    2  A    between atoms: O_2  and  C_3
REMARK    3  A    between atoms: C_9  and  C_10
REMARK    4  A    between atoms: C_11  and  C_12
REMARK    5  A    between atoms: C_18  and  C_19
REMARK    6  A    between atoms: C_19  and  O_20
REMARK    7  A    between atoms: C_19  and  C_21
REMARK    8  A    between atoms: C_21  and  N_22
REMARK                            x       y       z     vdW  Elec       q    Type
REMARK                         _______ _______ _______ _____ _____    ______ ____
ROOT
ATOM      1  C   UNL     1       1.947   3.784  19.664  0.00  0.00    +0.000 A 
ATOM      2  C   UNL     1       0.980   2.907  19.152  0.00  0.00    +0.000 A 
ATOM      3  C   UNL     1       1.278   2.077  18.079  0.00  0.00    +0.000 A 
ATOM      4  C   UNL     1       2.557   2.092  17.541  0.00  0.00    +0.000 A 
ATOM      5  C   UNL     1       3.513   3.010  18.002  0.00  0.00    +0.000 A 
ATOM      6  C   UNL     1       3.175   3.956  18.997  0.00  0.00    +0.000 A 
ATOM      7  C   UNL     1       4.173   5.083  19.303  0.00  0.00    +0.000 C 
ATOM      8  C   UNL     1       5.216   5.224  18.136  0.00  0.00    +0.000 C 
ATOM      9  O   UNL     1       5.809   3.924  17.926  0.00  0.00    +0.000 OA
ATOM     10  C   UNL     1       4.894   2.970  17.384  0.00  0.00    +0.000 C 
ENDROOT
BRANCH   1  12
ATOM     11  C   UNL     1       2.127   3.759  21.999  0.00  0.00    +0.000 C 
ATOM     12  O   UNL     1       1.724   4.478  20.828  0.00  0.00    +0.000 OA
ENDBRANCH   1  12
BRANCH   7  13
ATOM     13  C   UNL     1       3.540   6.429  19.584  0.00  0.00    +0.000 C 
ATOM     14  C   UNL     1       2.495   6.957  18.913  0.00  0.00    +0.000 C 
BRANCH  14  15
ATOM     15  C   UNL     1       1.767   8.167  19.350  0.00  0.00    +0.000 A 
ATOM     16  C   UNL     1       1.484   9.234  18.489  0.00  0.00    +0.000 A 
ATOM     17  C   UNL     1       0.847  10.390  18.952  0.00  0.00    +0.000 A 
ATOM     18  C   UNL     1       0.463  10.491  20.285  0.00  0.00    +0.000 A 
ATOM     19  C   UNL     1       0.716   9.434  21.155  0.00  0.00    +0.000 A 
ATOM     20  C   UNL     1       1.362   8.277  20.695  0.00  0.00    +0.000 A 
ENDBRANCH  14  15
ENDBRANCH   7  13
BRANCH   8  21
ATOM     21  C   UNL     1       4.805   5.883  16.764  0.00  0.00    +0.000 C 
BRANCH  21  22
ATOM     22  O   UNL     1       4.575   7.301  16.859  0.00  0.00    +0.000 OA
ATOM     23  H   UNL     1       4.065   7.582  16.080  0.00  0.00    +0.000 HD
ENDBRANCH  21  22
BRANCH  21  24
ATOM     24  C   UNL     1       5.760   5.628  15.583  0.00  0.00    +0.000 C 
BRANCH  24  25
ATOM     25  N   UNL     1       7.175   5.769  16.008  0.00  0.00    +0.000 NA
ATOM     26  N   UNL     1       7.448   6.856  16.553  0.00  0.00    +0.000 NA
ATOM     27  N   UNL     1       7.685   7.843  17.065  0.00  0.00    +0.000 NA
ENDBRANCH  24  25
ENDBRANCH  21  24
ENDBRANCH   8  21
TORSDOF 7
ENDMDL
