MODEL 1
REMARK VINA RESULT:      -7.6      0.000      0.000
REMARK  Name = 
REMARK  2 active torsions:
REMARK  status: ('A' for Active; 'I' for Inactive)
REMARK    1  A    between atoms: N_3  and  C_4
REMARK    2  A    between atoms: N_12  and  C_13
REMARK                            x       y       z     vdW  Elec       q    Type
REMARK                         _______ _______ _______ _____ _____    ______ ____
ROOT
ATOM      1  O   UNL     1       8.433   7.527  18.674  0.00  0.00    +0.000 OA
ATOM      2  C   UNL     1       7.870   8.242  17.851  0.00  0.00    +0.000 C 
ATOM      3  N   UNL     1       8.164   9.580  17.652  0.00  0.00    +0.000 N 
ATOM      4  N   UNL     1       6.825   7.800  17.068  0.00  0.00    +0.000 N 
ATOM      5  H   UNL     1       7.523  10.107  17.079  0.00  0.00    +0.000 HD
ATOM      6  H   UNL     1       6.507   8.372  16.293  0.00  0.00    +0.000 HD
ENDROOT
BRANCH   4   7
ATOM      7  C   UNL     1       6.179   6.579  17.189  0.00  0.00    +0.000 A 
ATOM      8  C   UNL     1       5.165   6.292  18.017  0.00  0.00    +0.000 A 
ATOM      9  N   UNL     1       4.562   5.063  18.037  0.00  0.00    +0.000 N 
ATOM     10  C   UNL     1       4.914   4.031  17.221  0.00  0.00    +0.000 A 
ATOM     11  O   UNL     1       4.337   2.952  17.250  0.00  0.00    +0.000 OA
ATOM     12  N   UNL     1       5.951   4.287  16.367  0.00  0.00    +0.000 N 
ATOM     13  C   UNL     1       6.631   5.473  16.280  0.00  0.00    +0.000 A 
ATOM     14  O   UNL     1       7.565   5.648  15.501  0.00  0.00    +0.000 OA
ATOM     15  H   UNL     1       3.794   4.890  18.677  0.00  0.00    +0.000 HD
ATOM     16  H   UNL     1       6.231   3.535  15.757  0.00  0.00    +0.000 HD
ENDBRANCH   4   7
BRANCH   3  17
ATOM     17  C   UNL     1       9.104  10.322  18.415  0.00  0.00    +0.000 A 
ATOM     18  C   UNL     1       9.088  10.377  19.816  0.00  0.00    +0.000 A 
ATOM     19  C   UNL     1       9.976  11.197  20.516  0.00  0.00    +0.000 A 
ATOM     20  C   UNL     1      10.900  11.959  19.816  0.00  0.00    +0.000 A 
ATOM     21  F   UNL     1      11.729  12.758  20.503  0.00  0.00    +0.000 F 
ATOM     22  C   UNL     1      10.957  11.889  18.426  0.00  0.00    +0.000 A 
ATOM     23 CL   UNL     1      12.100  12.836  17.553  0.00  0.00    +0.000 Cl
ATOM     24  C   UNL     1      10.070  11.063  17.724  0.00  0.00    +0.000 A 
ENDBRANCH   3  17
TORSDOF 2
ENDMDL
MODEL 2
REMARK VINA RESULT:      -7.4      1.897      2.317
REMARK  Name = 
REMARK  2 active torsions:
REMARK  status: ('A' for Active; 'I' for Inactive)
REMARK    1  A    between atoms: N_3  and  C_4
REMARK    2  A    between atoms: N_12  and  C_13
REMARK                            x       y       z     vdW  Elec       q    Type
REMARK                         _______ _______ _______ _____ _____    ______ ____
ROOT
ATOM      1  O   UNL     1       7.811   9.582  17.802  0.00  0.00    +0.000 OA
ATOM      2  C   UNL     1       8.507   9.061  18.668  0.00  0.00    +0.000 C 
ATOM      3  N   UNL     1       9.440   9.742  19.430  0.00  0.00    +0.000 N 
ATOM      4  N   UNL     1       8.478   7.709  18.936  0.00  0.00    +0.000 N 
ATOM      5  H   UNL     1      10.072   9.184  19.983  0.00  0.00    +0.000 HD
ATOM      6  H   UNL     1       8.943   7.356  19.765  0.00  0.00    +0.000 HD
ENDROOT
BRANCH   4   7
ATOM      7  C   UNL     1       7.801   6.749  18.200  0.00  0.00    +0.000 A 
ATOM      8  C   UNL     1       7.458   6.830  16.907  0.00  0.00    +0.000 A 
ATOM      9  N   UNL     1       6.822   5.809  16.253  0.00  0.00    +0.000 N 
ATOM     10  C   UNL     1       6.493   4.622  16.835  0.00  0.00    +0.000 A 
ATOM     11  O   UNL     1       5.945   3.722  16.214  0.00  0.00    +0.000 OA
ATOM     12  N   UNL     1       6.821   4.508  18.158  0.00  0.00    +0.000 N 
ATOM     13  C   UNL     1       7.442   5.473  18.906  0.00  0.00    +0.000 A 
ATOM     14  O   UNL     1       7.706   5.324  20.096  0.00  0.00    +0.000 OA
ATOM     15  H   UNL     1       6.585   5.910  15.272  0.00  0.00    +0.000 HD
ATOM     16  H   UNL     1       6.583   3.639  18.610  0.00  0.00    +0.000 HD
ENDBRANCH   4   7
BRANCH   3  17
ATOM     17  C   UNL     1       9.768  11.114  19.270  0.00  0.00    +0.000 A 
ATOM     18  C   UNL     1       9.400  12.107  20.188  0.00  0.00    +0.000 A 
ATOM     19  C   UNL     1       9.665  13.456  19.938  0.00  0.00    +0.000 A 
ATOM     20  C   UNL     1      10.318  13.819  18.770  0.00  0.00    +0.000 A 
ATOM     21  F   UNL     1      10.544  15.119  18.535  0.00  0.00    +0.000 F 
ATOM     22  C   UNL     1      10.726  12.843  17.863  0.00  0.00    +0.000 A 
ATOM     23 CL   UNL     1      11.534  13.290  16.409  0.00  0.00    +0.000 Cl
ATOM     24  C   UNL     1      10.465  11.491  18.116  0.00  0.00    +0.000 A 
ENDBRANCH   3  17
TORSDOF 2
ENDMDL
MODEL 3
REMARK VINA RESULT:      -7.3      1.059      1.409
REMARK  Name = 
REMARK  2 active torsions:
REMARK  status: ('A' for Active; 'I' for Inactive)
REMARK    1  A    between atoms: N_3  and  C_4
REMARK    2  A    between atoms: N_12  and  C_13
REMARK                            x       y       z     vdW  Elec       q    Type
REMARK                         _______ _______ _______ _____ _____    ______ ____
ROOT
ATOM      1  O   UNL     1       8.485   7.433  18.648  0.00  0.00    +0.000 OA
ATOM      2  C   UNL     1       7.878   8.149  17.857  0.00  0.00    +0.000 C 
ATOM      3  N   UNL     1       8.124   9.499  17.683  0.00  0.00    +0.000 N 
ATOM      4  N   UNL     1       6.827   7.691  17.092  0.00  0.00    +0.000 N 
ATOM      5  H   UNL     1       7.452  10.019  17.140  0.00  0.00    +0.000 HD
ATOM      6  H   UNL     1       6.470   8.270  16.340  0.00  0.00    +0.000 HD
ENDROOT
BRANCH   4   7
ATOM      7  C   UNL     1       6.223   6.448  17.201  0.00  0.00    +0.000 A 
ATOM      8  C   UNL     1       6.834   5.257  17.148  0.00  0.00    +0.000 A 
ATOM      9  N   UNL     1       6.156   4.078  17.306  0.00  0.00    +0.000 N 
ATOM     10  C   UNL     1       4.817   3.998  17.544  0.00  0.00    +0.000 A 
ATOM     11  O   UNL     1       4.247   2.927  17.704  0.00  0.00    +0.000 OA
ATOM     12  N   UNL     1       4.159   5.196  17.597  0.00  0.00    +0.000 N 
ATOM     13  C   UNL     1       4.740   6.426  17.436  0.00  0.00    +0.000 A 
ATOM     14  O   UNL     1       4.101   7.474  17.482  0.00  0.00    +0.000 OA
ATOM     15  H   UNL     1       6.659   3.198  17.264  0.00  0.00    +0.000 HD
ATOM     16  H   UNL     1       3.167   5.159  17.768  0.00  0.00    +0.000 HD
ENDBRANCH   4   7
BRANCH   3  17
ATOM     17  C   UNL     1       9.060  10.254  18.438  0.00  0.00    +0.000 A 
ATOM     18  C   UNL     1       9.041  10.328  19.838  0.00  0.00    +0.000 A 
ATOM     19  C   UNL     1       9.925  11.159  20.530  0.00  0.00    +0.000 A 
ATOM     20  C   UNL     1      10.850  11.913  19.822  0.00  0.00    +0.000 A 
ATOM     21  F   UNL     1      11.675  12.723  20.500  0.00  0.00    +0.000 F 
ATOM     22  C   UNL     1      10.910  11.824  18.433  0.00  0.00    +0.000 A 
ATOM     23 CL   UNL     1      12.054  12.762  17.550  0.00  0.00    +0.000 Cl
ATOM     24  C   UNL     1      10.027  10.987  17.740  0.00  0.00    +0.000 A 
ENDBRANCH   3  17
TORSDOF 2
ENDMDL
MODEL 4
REMARK VINA RESULT:      -7.3      2.046      2.619
REMARK  Name = 
REMARK  2 active torsions:
REMARK  status: ('A' for Active; 'I' for Inactive)
REMARK    1  A    between atoms: N_3  and  C_4
REMARK    2  A    between atoms: N_12  and  C_13
REMARK                            x       y       z     vdW  Elec       q    Type
REMARK                         _______ _______ _______ _____ _____    ______ ____
ROOT
ATOM      1  O   UNL     1       7.791   9.507  17.728  0.00  0.00    +0.000 OA
ATOM      2  C   UNL     1       8.496   8.980  18.583  0.00  0.00    +0.000 C 
ATOM      3  N   UNL     1       9.468   9.647  19.308  0.00  0.00    +0.000 N 
ATOM      4  N   UNL     1       8.438   7.634  18.872  0.00  0.00    +0.000 N 
ATOM      5  H   UNL     1      10.100   9.079  19.851  0.00  0.00    +0.000 HD
ATOM      6  H   UNL     1       8.916   7.281  19.694  0.00  0.00    +0.000 HD
ENDROOT
BRANCH   4   7
ATOM      7  C   UNL     1       7.714   6.682  18.171  0.00  0.00    +0.000 A 
ATOM      8  C   UNL     1       7.362   6.739  16.879  0.00  0.00    +0.000 A 
ATOM      9  N   UNL     1       6.678   5.728  16.261  0.00  0.00    +0.000 N 
ATOM     10  C   UNL     1       6.306   4.573  16.881  0.00  0.00    +0.000 A 
ATOM     11  O   UNL     1       5.715   3.678  16.290  0.00  0.00    +0.000 OA
ATOM     12  N   UNL     1       6.642   4.484  18.203  0.00  0.00    +0.000 N 
ATOM     13  C   UNL     1       7.310   5.443  18.917  0.00  0.00    +0.000 A 
ATOM     14  O   UNL     1       7.579   5.318  20.109  0.00  0.00    +0.000 OA
ATOM     15  H   UNL     1       6.436   5.810  15.279  0.00  0.00    +0.000 HD
ATOM     16  H   UNL     1       6.373   3.639  18.682  0.00  0.00    +0.000 HD
ENDBRANCH   4   7
BRANCH   3  17
ATOM     17  C   UNL     1       9.829  11.007  19.116  0.00  0.00    +0.000 A 
ATOM     18  C   UNL     1      10.312  11.512  17.901  0.00  0.00    +0.000 A 
ATOM     19  C   UNL     1      10.742  12.836  17.791  0.00  0.00    +0.000 A 
ATOM     20  C   UNL     1      10.676  13.672  18.896  0.00  0.00    +0.000 A 
ATOM     21  F   UNL     1      11.114  14.933  18.779  0.00  0.00    +0.000 F 
ATOM     22  C   UNL     1      10.163  13.199  20.102  0.00  0.00    +0.000 A 
ATOM     23 CL   UNL     1      10.082  14.231  21.478  0.00  0.00    +0.000 Cl
ATOM     24  C   UNL     1       9.727  11.872  20.212  0.00  0.00    +0.000 A 
ENDBRANCH   3  17
TORSDOF 2
ENDMDL
MODEL 5
REMARK VINA RESULT:      -7.1      6.639      7.735
REMARK  Name = 
REMARK  2 active torsions:
REMARK  status: ('A' for Active; 'I' for Inactive)
REMARK    1  A    between atoms: N_3  and  C_4
REMARK    2  A    between atoms: N_12  and  C_13
REMARK                            x       y       z     vdW  Elec       q    Type
REMARK                         _______ _______ _______ _____ _____    ______ ____
ROOT
ATOM      1  O   UNL     1       4.258   4.502  16.369  0.00  0.00    +0.000 OA
ATOM      2  C   UNL     1       5.267   4.138  16.964  0.00  0.00    +0.000 C 
ATOM      3  N   UNL     1       6.512   4.004  16.376  0.00  0.00    +0.000 N 
ATOM      4  N   UNL     1       5.255   3.756  18.289  0.00  0.00    +0.000 N 
ATOM      5  H   UNL     1       7.222   3.533  16.914  0.00  0.00    +0.000 HD
ATOM      6  H   UNL     1       6.134   3.624  18.777  0.00  0.00    +0.000 HD
ENDROOT
BRANCH   4   7
ATOM      7  C   UNL     1       4.126   3.589  19.076  0.00  0.00    +0.000 A 
ATOM      8  C   UNL     1       3.583   4.500  19.895  0.00  0.00    +0.000 A 
ATOM      9  N   UNL     1       2.439   4.256  20.606  0.00  0.00    +0.000 N 
ATOM     10  C   UNL     1       1.740   3.088  20.542  0.00  0.00    +0.000 A 
ATOM     11  O   UNL     1       0.707   2.912  21.175  0.00  0.00    +0.000 OA
ATOM     12  N   UNL     1       2.271   2.132  19.721  0.00  0.00    +0.000 N 
ATOM     13  C   UNL     1       3.415   2.270  18.982  0.00  0.00    +0.000 A 
ATOM     14  O   UNL     1       3.856   1.375  18.266  0.00  0.00    +0.000 OA
ATOM     15  H   UNL     1       2.058   4.976  21.211  0.00  0.00    +0.000 HD
ATOM     16  H   UNL     1       1.771   1.259  19.662  0.00  0.00    +0.000 HD
ENDBRANCH   4   7
BRANCH   3  17
ATOM     17  C   UNL     1       6.779   4.203  14.995  0.00  0.00    +0.000 A 
ATOM     18  C   UNL     1       7.670   5.173  14.515  0.00  0.00    +0.000 A 
ATOM     19  C   UNL     1       7.828   5.391  13.144  0.00  0.00    +0.000 A 
ATOM     20  C   UNL     1       7.104   4.627  12.242  0.00  0.00    +0.000 A 
ATOM     21  F   UNL     1       7.249   4.866  10.931  0.00  0.00    +0.000 F 
ATOM     22  C   UNL     1       6.242   3.632  12.699  0.00  0.00    +0.000 A 
ATOM     23 CL   UNL     1       5.338   2.682  11.582  0.00  0.00    +0.000 Cl
ATOM     24  C   UNL     1       6.088   3.409  14.073  0.00  0.00    +0.000 A 
ENDBRANCH   3  17
TORSDOF 2
ENDMDL
MODEL 6
REMARK VINA RESULT:      -7.1      6.960      7.966
REMARK  Name = 
REMARK  2 active torsions:
REMARK  status: ('A' for Active; 'I' for Inactive)
REMARK    1  A    between atoms: N_3  and  C_4
REMARK    2  A    between atoms: N_12  and  C_13
REMARK                            x       y       z     vdW  Elec       q    Type
REMARK                         _______ _______ _______ _____ _____    ______ ____
ROOT
ATOM      1  O   UNL     1       2.181   7.634  19.692  0.00  0.00    +0.000 OA
ATOM      2  C   UNL     1       2.488   7.750  18.510  0.00  0.00    +0.000 C 
ATOM      3  N   UNL     1       2.009   8.745  17.676  0.00  0.00    +0.000 N 
ATOM      4  N   UNL     1       3.306   6.851  17.860  0.00  0.00    +0.000 N 
ATOM      5  H   UNL     1       2.189   8.638  16.689  0.00  0.00    +0.000 HD
ATOM      6  H   UNL     1       3.661   7.079  16.937  0.00  0.00    +0.000 HD
ENDROOT
BRANCH   4   7
ATOM      7  C   UNL     1       3.767   5.650  18.376  0.00  0.00    +0.000 A 
ATOM      8  C   UNL     1       4.954   5.436  18.959  0.00  0.00    +0.000 A 
ATOM      9  N   UNL     1       5.306   4.219  19.477  0.00  0.00    +0.000 N 
ATOM     10  C   UNL     1       4.494   3.125  19.468  0.00  0.00    +0.000 A 
ATOM     11  O   UNL     1       4.832   2.058  19.962  0.00  0.00    +0.000 OA
ATOM     12  N   UNL     1       3.275   3.306  18.873  0.00  0.00    +0.000 N 
ATOM     13  C   UNL     1       2.834   4.475  18.312  0.00  0.00    +0.000 A 
ATOM     14  O   UNL     1       1.732   4.583  17.780  0.00  0.00    +0.000 OA
ATOM     15  H   UNL     1       6.214   4.101  19.915  0.00  0.00    +0.000 HD
ATOM     16  H   UNL     1       2.660   2.509  18.852  0.00  0.00    +0.000 HD
ENDBRANCH   4   7
BRANCH   3  17
ATOM     17  C   UNL     1       1.049   9.722  18.051  0.00  0.00    +0.000 A 
ATOM     18  C   UNL     1       1.373  10.888  18.759  0.00  0.00    +0.000 A 
ATOM     19  C   UNL     1       0.380  11.772  19.186  0.00  0.00    +0.000 A 
ATOM     20  C   UNL     1      -0.949  11.502  18.893  0.00  0.00    +0.000 A 
ATOM     21  F   UNL     1      -1.891  12.349  19.331  0.00  0.00    +0.000 F 
ATOM     22  C   UNL     1      -1.287  10.368  18.158  0.00  0.00    +0.000 A 
ATOM     23 CL   UNL     1      -2.936  10.026  17.795  0.00  0.00    +0.000 Cl
ATOM     24  C   UNL     1      -0.291   9.484  17.725  0.00  0.00    +0.000 A 
ENDBRANCH   3  17
TORSDOF 2
ENDMDL
MODEL 7
REMARK VINA RESULT:      -7.1      6.512      7.645
REMARK  Name = 
REMARK  2 active torsions:
REMARK  status: ('A' for Active; 'I' for Inactive)
REMARK    1  A    between atoms: N_3  and  C_4
REMARK    2  A    between atoms: N_12  and  C_13
REMARK                            x       y       z     vdW  Elec       q    Type
REMARK                         _______ _______ _______ _____ _____    ______ ____
ROOT
ATOM      1  O   UNL     1       4.434   4.231  16.517  0.00  0.00    +0.000 OA
ATOM      2  C   UNL     1       5.505   4.204  17.115  0.00  0.00    +0.000 C 
ATOM      3  N   UNL     1       6.740   4.315  16.501  0.00  0.00    +0.000 N 
ATOM      4  N   UNL     1       5.597   3.994  18.474  0.00  0.00    +0.000 N 
ATOM      5  H   UNL     1       7.550   4.104  17.065  0.00  0.00    +0.000 HD
ATOM      6  H   UNL     1       6.484   4.145  18.942  0.00  0.00    +0.000 HD
ENDROOT
BRANCH   4   7
ATOM      7  C   UNL     1       4.551   3.646  19.315  0.00  0.00    +0.000 A 
ATOM      8  C   UNL     1       4.265   2.417  19.766  0.00  0.00    +0.000 A 
ATOM      9  N   UNL     1       3.230   2.177  20.629  0.00  0.00    +0.000 N 
ATOM     10  C   UNL     1       2.410   3.148  21.122  0.00  0.00    +0.000 A 
ATOM     11  O   UNL     1       1.508   2.900  21.911  0.00  0.00    +0.000 OA
ATOM     12  N   UNL     1       2.669   4.414  20.676  0.00  0.00    +0.000 N 
ATOM     13  C   UNL     1       3.667   4.758  19.802  0.00  0.00    +0.000 A 
ATOM     14  O   UNL     1       3.851   5.912  19.424  0.00  0.00    +0.000 OA
ATOM     15  H   UNL     1       3.051   1.231  20.950  0.00  0.00    +0.000 HD
ATOM     16  H   UNL     1       2.072   5.147  21.024  0.00  0.00    +0.000 HD
ENDBRANCH   4   7
BRANCH   3  17
ATOM     17  C   UNL     1       6.941   4.406  15.099  0.00  0.00    +0.000 A 
ATOM     18  C   UNL     1       7.842   5.303  14.506  0.00  0.00    +0.000 A 
ATOM     19  C   UNL     1       7.935   5.419  13.117  0.00  0.00    +0.000 A 
ATOM     20  C   UNL     1       7.135   4.625  12.309  0.00  0.00    +0.000 A 
ATOM     21  F   UNL     1       7.220   4.766  10.979  0.00  0.00    +0.000 F 
ATOM     22  C   UNL     1       6.262   3.701  12.879  0.00  0.00    +0.000 A 
ATOM     23 CL   UNL     1       5.264   2.715  11.879  0.00  0.00    +0.000 Cl
ATOM     24  C   UNL     1       6.172   3.580  14.271  0.00  0.00    +0.000 A 
ENDBRANCH   3  17
TORSDOF 2
ENDMDL
MODEL 8
REMARK VINA RESULT:      -7.0      6.681      7.860
REMARK  Name = 
REMARK  2 active torsions:
REMARK  status: ('A' for Active; 'I' for Inactive)
REMARK    1  A    between atoms: N_3  and  C_4
REMARK    2  A    between atoms: N_12  and  C_13
REMARK                            x       y       z     vdW  Elec       q    Type
REMARK                         _______ _______ _______ _____ _____    ______ ____
ROOT
ATOM      1  O   UNL     1       3.851   3.285  16.760  0.00  0.00    +0.000 OA
ATOM      2  C   UNL     1       4.177   4.426  17.074  0.00  0.00    +0.000 C 
ATOM      3  N   UNL     1       5.025   5.226  16.328  0.00  0.00    +0.000 N 
ATOM      4  N   UNL     1       3.778   5.018  18.253  0.00  0.00    +0.000 N 
ATOM      5  H   UNL     1       5.359   6.070  16.768  0.00  0.00    +0.000 HD
ATOM      6  H   UNL     1       3.934   6.011  18.388  0.00  0.00    +0.000 HD
ENDROOT
BRANCH   4   7
ATOM      7  C   UNL     1       3.101   4.393  19.289  0.00  0.00    +0.000 A 
ATOM      8  C   UNL     1       1.837   4.624  19.670  0.00  0.00    +0.000 A 
ATOM      9  N   UNL     1       1.240   3.925  20.684  0.00  0.00    +0.000 N 
ATOM     10  C   UNL     1       1.852   2.930  21.385  0.00  0.00    +0.000 A 
ATOM     11  O   UNL     1       1.279   2.309  22.271  0.00  0.00    +0.000 OA
ATOM     12  N   UNL     1       3.147   2.673  21.027  0.00  0.00    +0.000 N 
ATOM     13  C   UNL     1       3.839   3.324  20.041  0.00  0.00    +0.000 A 
ATOM     14  O   UNL     1       5.007   3.061  19.765  0.00  0.00    +0.000 OA
ATOM     15  H   UNL     1       0.278   4.128  20.937  0.00  0.00    +0.000 HD
ATOM     16  H   UNL     1       3.620   1.943  21.536  0.00  0.00    +0.000 HD
ENDBRANCH   4   7
BRANCH   3  17
ATOM     17  C   UNL     1       5.685   4.816  15.140  0.00  0.00    +0.000 A 
ATOM     18  C   UNL     1       7.054   5.014  14.911  0.00  0.00    +0.000 A 
ATOM     19  C   UNL     1       7.637   4.678  13.687  0.00  0.00    +0.000 A 
ATOM     20  C   UNL     1       6.854   4.124  12.686  0.00  0.00    +0.000 A 
ATOM     21  F   UNL     1       7.425   3.829  11.509  0.00  0.00    +0.000 F 
ATOM     22  C   UNL     1       5.500   3.884  12.907  0.00  0.00    +0.000 A 
ATOM     23 CL   UNL     1       4.522   3.200  11.664  0.00  0.00    +0.000 Cl
ATOM     24  C   UNL     1       4.916   4.216  14.136  0.00  0.00    +0.000 A 
ENDBRANCH   3  17
TORSDOF 2
ENDMDL
MODEL 9
REMARK VINA RESULT:      -7.0      6.215      7.465
REMARK  Name = 
REMARK  2 active torsions:
REMARK  status: ('A' for Active; 'I' for Inactive)
REMARK    1  A    between atoms: N_3  and  C_4
REMARK    2  A    between atoms: N_12  and  C_13
REMARK                            x       y       z     vdW  Elec       q    Type
REMARK                         _______ _______ _______ _____ _____    ______ ____
ROOT
ATOM      1  O   UNL     1       4.080   4.107  16.755  0.00  0.00    +0.000 OA
ATOM      2  C   UNL     1       5.179   4.078  17.299  0.00  0.00    +0.000 C 
ATOM      3  N   UNL     1       6.383   4.173  16.625  0.00  0.00    +0.000 N 
ATOM      4  N   UNL     1       5.335   3.880  18.654  0.00  0.00    +0.000 N 
ATOM      5  H   UNL     1       7.218   3.961  17.150  0.00  0.00    +0.000 HD
ATOM      6  H   UNL     1       6.245   4.029  19.077  0.00  0.00    +0.000 HD
ENDROOT
BRANCH   4   7
ATOM      7  C   UNL     1       4.330   3.549  19.549  0.00  0.00    +0.000 A 
ATOM      8  C   UNL     1       4.078   2.333  20.053  0.00  0.00    +0.000 A 
ATOM      9  N   UNL     1       3.083   2.111  20.966  0.00  0.00    +0.000 N 
ATOM     10  C   UNL     1       2.271   3.088  21.458  0.00  0.00    +0.000 A 
ATOM     11  O   UNL     1       1.405   2.856  22.292  0.00  0.00    +0.000 OA
ATOM     12  N   UNL     1       2.494   4.341  20.959  0.00  0.00    +0.000 N 
ATOM     13  C   UNL     1       3.451   4.666  20.034  0.00  0.00    +0.000 A 
ATOM     14  O   UNL     1       3.604   5.808  19.610  0.00  0.00    +0.000 OA
ATOM     15  H   UNL     1       2.930   1.174  21.326  0.00  0.00    +0.000 HD
ATOM     16  H   UNL     1       1.902   5.078  21.307  0.00  0.00    +0.000 HD
ENDBRANCH   4   7
BRANCH   3  17
ATOM     17  C   UNL     1       6.516   4.249  15.213  0.00  0.00    +0.000 A 
ATOM     18  C   UNL     1       5.744   3.488  14.325  0.00  0.00    +0.000 A 
ATOM     19  C   UNL     1       5.977   3.529  12.948  0.00  0.00    +0.000 A 
ATOM     20  C   UNL     1       6.978   4.348  12.448  0.00  0.00    +0.000 A 
ATOM     21  F   UNL     1       7.204   4.358  11.127  0.00  0.00    +0.000 F 
ATOM     22  C   UNL     1       7.731   5.141  13.312  0.00  0.00    +0.000 A 
ATOM     23 CL   UNL     1       8.978   6.157  12.696  0.00  0.00    +0.000 Cl
ATOM     24  C   UNL     1       7.494   5.103  14.692  0.00  0.00    +0.000 A 
ENDBRANCH   3  17
TORSDOF 2
ENDMDL
