MODEL 1
REMARK VINA RESULT:      -7.3      0.000      0.000
REMARK  Name = 
REMARK  11 active torsions:
REMARK  status: ('A' for Active; 'I' for Inactive)
REMARK    1  A    between atoms: C_1  and  C_2
REMARK    2  A    between atoms: C_2  and  C_3
REMARK    3  A    between atoms: C_3  and  S_4
REMARK    4  A    between atoms: C_3  and  C_24
REMARK    5  A    between atoms: S_4  and  C_5
REMARK    6  A    between atoms: C_11  and  C_12
REMARK    7  A    between atoms: C_15  and  O_16
REMARK    8  A    between atoms: O_16  and  C_17
REMARK    9  A    between atoms: C_18  and  O_19
REMARK   10  A    between atoms: O_19  and  C_20
REMARK   11  A    between atoms: C_24  and  O_26
REMARK                            x       y       z     vdW  Elec       q    Type
REMARK                         _______ _______ _______ _____ _____    ______ ____
ROOT
ATOM      1  C   UNL     1       4.447   4.912  17.809  0.00  0.00    +0.000 A 
ATOM      2  C   UNL     1       4.329   3.438  17.936  0.00  0.00    +0.000 A 
ATOM      3  C   UNL     1       3.407   2.980  18.789  0.00  0.00    +0.000 A 
ATOM      4  C   UNL     1       2.606   3.898  19.500  0.00  0.00    +0.000 A 
ATOM      5  N   UNL     1       1.630   3.727  20.360  0.00  0.00    +0.000 NA
ATOM      6  N   UNL     1       1.159   4.970  20.702  0.00  0.00    +0.000 NA
ATOM      7  C   UNL     1       1.865   5.893  20.062  0.00  0.00    +0.000 A 
ATOM      8  N   UNL     1       2.814   5.248  19.281  0.00  0.00    +0.000 N 
ATOM      9  N   UNL     1       3.742   5.799  18.423  0.00  0.00    +0.000 NA
ENDROOT
BRANCH   7  10
ATOM     10  C   UNL     1       1.620   7.338  20.132  0.00  0.00    +0.000 A 
ATOM     11  C   UNL     1       1.705   8.165  19.016  0.00  0.00    +0.000 A 
ATOM     12  C   UNL     1       1.438   9.531  19.123  0.00  0.00    +0.000 A 
ATOM     13  C   UNL     1       1.099  10.111  20.350  0.00  0.00    +0.000 A 
ATOM     14  C   UNL     1       1.043   9.303  21.498  0.00  0.00    +0.000 A 
ATOM     15  C   UNL     1       1.302   7.924  21.371  0.00  0.00    +0.000 A 
BRANCH  13  16
ATOM     16  O   UNL     1       0.863  11.455  20.228  0.00  0.00    +0.000 OA
ATOM     17  C   UNL     1       1.546  12.186  19.224  0.00  0.00    +0.000 C 
ENDBRANCH  13  16
BRANCH  14  18
ATOM     18  O   UNL     1       0.741   9.895  22.696  0.00  0.00    +0.000 OA
ATOM     19  C   UNL     1      -0.625  10.006  23.074  0.00  0.00    +0.000 C 
ENDBRANCH  14  18
ENDBRANCH   7  10
BRANCH   1  20
ATOM     20  S   UNL     1       5.644   5.423  16.639  0.00  0.00    +0.000 S 
BRANCH  20  21
ATOM     21  C   UNL     1       6.881   6.240  17.714  0.00  0.00    +0.000 C 
BRANCH  21  23
ATOM     22  C   UNL     1       8.095   8.504  17.946  0.00  0.00    +0.000 C 
ATOM     23  C   UNL     1       7.694   7.352  17.035  0.00  0.00    +0.000 C 
ENDBRANCH  21  23
BRANCH  21  24
ATOM     24  C   UNL     1       7.798   5.225  18.389  0.00  0.00    +0.000 C 
ATOM     25  O   UNL     1       8.174   5.300  19.551  0.00  0.00    +0.000 OA
BRANCH  24  26
ATOM     26  O   UNL     1       8.105   4.157  17.612  0.00  0.00    +0.000 OA
ATOM     27  H   UNL     1       7.525   3.389  17.779  0.00  0.00    +0.000 HD
ENDBRANCH  24  26
ENDBRANCH  21  24
ENDBRANCH  20  21
ENDBRANCH   1  20
TORSDOF 8
ENDMDL
MODEL 2
REMARK VINA RESULT:      -7.2      2.320      7.421
REMARK  Name = 
REMARK  11 active torsions:
REMARK  status: ('A' for Active; 'I' for Inactive)
REMARK    1  A    between atoms: C_1  and  C_2
REMARK    2  A    between atoms: C_2  and  C_3
REMARK    3  A    between atoms: C_3  and  S_4
REMARK    4  A    between atoms: C_3  and  C_24
REMARK    5  A    between atoms: S_4  and  C_5
REMARK    6  A    between atoms: C_11  and  C_12
REMARK    7  A    between atoms: C_15  and  O_16
REMARK    8  A    between atoms: O_16  and  C_17
REMARK    9  A    between atoms: C_18  and  O_19
REMARK   10  A    between atoms: O_19  and  C_20
REMARK   11  A    between atoms: C_24  and  O_26
REMARK                            x       y       z     vdW  Elec       q    Type
REMARK                         _______ _______ _______ _____ _____    ______ ____
ROOT
ATOM      1  C   UNL     1       1.805   8.504  19.101  0.00  0.00    +0.000 A 
ATOM      2  C   UNL     1       1.062   8.271  20.365  0.00  0.00    +0.000 A 
ATOM      3  C   UNL     1       1.240   7.086  20.957  0.00  0.00    +0.000 A 
ATOM      4  C   UNL     1       2.111   6.144  20.371  0.00  0.00    +0.000 A 
ATOM      5  N   UNL     1       2.484   4.942  20.746  0.00  0.00    +0.000 NA
ATOM      6  N   UNL     1       3.399   4.489  19.828  0.00  0.00    +0.000 NA
ATOM      7  C   UNL     1       3.566   5.411  18.889  0.00  0.00    +0.000 A 
ATOM      8  N   UNL     1       2.750   6.492  19.194  0.00  0.00    +0.000 N 
ATOM      9  N   UNL     1       2.618   7.689  18.521  0.00  0.00    +0.000 NA
ENDROOT
BRANCH   7  10
ATOM     10  C   UNL     1       4.507   5.310  17.769  0.00  0.00    +0.000 A 
ATOM     11  C   UNL     1       4.344   4.392  16.736  0.00  0.00    +0.000 A 
ATOM     12  C   UNL     1       5.249   4.348  15.675  0.00  0.00    +0.000 A 
ATOM     13  C   UNL     1       6.353   5.205  15.626  0.00  0.00    +0.000 A 
ATOM     14  C   UNL     1       6.560   6.117  16.676  0.00  0.00    +0.000 A 
ATOM     15  C   UNL     1       5.629   6.157  17.732  0.00  0.00    +0.000 A 
BRANCH  13  16
ATOM     16  O   UNL     1       7.101   5.007  14.496  0.00  0.00    +0.000 OA
ATOM     17  C   UNL     1       6.606   4.146  13.484  0.00  0.00    +0.000 C 
ENDBRANCH  13  16
BRANCH  14  18
ATOM     18  O   UNL     1       7.664   6.925  16.626  0.00  0.00    +0.000 OA
ATOM     19  C   UNL     1       7.758   8.004  17.547  0.00  0.00    +0.000 C 
ENDBRANCH  14  18
ENDBRANCH   7  10
BRANCH   1  20
ATOM     20  S   UNL     1       1.549  10.095  18.419  0.00  0.00    +0.000 S 
BRANCH  20  21
ATOM     21  C   UNL     1       0.485  10.871  19.691  0.00  0.00    +0.000 C 
BRANCH  21  23
ATOM     22  C   UNL     1      -1.437  10.347  18.053  0.00  0.00    +0.000 C 
ATOM     23  C   UNL     1      -0.952  11.171  19.237  0.00  0.00    +0.000 C 
ENDBRANCH  21  23
BRANCH  21  24
ATOM     24  C   UNL     1       1.139  12.111  20.291  0.00  0.00    +0.000 C 
ATOM     25  O   UNL     1       0.968  12.494  21.440  0.00  0.00    +0.000 OA
BRANCH  24  26
ATOM     26  O   UNL     1       2.017  12.728  19.462  0.00  0.00    +0.000 OA
ATOM     27  H   UNL     1       2.067  13.692  19.612  0.00  0.00    +0.000 HD
ENDBRANCH  24  26
ENDBRANCH  21  24
ENDBRANCH  20  21
ENDBRANCH   1  20
TORSDOF 8
ENDMDL
MODEL 3
REMARK VINA RESULT:      -7.2      1.586      1.858
REMARK  Name = 
REMARK  11 active torsions:
REMARK  status: ('A' for Active; 'I' for Inactive)
REMARK    1  A    between atoms: C_1  and  C_2
REMARK    2  A    between atoms: C_2  and  C_3
REMARK    3  A    between atoms: C_3  and  S_4
REMARK    4  A    between atoms: C_3  and  C_24
REMARK    5  A    between atoms: S_4  and  C_5
REMARK    6  A    between atoms: C_11  and  C_12
REMARK    7  A    between atoms: C_15  and  O_16
REMARK    8  A    between atoms: O_16  and  C_17
REMARK    9  A    between atoms: C_18  and  O_19
REMARK   10  A    between atoms: O_19  and  C_20
REMARK   11  A    between atoms: C_24  and  O_26
REMARK                            x       y       z     vdW  Elec       q    Type
REMARK                         _______ _______ _______ _____ _____    ______ ____
ROOT
ATOM      1  C   UNL     1       4.149   5.661  17.500  0.00  0.00    +0.000 A 
ATOM      2  C   UNL     1       4.202   4.201  17.770  0.00  0.00    +0.000 A 
ATOM      3  C   UNL     1       3.503   3.758  18.819  0.00  0.00    +0.000 A 
ATOM      4  C   UNL     1       2.760   4.675  19.593  0.00  0.00    +0.000 A 
ATOM      5  N   UNL     1       1.980   4.513  20.636  0.00  0.00    +0.000 NA
ATOM      6  N   UNL     1       1.461   5.742  20.958  0.00  0.00    +0.000 NA
ATOM      7  C   UNL     1       1.942   6.650  20.119  0.00  0.00    +0.000 A 
ATOM      8  N   UNL     1       2.790   6.009  19.226  0.00  0.00    +0.000 N 
ATOM      9  N   UNL     1       3.485   6.545  18.162  0.00  0.00    +0.000 NA
ENDROOT
BRANCH   7  10
ATOM     10  C   UNL     1       1.573   8.070  20.115  0.00  0.00    +0.000 A 
ATOM     11  C   UNL     1       1.614   8.849  18.963  0.00  0.00    +0.000 A 
ATOM     12  C   UNL     1       1.230  10.190  18.998  0.00  0.00    +0.000 A 
ATOM     13  C   UNL     1       0.812  10.795  20.188  0.00  0.00    +0.000 A 
ATOM     14  C   UNL     1       0.797  10.038  21.373  0.00  0.00    +0.000 A 
ATOM     15  C   UNL     1       1.175   8.682  21.317  0.00  0.00    +0.000 A 
BRANCH  13  16
ATOM     16  O   UNL     1       0.466  12.106  19.998  0.00  0.00    +0.000 OA
ATOM     17  C   UNL     1      -0.463  12.432  18.978  0.00  0.00    +0.000 C 
ENDBRANCH  13  16
BRANCH  14  18
ATOM     18  O   UNL     1       0.416  10.656  22.534  0.00  0.00    +0.000 OA
ATOM     19  C   UNL     1      -0.878  10.384  23.056  0.00  0.00    +0.000 C 
ENDBRANCH  14  18
ENDBRANCH   7  10
BRANCH   1  20
ATOM     20  S   UNL     1       5.054   6.147  16.083  0.00  0.00    +0.000 S 
BRANCH  20  21
ATOM     21  C   UNL     1       6.399   4.906  16.065  0.00  0.00    +0.000 C 
BRANCH  21  23
ATOM     22  C   UNL     1       7.542   6.549  17.691  0.00  0.00    +0.000 C 
ATOM     23  C   UNL     1       7.522   5.154  17.084  0.00  0.00    +0.000 C 
ENDBRANCH  21  23
BRANCH  21  24
ATOM     24  C   UNL     1       6.967   4.711  14.663  0.00  0.00    +0.000 C 
ATOM     25  O   UNL     1       7.833   5.417  14.165  0.00  0.00    +0.000 OA
BRANCH  24  26
ATOM     26  O   UNL     1       6.492   3.614  14.023  0.00  0.00    +0.000 OA
ATOM     27  H   UNL     1       6.464   3.725  13.053  0.00  0.00    +0.000 HD
ENDBRANCH  24  26
ENDBRANCH  21  24
ENDBRANCH  20  21
ENDBRANCH   1  20
TORSDOF 8
ENDMDL
MODEL 4
REMARK VINA RESULT:      -7.2      2.225      7.271
REMARK  Name = 
REMARK  11 active torsions:
REMARK  status: ('A' for Active; 'I' for Inactive)
REMARK    1  A    between atoms: C_1  and  C_2
REMARK    2  A    between atoms: C_2  and  C_3
REMARK    3  A    between atoms: C_3  and  S_4
REMARK    4  A    between atoms: C_3  and  C_24
REMARK    5  A    between atoms: S_4  and  C_5
REMARK    6  A    between atoms: C_11  and  C_12
REMARK    7  A    between atoms: C_15  and  O_16
REMARK    8  A    between atoms: O_16  and  C_17
REMARK    9  A    between atoms: C_18  and  O_19
REMARK   10  A    between atoms: O_19  and  C_20
REMARK   11  A    between atoms: C_24  and  O_26
REMARK                            x       y       z     vdW  Elec       q    Type
REMARK                         _______ _______ _______ _____ _____    ______ ____
ROOT
ATOM      1  C   UNL     1       2.188   7.198  19.566  0.00  0.00    +0.000 A 
ATOM      2  C   UNL     1       1.450   6.607  20.712  0.00  0.00    +0.000 A 
ATOM      3  C   UNL     1       1.682   5.318  20.974  0.00  0.00    +0.000 A 
ATOM      4  C   UNL     1       2.600   4.603  20.177  0.00  0.00    +0.000 A 
ATOM      5  N   UNL     1       3.028   3.364  20.229  0.00  0.00    +0.000 NA
ATOM      6  N   UNL     1       3.969   3.210  19.242  0.00  0.00    +0.000 NA
ATOM      7  C   UNL     1       4.097   4.354  18.581  0.00  0.00    +0.000 A 
ATOM      8  N   UNL     1       3.228   5.278  19.145  0.00  0.00    +0.000 N 
ATOM      9  N   UNL     1       3.043   6.603  18.808  0.00  0.00    +0.000 NA
ENDROOT
BRANCH   7  10
ATOM     10  C   UNL     1       5.047   4.594  17.491  0.00  0.00    +0.000 A 
ATOM     11  C   UNL     1       5.098   3.794  16.353  0.00  0.00    +0.000 A 
ATOM     12  C   UNL     1       6.001   4.074  15.327  0.00  0.00    +0.000 A 
ATOM     13  C   UNL     1       6.893   5.148  15.418  0.00  0.00    +0.000 A 
ATOM     14  C   UNL     1       6.886   5.949  16.573  0.00  0.00    +0.000 A 
ATOM     15  C   UNL     1       5.959   5.660  17.593  0.00  0.00    +0.000 A 
BRANCH  13  16
ATOM     16  O   UNL     1       7.676   5.254  14.299  0.00  0.00    +0.000 OA
ATOM     17  C   UNL     1       7.245   4.643  13.095  0.00  0.00    +0.000 C 
ENDBRANCH  13  16
BRANCH  14  18
ATOM     18  O   UNL     1       7.788   6.976  16.657  0.00  0.00    +0.000 OA
ATOM     19  C   UNL     1       7.772   7.801  17.815  0.00  0.00    +0.000 C 
ENDBRANCH  14  18
ENDBRANCH   7  10
BRANCH   1  20
ATOM     20  S   UNL     1       1.859   8.900  19.322  0.00  0.00    +0.000 S 
BRANCH  20  21
ATOM     21  C   UNL     1       0.505   9.186  20.520  0.00  0.00    +0.000 C 
BRANCH  21  23
ATOM     22  C   UNL     1      -0.524  10.564  18.598  0.00  0.00    +0.000 C 
ATOM     23  C   UNL     1      -0.739   9.875  19.938  0.00  0.00    +0.000 C 
ENDBRANCH  21  23
BRANCH  21  24
ATOM     24  C   UNL     1       0.999   9.913  21.766  0.00  0.00    +0.000 C 
ATOM     25  O   UNL     1       1.905   9.513  22.485  0.00  0.00    +0.000 OA
BRANCH  24  26
ATOM     26  O   UNL     1       0.406  11.114  21.977  0.00  0.00    +0.000 OA
ATOM     27  H   UNL     1      -0.426  11.219  21.474  0.00  0.00    +0.000 HD
ENDBRANCH  24  26
ENDBRANCH  21  24
ENDBRANCH  20  21
ENDBRANCH   1  20
TORSDOF 8
ENDMDL
MODEL 5
REMARK VINA RESULT:      -7.2      2.469      7.645
REMARK  Name = 
REMARK  11 active torsions:
REMARK  status: ('A' for Active; 'I' for Inactive)
REMARK    1  A    between atoms: C_1  and  C_2
REMARK    2  A    between atoms: C_2  and  C_3
REMARK    3  A    between atoms: C_3  and  S_4
REMARK    4  A    between atoms: C_3  and  C_24
REMARK    5  A    between atoms: S_4  and  C_5
REMARK    6  A    between atoms: C_11  and  C_12
REMARK    7  A    between atoms: C_15  and  O_16
REMARK    8  A    between atoms: O_16  and  C_17
REMARK    9  A    between atoms: C_18  and  O_19
REMARK   10  A    between atoms: O_19  and  C_20
REMARK   11  A    between atoms: C_24  and  O_26
REMARK                            x       y       z     vdW  Elec       q    Type
REMARK                         _______ _______ _______ _____ _____    ______ ____
ROOT
ATOM      1  C   UNL     1       1.771   8.477  19.042  0.00  0.00    +0.000 A 
ATOM      2  C   UNL     1       1.004   8.247  20.293  0.00  0.00    +0.000 A 
ATOM      3  C   UNL     1       1.205   7.082  20.915  0.00  0.00    +0.000 A 
ATOM      4  C   UNL     1       2.120   6.156  20.372  0.00  0.00    +0.000 A 
ATOM      5  N   UNL     1       2.522   4.976  20.782  0.00  0.00    +0.000 NA
ATOM      6  N   UNL     1       3.474   4.533  19.898  0.00  0.00    +0.000 NA
ATOM      7  C   UNL     1       3.635   5.440  18.943  0.00  0.00    +0.000 A 
ATOM      8  N   UNL     1       2.777   6.500  19.203  0.00  0.00    +0.000 N 
ATOM      9  N   UNL     1       2.625   7.678  18.501  0.00  0.00    +0.000 NA
ENDROOT
BRANCH   7  10
ATOM     10  C   UNL     1       4.606   5.345  17.848  0.00  0.00    +0.000 A 
ATOM     11  C   UNL     1       4.516   4.381  16.849  0.00  0.00    +0.000 A 
ATOM     12  C   UNL     1       5.448   4.343  15.811  0.00  0.00    +0.000 A 
ATOM     13  C   UNL     1       6.507   5.255  15.753  0.00  0.00    +0.000 A 
ATOM     14  C   UNL     1       6.641   6.216  16.771  0.00  0.00    +0.000 A 
ATOM     15  C   UNL     1       5.684   6.248  17.804  0.00  0.00    +0.000 A 
BRANCH  13  16
ATOM     16  O   UNL     1       7.291   5.053  14.649  0.00  0.00    +0.000 OA
ATOM     17  C   UNL     1       6.746   4.372  13.532  0.00  0.00    +0.000 C 
ENDBRANCH  13  16
BRANCH  14  18
ATOM     18  O   UNL     1       7.703   7.078  16.714  0.00  0.00    +0.000 OA
ATOM     19  C   UNL     1       7.745   8.166  17.628  0.00  0.00    +0.000 C 
ENDBRANCH  14  18
ENDBRANCH   7  10
BRANCH   1  20
ATOM     20  S   UNL     1       1.482  10.044  18.319  0.00  0.00    +0.000 S 
BRANCH  20  21
ATOM     21  C   UNL     1      -0.302  10.279  18.655  0.00  0.00    +0.000 C 
BRANCH  21  23
ATOM     22  C   UNL     1      -2.714  10.067  17.766  0.00  0.00    +0.000 C 
ATOM     23  C   UNL     1      -1.225  10.033  17.452  0.00  0.00    +0.000 C 
ENDBRANCH  21  23
BRANCH  21  24
ATOM     24  C   UNL     1      -0.581  11.637  19.290  0.00  0.00    +0.000 C 
ATOM     25  O   UNL     1      -0.468  12.707  18.709  0.00  0.00    +0.000 OA
BRANCH  24  26
ATOM     26  O   UNL     1      -1.064  11.566  20.556  0.00  0.00    +0.000 OA
ATOM     27  H   UNL     1      -1.256  10.650  20.836  0.00  0.00    +0.000 HD
ENDBRANCH  24  26
ENDBRANCH  21  24
ENDBRANCH  20  21
ENDBRANCH   1  20
TORSDOF 8
ENDMDL
MODEL 6
REMARK VINA RESULT:      -7.1      1.834      2.206
REMARK  Name = 
REMARK  11 active torsions:
REMARK  status: ('A' for Active; 'I' for Inactive)
REMARK    1  A    between atoms: C_1  and  C_2
REMARK    2  A    between atoms: C_2  and  C_3
REMARK    3  A    between atoms: C_3  and  S_4
REMARK    4  A    between atoms: C_3  and  C_24
REMARK    5  A    between atoms: S_4  and  C_5
REMARK    6  A    between atoms: C_11  and  C_12
REMARK    7  A    between atoms: C_15  and  O_16
REMARK    8  A    between atoms: O_16  and  C_17
REMARK    9  A    between atoms: C_18  and  O_19
REMARK   10  A    between atoms: O_19  and  C_20
REMARK   11  A    between atoms: C_24  and  O_26
REMARK                            x       y       z     vdW  Elec       q    Type
REMARK                         _______ _______ _______ _____ _____    ______ ____
ROOT
ATOM      1  C   UNL     1       5.106   4.565  19.104  0.00  0.00    +0.000 A 
ATOM      2  C   UNL     1       4.922   3.122  19.400  0.00  0.00    +0.000 A 
ATOM      3  C   UNL     1       3.770   2.769  19.979  0.00  0.00    +0.000 A 
ATOM      4  C   UNL     1       2.806   3.759  20.262  0.00  0.00    +0.000 A 
ATOM      5  N   UNL     1       1.606   3.690  20.788  0.00  0.00    +0.000 NA
ATOM      6  N   UNL     1       1.078   4.957  20.781  0.00  0.00    +0.000 NA
ATOM      7  C   UNL     1       1.968   5.795  20.267  0.00  0.00    +0.000 A 
ATOM      8  N   UNL     1       3.101   5.069  19.925  0.00  0.00    +0.000 N 
ATOM      9  N   UNL     1       4.263   5.513  19.330  0.00  0.00    +0.000 NA
ENDROOT
BRANCH   7  10
ATOM     10  C   UNL     1       1.745   7.228  20.045  0.00  0.00    +0.000 A 
ATOM     11  C   UNL     1       1.971   7.839  18.816  0.00  0.00    +0.000 A 
ATOM     12  C   UNL     1       1.720   9.200  18.642  0.00  0.00    +0.000 A 
ATOM     13  C   UNL     1       1.256   9.994  19.696  0.00  0.00    +0.000 A 
ATOM     14  C   UNL     1       1.054   9.407  20.958  0.00  0.00    +0.000 A 
ATOM     15  C   UNL     1       1.299   8.029  21.112  0.00  0.00    +0.000 A 
BRANCH  13  16
ATOM     16  O   UNL     1       1.061  11.292  19.308  0.00  0.00    +0.000 OA
ATOM     17  C   UNL     1      -0.235  11.705  18.909  0.00  0.00    +0.000 C 
ENDBRANCH  13  16
BRANCH  14  18
ATOM     18  O   UNL     1       0.630  10.207  21.986  0.00  0.00    +0.000 OA
ATOM     19  C   UNL     1      -0.025   9.600  23.092  0.00  0.00    +0.000 C 
ENDBRANCH  14  18
ENDBRANCH   7  10
BRANCH   1  20
ATOM     20  S   UNL     1       6.620   4.931  18.307  0.00  0.00    +0.000 S 
BRANCH  20  21
ATOM     21  C   UNL     1       6.082   5.112  16.566  0.00  0.00    +0.000 C 
BRANCH  21  23
ATOM     22  C   UNL     1       6.268   3.909  14.292  0.00  0.00    +0.000 C 
ATOM     23  C   UNL     1       6.985   4.419  15.535  0.00  0.00    +0.000 C 
ENDBRANCH  21  23
BRANCH  21  24
ATOM     24  C   UNL     1       5.853   6.574  16.197  0.00  0.00    +0.000 C 
ATOM     25  O   UNL     1       5.021   6.959  15.387  0.00  0.00    +0.000 OA
BRANCH  24  26
ATOM     26  O   UNL     1       6.600   7.449  16.916  0.00  0.00    +0.000 OA
ATOM     27  H   UNL     1       6.695   7.184  17.852  0.00  0.00    +0.000 HD
ENDBRANCH  24  26
ENDBRANCH  21  24
ENDBRANCH  20  21
ENDBRANCH   1  20
TORSDOF 8
ENDMDL
MODEL 7
REMARK VINA RESULT:      -7.0      2.582      4.099
REMARK  Name = 
REMARK  11 active torsions:
REMARK  status: ('A' for Active; 'I' for Inactive)
REMARK    1  A    between atoms: C_1  and  C_2
REMARK    2  A    between atoms: C_2  and  C_3
REMARK    3  A    between atoms: C_3  and  S_4
REMARK    4  A    between atoms: C_3  and  C_24
REMARK    5  A    between atoms: S_4  and  C_5
REMARK    6  A    between atoms: C_11  and  C_12
REMARK    7  A    between atoms: C_15  and  O_16
REMARK    8  A    between atoms: O_16  and  C_17
REMARK    9  A    between atoms: C_18  and  O_19
REMARK   10  A    between atoms: O_19  and  C_20
REMARK   11  A    between atoms: C_24  and  O_26
REMARK                            x       y       z     vdW  Elec       q    Type
REMARK                         _______ _______ _______ _____ _____    ______ ____
ROOT
ATOM      1  C   UNL     1       3.213   3.775  17.429  0.00  0.00    +0.000 A 
ATOM      2  C   UNL     1       4.481   3.355  16.781  0.00  0.00    +0.000 A 
ATOM      3  C   UNL     1       5.328   4.328  16.432  0.00  0.00    +0.000 A 
ATOM      4  C   UNL     1       4.989   5.671  16.700  0.00  0.00    +0.000 A 
ATOM      5  N   UNL     1       5.632   6.796  16.494  0.00  0.00    +0.000 NA
ATOM      6  N   UNL     1       4.860   7.811  17.001  0.00  0.00    +0.000 NA
ATOM      7  C   UNL     1       3.741   7.300  17.498  0.00  0.00    +0.000 A 
ATOM      8  N   UNL     1       3.777   5.924  17.319  0.00  0.00    +0.000 N 
ATOM      9  N   UNL     1       2.850   4.980  17.707  0.00  0.00    +0.000 NA
ENDROOT
BRANCH   7  10
ATOM     10  C   UNL     1       2.693   8.070  18.175  0.00  0.00    +0.000 A 
ATOM     11  C   UNL     1       2.038   9.138  17.568  0.00  0.00    +0.000 A 
ATOM     12  C   UNL     1       1.028   9.827  18.239  0.00  0.00    +0.000 A 
ATOM     13  C   UNL     1       0.656   9.482  19.543  0.00  0.00    +0.000 A 
ATOM     14  C   UNL     1       1.327   8.430  20.191  0.00  0.00    +0.000 A 
ATOM     15  C   UNL     1       2.336   7.737  19.494  0.00  0.00    +0.000 A 
BRANCH  13  16
ATOM     16  O   UNL     1      -0.362  10.271  20.007  0.00  0.00    +0.000 OA
ATOM     17  C   UNL     1      -1.292  10.810  19.083  0.00  0.00    +0.000 C 
ENDBRANCH  13  16
BRANCH  14  18
ATOM     18  O   UNL     1       0.972   8.129  21.479  0.00  0.00    +0.000 OA
ATOM     19  C   UNL     1       1.235   9.085  22.498  0.00  0.00    +0.000 C 
ENDBRANCH  14  18
ENDBRANCH   7  10
BRANCH   1  20
ATOM     20  S   UNL     1       2.185   2.437  17.894  0.00  0.00    +0.000 S 
BRANCH  20  21
ATOM     21  C   UNL     1       2.744   2.125  19.609  0.00  0.00    +0.000 C 
BRANCH  21  23
ATOM     22  C   UNL     1       1.119   3.849  20.628  0.00  0.00    +0.000 C 
ATOM     23  C   UNL     1       2.536   3.296  20.581  0.00  0.00    +0.000 C 
ENDBRANCH  21  23
BRANCH  21  24
ATOM     24  C   UNL     1       4.187   1.630  19.649  0.00  0.00    +0.000 C 
ATOM     25  O   UNL     1       5.027   2.019  20.449  0.00  0.00    +0.000 OA
BRANCH  24  26
ATOM     26  O   UNL     1       4.454   0.636  18.767  0.00  0.00    +0.000 OA
ATOM     27  H   UNL     1       3.735   0.502  18.119  0.00  0.00    +0.000 HD
ENDBRANCH  24  26
ENDBRANCH  21  24
ENDBRANCH  20  21
ENDBRANCH   1  20
TORSDOF 8
ENDMDL
MODEL 8
REMARK VINA RESULT:      -7.0      1.449      1.789
REMARK  Name = 
REMARK  11 active torsions:
REMARK  status: ('A' for Active; 'I' for Inactive)
REMARK    1  A    between atoms: C_1  and  C_2
REMARK    2  A    between atoms: C_2  and  C_3
REMARK    3  A    between atoms: C_3  and  S_4
REMARK    4  A    between atoms: C_3  and  C_24
REMARK    5  A    between atoms: S_4  and  C_5
REMARK    6  A    between atoms: C_11  and  C_12
REMARK    7  A    between atoms: C_15  and  O_16
REMARK    8  A    between atoms: O_16  and  C_17
REMARK    9  A    between atoms: C_18  and  O_19
REMARK   10  A    between atoms: O_19  and  C_20
REMARK   11  A    between atoms: C_24  and  O_26
REMARK                            x       y       z     vdW  Elec       q    Type
REMARK                         _______ _______ _______ _____ _____    ______ ____
ROOT
ATOM      1  C   UNL     1       5.043   4.476  19.019  0.00  0.00    +0.000 A 
ATOM      2  C   UNL     1       4.838   3.080  19.483  0.00  0.00    +0.000 A 
ATOM      3  C   UNL     1       3.706   2.828  20.148  0.00  0.00    +0.000 A 
ATOM      4  C   UNL     1       2.781   3.871  20.360  0.00  0.00    +0.000 A 
ATOM      5  N   UNL     1       1.606   3.896  20.943  0.00  0.00    +0.000 NA
ATOM      6  N   UNL     1       1.110   5.170  20.817  0.00  0.00    +0.000 NA
ATOM      7  C   UNL     1       1.995   5.920  20.174  0.00  0.00    +0.000 A 
ATOM      8  N   UNL     1       3.092   5.126  19.866  0.00  0.00    +0.000 N 
ATOM      9  N   UNL     1       4.236   5.468  19.174  0.00  0.00    +0.000 NA
ENDROOT
BRANCH   7  10
ATOM     10  C   UNL     1       1.797   7.325  19.803  0.00  0.00    +0.000 A 
ATOM     11  C   UNL     1       2.039   7.801  18.518  0.00  0.00    +0.000 A 
ATOM     12  C   UNL     1       1.812   9.141  18.202  0.00  0.00    +0.000 A 
ATOM     13  C   UNL     1       1.356  10.047  19.165  0.00  0.00    +0.000 A 
ATOM     14  C   UNL     1       1.139   9.598  20.480  0.00  0.00    +0.000 A 
ATOM     15  C   UNL     1       1.360   8.240  20.779  0.00  0.00    +0.000 A 
BRANCH  13  16
ATOM     16  O   UNL     1       1.184  11.301  18.643  0.00  0.00    +0.000 OA
ATOM     17  C   UNL     1       2.327  12.082  18.336  0.00  0.00    +0.000 C 
ENDBRANCH  13  16
BRANCH  14  18
ATOM     18  O   UNL     1       0.724  10.507  21.417  0.00  0.00    +0.000 OA
ATOM     19  C   UNL     1      -0.672  10.680  21.624  0.00  0.00    +0.000 C 
ENDBRANCH  14  18
ENDBRANCH   7  10
BRANCH   1  20
ATOM     20  S   UNL     1       6.527   4.706  18.120  0.00  0.00    +0.000 S 
BRANCH  20  21
ATOM     21  C   UNL     1       6.322   6.420  17.510  0.00  0.00    +0.000 C 
BRANCH  21  23
ATOM     22  C   UNL     1       5.752   5.213  15.302  0.00  0.00    +0.000 C 
ATOM     23  C   UNL     1       5.863   6.535  16.048  0.00  0.00    +0.000 C 
ENDBRANCH  21  23
BRANCH  21  24
ATOM     24  C   UNL     1       7.571   7.259  17.759  0.00  0.00    +0.000 C 
ATOM     25  O   UNL     1       7.880   8.247  17.106  0.00  0.00    +0.000 OA
BRANCH  24  26
ATOM     26  O   UNL     1       8.288   6.873  18.842  0.00  0.00    +0.000 OA
ATOM     27  H   UNL     1       8.754   7.616  19.272  0.00  0.00    +0.000 HD
ENDBRANCH  24  26
ENDBRANCH  21  24
ENDBRANCH  20  21
ENDBRANCH   1  20
TORSDOF 8
ENDMDL
MODEL 9
REMARK VINA RESULT:      -7.0      1.417      1.732
REMARK  Name = 
REMARK  11 active torsions:
REMARK  status: ('A' for Active; 'I' for Inactive)
REMARK    1  A    between atoms: C_1  and  C_2
REMARK    2  A    between atoms: C_2  and  C_3
REMARK    3  A    between atoms: C_3  and  S_4
REMARK    4  A    between atoms: C_3  and  C_24
REMARK    5  A    between atoms: S_4  and  C_5
REMARK    6  A    between atoms: C_11  and  C_12
REMARK    7  A    between atoms: C_15  and  O_16
REMARK    8  A    between atoms: O_16  and  C_17
REMARK    9  A    between atoms: C_18  and  O_19
REMARK   10  A    between atoms: O_19  and  C_20
REMARK   11  A    between atoms: C_24  and  O_26
REMARK                            x       y       z     vdW  Elec       q    Type
REMARK                         _______ _______ _______ _____ _____    ______ ____
ROOT
ATOM      1  C   UNL     1       4.497   4.230  17.590  0.00  0.00    +0.000 A 
ATOM      2  C   UNL     1       4.519   2.883  18.215  0.00  0.00    +0.000 A 
ATOM      3  C   UNL     1       3.832   2.737  19.351  0.00  0.00    +0.000 A 
ATOM      4  C   UNL     1       3.129   3.839  19.883  0.00  0.00    +0.000 A 
ATOM      5  N   UNL     1       2.368   3.964  20.944  0.00  0.00    +0.000 NA
ATOM      6  N   UNL     1       1.887   5.250  20.957  0.00  0.00    +0.000 NA
ATOM      7  C   UNL     1       2.373   5.906  19.911  0.00  0.00    +0.000 A 
ATOM      8  N   UNL     1       3.185   5.038  19.194  0.00  0.00    +0.000 N 
ATOM      9  N   UNL     1       3.870   5.271  18.020  0.00  0.00    +0.000 NA
ENDROOT
BRANCH   7  10
ATOM     10  C   UNL     1       2.040   7.290  19.558  0.00  0.00    +0.000 A 
ATOM     11  C   UNL     1       2.349   7.840  18.317  0.00  0.00    +0.000 A 
ATOM     12  C   UNL     1       1.991   9.154  18.014  0.00  0.00    +0.000 A 
ATOM     13  C   UNL     1       1.331   9.961  18.946  0.00  0.00    +0.000 A 
ATOM     14  C   UNL     1       1.039   9.440  20.219  0.00  0.00    +0.000 A 
ATOM     15  C   UNL     1       1.396   8.108  20.504  0.00  0.00    +0.000 A 
BRANCH  13  16
ATOM     16  O   UNL     1       1.058  11.204  18.440  0.00  0.00    +0.000 OA
ATOM     17  C   UNL     1       2.029  12.229  18.570  0.00  0.00    +0.000 C 
ENDBRANCH  13  16
BRANCH  14  18
ATOM     18  O   UNL     1       0.422  10.256  21.129  0.00  0.00    +0.000 OA
ATOM     19  C   UNL     1       0.213   9.767  22.448  0.00  0.00    +0.000 C 
ENDBRANCH  14  18
ENDBRANCH   7  10
BRANCH   1  20
ATOM     20  S   UNL     1       5.383   4.321  16.084  0.00  0.00    +0.000 S 
BRANCH  20  21
ATOM     21  C   UNL     1       6.945   5.107  16.625  0.00  0.00    +0.000 C 
BRANCH  21  23
ATOM     22  C   UNL     1       7.366   5.624  19.116  0.00  0.00    +0.000 C 
ATOM     23  C   UNL     1       7.480   4.619  17.979  0.00  0.00    +0.000 C 
ENDBRANCH  21  23
BRANCH  21  24
ATOM     24  C   UNL     1       6.850   6.629  16.592  0.00  0.00    +0.000 C 
ATOM     25  O   UNL     1       7.811   7.383  16.666  0.00  0.00    +0.000 OA
BRANCH  24  26
ATOM     26  O   UNL     1       5.596   7.099  16.379  0.00  0.00    +0.000 OA
ATOM     27  H   UNL     1       5.487   7.500  15.495  0.00  0.00    +0.000 HD
ENDBRANCH  24  26
ENDBRANCH  21  24
ENDBRANCH  20  21
ENDBRANCH   1  20
TORSDOF 8
ENDMDL
