MODEL 1
REMARK VINA RESULT:      -7.8      0.000      0.000
REMARK  Name = 
REMARK  5 active torsions:
REMARK  status: ('A' for Active; 'I' for Inactive)
REMARK    1  A    between atoms: O_1  and  C_2
REMARK    2  A    between atoms: N_5  and  C_6
REMARK    3  A    between atoms: N_5  and  C_13
REMARK    4  A    between atoms: C_6  and  C_7
REMARK    5  A    between atoms: C_13  and  C_14
REMARK                            x       y       z     vdW  Elec       q    Type
REMARK                         _______ _______ _______ _____ _____    ______ ____
ROOT
ATOM      1  C   UNL     1       2.492   2.609  18.943  0.00  0.00    +0.000 C 
ATOM      2  C   UNL     1       1.303   3.499  18.692  0.00  0.00    +0.000 C 
ATOM      3  C   UNL     1       1.898   4.512  17.738  0.00  0.00    +0.000 C 
ATOM      4  N   UNL     1       3.275   4.762  18.333  0.00  0.00    +0.000 N 
ATOM      5  O   UNL     1       3.654   3.475  18.949  0.00  0.00    +0.000 OA
ENDROOT
BRANCH   1   6
ATOM      6  O   UNL     1       2.580   1.665  17.892  0.00  0.00    +0.000 OA
ATOM      7  H   UNL     1       2.199   2.081  17.096  0.00  0.00    +0.000 HD
ENDBRANCH   1   6
BRANCH   4   8
ATOM      8  C   UNL     1       4.315   5.107  17.251  0.00  0.00    +0.000 C 
BRANCH   8   9
ATOM      9  C   UNL     1       5.614   5.722  17.729  0.00  0.00    +0.000 A 
ATOM     10  C   UNL     1       6.397   5.100  18.714  0.00  0.00    +0.000 A 
ATOM     11  C   UNL     1       7.608   5.661  19.128  0.00  0.00    +0.000 A 
ATOM     12  C   UNL     1       8.066   6.841  18.547  0.00  0.00    +0.000 A 
ATOM     13  C   UNL     1       7.307   7.461  17.559  0.00  0.00    +0.000 A 
ATOM     14  C   UNL     1       6.086   6.908  17.155  0.00  0.00    +0.000 A 
ENDBRANCH   8   9
ENDBRANCH   4   8
BRANCH   4  15
ATOM     15  C   UNL     1       3.237   5.820  19.455  0.00  0.00    +0.000 C 
BRANCH  15  16
ATOM     16  C   UNL     1       2.560   7.146  19.183  0.00  0.00    +0.000 A 
ATOM     17  C   UNL     1       1.793   7.730  20.208  0.00  0.00    +0.000 A 
ATOM     18  C   UNL     1       1.112   8.932  19.998  0.00  0.00    +0.000 A 
ATOM     19  C   UNL     1       1.195   9.574  18.766  0.00  0.00    +0.000 A 
ATOM     20  C   UNL     1       1.983   9.035  17.757  0.00  0.00    +0.000 A 
ATOM     21  C   UNL     1       2.679   7.845  17.973  0.00  0.00    +0.000 A 
ENDBRANCH  15  16
ENDBRANCH   4  15
TORSDOF 5
ENDMDL
MODEL 2
REMARK VINA RESULT:      -7.8      0.178      1.091
REMARK  Name = 
REMARK  5 active torsions:
REMARK  status: ('A' for Active; 'I' for Inactive)
REMARK    1  A    between atoms: O_1  and  C_2
REMARK    2  A    between atoms: N_5  and  C_6
REMARK    3  A    between atoms: N_5  and  C_13
REMARK    4  A    between atoms: C_6  and  C_7
REMARK    5  A    between atoms: C_13  and  C_14
REMARK                            x       y       z     vdW  Elec       q    Type
REMARK                         _______ _______ _______ _____ _____    ______ ____
ROOT
ATOM      1  C   UNL     1       2.308   2.652  19.053  0.00  0.00    +0.000 C 
ATOM      2  C   UNL     1       1.231   3.662  18.763  0.00  0.00    +0.000 C 
ATOM      3  C   UNL     1       1.943   4.572  17.786  0.00  0.00    +0.000 C 
ATOM      4  N   UNL     1       3.336   4.682  18.386  0.00  0.00    +0.000 N 
ATOM      5  O   UNL     1       3.561   3.379  19.044  0.00  0.00    +0.000 OA
ENDROOT
BRANCH   1   6
ATOM      6  O   UNL     1       2.295   1.672  18.031  0.00  0.00    +0.000 OA
ATOM      7  H   UNL     1       2.942   1.949  17.355  0.00  0.00    +0.000 HD
ENDBRANCH   1   6
BRANCH   4   8
ATOM      8  C   UNL     1       4.416   4.872  17.305  0.00  0.00    +0.000 C 
BRANCH   8   9
ATOM      9  C   UNL     1       5.669   5.615  17.719  0.00  0.00    +0.000 A 
ATOM     10  C   UNL     1       6.533   5.097  18.697  0.00  0.00    +0.000 A 
ATOM     11  C   UNL     1       7.702   5.776  19.052  0.00  0.00    +0.000 A 
ATOM     12  C   UNL     1       8.036   6.971  18.420  0.00  0.00    +0.000 A 
ATOM     13  C   UNL     1       7.196   7.488  17.438  0.00  0.00    +0.000 A 
ATOM     14  C   UNL     1       6.016   6.817  17.093  0.00  0.00    +0.000 A 
ENDBRANCH   8   9
ENDBRANCH   4   8
BRANCH   4  15
ATOM     15  C   UNL     1       3.412   5.771  19.476  0.00  0.00    +0.000 C 
BRANCH  15  16
ATOM     16  C   UNL     1       2.607   7.040  19.294  0.00  0.00    +0.000 A 
ATOM     17  C   UNL     1       2.666   7.699  18.052  0.00  0.00    +0.000 A 
ATOM     18  C   UNL     1       1.977   8.897  17.843  0.00  0.00    +0.000 A 
ATOM     19  C   UNL     1       1.209   9.447  18.865  0.00  0.00    +0.000 A 
ATOM     20  C   UNL     1       1.103   8.787  20.083  0.00  0.00    +0.000 A 
ATOM     21  C   UNL     1       1.776   7.581  20.286  0.00  0.00    +0.000 A 
ENDBRANCH  15  16
ENDBRANCH   4  15
TORSDOF 5
ENDMDL
MODEL 3
REMARK VINA RESULT:      -7.8      1.312      2.130
REMARK  Name = 
REMARK  5 active torsions:
REMARK  status: ('A' for Active; 'I' for Inactive)
REMARK    1  A    between atoms: O_1  and  C_2
REMARK    2  A    between atoms: N_5  and  C_6
REMARK    3  A    between atoms: N_5  and  C_13
REMARK    4  A    between atoms: C_6  and  C_7
REMARK    5  A    between atoms: C_13  and  C_14
REMARK                            x       y       z     vdW  Elec       q    Type
REMARK                         _______ _______ _______ _____ _____    ______ ____
ROOT
ATOM      1  C   UNL     1       4.051   2.512  19.953  0.00  0.00    +0.000 C 
ATOM      2  C   UNL     1       3.071   1.684  19.166  0.00  0.00    +0.000 C 
ATOM      3  C   UNL     1       3.505   1.993  17.750  0.00  0.00    +0.000 C 
ATOM      4  N   UNL     1       3.795   3.485  17.806  0.00  0.00    +0.000 N 
ATOM      5  O   UNL     1       4.278   3.717  19.182  0.00  0.00    +0.000 OA
ENDROOT
BRANCH   1   6
ATOM      6  O   UNL     1       5.253   1.778  20.093  0.00  0.00    +0.000 OA
ATOM      7  H   UNL     1       5.460   1.739  21.046  0.00  0.00    +0.000 HD
ENDBRANCH   1   6
BRANCH   4   8
ATOM      8  C   UNL     1       4.910   3.892  16.825  0.00  0.00    +0.000 C 
BRANCH   8   9
ATOM      9  C   UNL     1       5.859   4.977  17.289  0.00  0.00    +0.000 A 
ATOM     10  C   UNL     1       6.926   4.691  18.156  0.00  0.00    +0.000 A 
ATOM     11  C   UNL     1       7.813   5.694  18.555  0.00  0.00    +0.000 A 
ATOM     12  C   UNL     1       7.662   6.993  18.076  0.00  0.00    +0.000 A 
ATOM     13  C   UNL     1       6.617   7.287  17.204  0.00  0.00    +0.000 A 
ATOM     14  C   UNL     1       5.718   6.287  16.817  0.00  0.00    +0.000 A 
ENDBRANCH   8   9
ENDBRANCH   4   8
BRANCH   4  15
ATOM     15  C   UNL     1       2.518   4.329  17.613  0.00  0.00    +0.000 C 
BRANCH  15  16
ATOM     16  C   UNL     1       2.261   5.485  18.556  0.00  0.00    +0.000 A 
ATOM     17  C   UNL     1       2.462   6.794  18.083  0.00  0.00    +0.000 A 
ATOM     18  C   UNL     1       2.280   7.896  18.924  0.00  0.00    +0.000 A 
ATOM     19  C   UNL     1       1.882   7.708  20.243  0.00  0.00    +0.000 A 
ATOM     20  C   UNL     1       1.635   6.424  20.715  0.00  0.00    +0.000 A 
ATOM     21  C   UNL     1       1.798   5.325  19.871  0.00  0.00    +0.000 A 
ENDBRANCH  15  16
ENDBRANCH   4  15
TORSDOF 5
ENDMDL
MODEL 4
REMARK VINA RESULT:      -7.8      0.273      1.544
REMARK  Name = 
REMARK  5 active torsions:
REMARK  status: ('A' for Active; 'I' for Inactive)
REMARK    1  A    between atoms: O_1  and  C_2
REMARK    2  A    between atoms: N_5  and  C_6
REMARK    3  A    between atoms: N_5  and  C_13
REMARK    4  A    between atoms: C_6  and  C_7
REMARK    5  A    between atoms: C_13  and  C_14
REMARK                            x       y       z     vdW  Elec       q    Type
REMARK                         _______ _______ _______ _____ _____    ______ ____
ROOT
ATOM      1  C   UNL     1       2.284   2.681  19.328  0.00  0.00    +0.000 C 
ATOM      2  C   UNL     1       1.198   3.681  19.036  0.00  0.00    +0.000 C 
ATOM      3  C   UNL     1       1.866   4.532  17.978  0.00  0.00    +0.000 C 
ATOM      4  N   UNL     1       3.286   4.666  18.505  0.00  0.00    +0.000 N 
ATOM      5  O   UNL     1       3.538   3.399  19.221  0.00  0.00    +0.000 OA
ENDROOT
BRANCH   1   6
ATOM      6  O   UNL     1       2.219   1.647  18.362  0.00  0.00    +0.000 OA
ATOM      7  H   UNL     1       1.535   1.900  17.714  0.00  0.00    +0.000 HD
ENDBRANCH   1   6
BRANCH   4   8
ATOM      8  C   UNL     1       4.314   4.791  17.365  0.00  0.00    +0.000 C 
BRANCH   8   9
ATOM      9  C   UNL     1       5.598   5.527  17.686  0.00  0.00    +0.000 A 
ATOM     10  C   UNL     1       5.926   6.734  17.048  0.00  0.00    +0.000 A 
ATOM     11  C   UNL     1       7.099   7.419  17.372  0.00  0.00    +0.000 A 
ATOM     12  C   UNL     1       7.952   6.922  18.354  0.00  0.00    +0.000 A 
ATOM     13  C   UNL     1       7.632   5.733  19.005  0.00  0.00    +0.000 A 
ATOM     14  C   UNL     1       6.465   5.037  18.669  0.00  0.00    +0.000 A 
ENDBRANCH   8   9
ENDBRANCH   4   8
BRANCH   4  15
ATOM     15  C   UNL     1       3.418   5.811  19.530  0.00  0.00    +0.000 C 
BRANCH  15  16
ATOM     16  C   UNL     1       2.599   7.068  19.326  0.00  0.00    +0.000 A 
ATOM     17  C   UNL     1       2.623   7.686  18.062  0.00  0.00    +0.000 A 
ATOM     18  C   UNL     1       1.919   8.871  17.830  0.00  0.00    +0.000 A 
ATOM     19  C   UNL     1       1.172   9.449  18.851  0.00  0.00    +0.000 A 
ATOM     20  C   UNL     1       1.101   8.829  20.093  0.00  0.00    +0.000 A 
ATOM     21  C   UNL     1       1.787   7.636  20.319  0.00  0.00    +0.000 A 
ENDBRANCH  15  16
ENDBRANCH   4  15
TORSDOF 5
ENDMDL
MODEL 5
REMARK VINA RESULT:      -7.8      1.317      2.374
REMARK  Name = 
REMARK  5 active torsions:
REMARK  status: ('A' for Active; 'I' for Inactive)
REMARK    1  A    between atoms: O_1  and  C_2
REMARK    2  A    between atoms: N_5  and  C_6
REMARK    3  A    between atoms: N_5  and  C_13
REMARK    4  A    between atoms: C_6  and  C_7
REMARK    5  A    between atoms: C_13  and  C_14
REMARK                            x       y       z     vdW  Elec       q    Type
REMARK                         _______ _______ _______ _____ _____    ______ ____
ROOT
ATOM      1  C   UNL     1       4.072   2.544  19.948  0.00  0.00    +0.000 C 
ATOM      2  C   UNL     1       3.072   1.701  19.203  0.00  0.00    +0.000 C 
ATOM      3  C   UNL     1       3.472   1.978  17.770  0.00  0.00    +0.000 C 
ATOM      4  N   UNL     1       3.765   3.470  17.787  0.00  0.00    +0.000 N 
ATOM      5  O   UNL     1       4.281   3.732  19.146  0.00  0.00    +0.000 OA
ENDROOT
BRANCH   1   6
ATOM      6  O   UNL     1       5.277   1.811  20.074  0.00  0.00    +0.000 OA
ATOM      7  H   UNL     1       5.034   0.875  20.200  0.00  0.00    +0.000 HD
ENDBRANCH   1   6
BRANCH   4   8
ATOM      8  C   UNL     1       4.855   3.854  16.771  0.00  0.00    +0.000 C 
BRANCH   8   9
ATOM      9  C   UNL     1       5.833   4.930  17.197  0.00  0.00    +0.000 A 
ATOM     10  C   UNL     1       5.667   6.266  16.797  0.00  0.00    +0.000 A 
ATOM     11  C   UNL     1       6.557   7.256  17.219  0.00  0.00    +0.000 A 
ATOM     12  C   UNL     1       7.614   6.931  18.066  0.00  0.00    +0.000 A 
ATOM     13  C   UNL     1       7.782   5.613  18.482  0.00  0.00    +0.000 A 
ATOM     14  C   UNL     1       6.900   4.618  18.047  0.00  0.00    +0.000 A 
ENDBRANCH   8   9
ENDBRANCH   4   8
BRANCH   4  15
ATOM     15  C   UNL     1       2.485   4.313  17.607  0.00  0.00    +0.000 C 
BRANCH  15  16
ATOM     16  C   UNL     1       2.243   5.478  18.543  0.00  0.00    +0.000 A 
ATOM     17  C   UNL     1       2.455   6.782  18.059  0.00  0.00    +0.000 A 
ATOM     18  C   UNL     1       2.287   7.891  18.892  0.00  0.00    +0.000 A 
ATOM     19  C   UNL     1       1.894   7.717  20.215  0.00  0.00    +0.000 A 
ATOM     20  C   UNL     1       1.637   6.439  20.698  0.00  0.00    +0.000 A 
ATOM     21  C   UNL     1       1.786   5.333  19.861  0.00  0.00    +0.000 A 
ENDBRANCH  15  16
ENDBRANCH   4  15
TORSDOF 5
ENDMDL
MODEL 6
REMARK VINA RESULT:      -7.7      1.315      1.915
REMARK  Name = 
REMARK  5 active torsions:
REMARK  status: ('A' for Active; 'I' for Inactive)
REMARK    1  A    between atoms: O_1  and  C_2
REMARK    2  A    between atoms: N_5  and  C_6
REMARK    3  A    between atoms: N_5  and  C_13
REMARK    4  A    between atoms: C_6  and  C_7
REMARK    5  A    between atoms: C_13  and  C_14
REMARK                            x       y       z     vdW  Elec       q    Type
REMARK                         _______ _______ _______ _____ _____    ______ ____
ROOT
ATOM      1  C   UNL     1       4.011   2.503  19.992  0.00  0.00    +0.000 C 
ATOM      2  C   UNL     1       3.006   1.679  19.233  0.00  0.00    +0.000 C 
ATOM      3  C   UNL     1       3.420   1.962  17.806  0.00  0.00    +0.000 C 
ATOM      4  N   UNL     1       3.732   3.451  17.837  0.00  0.00    +0.000 N 
ATOM      5  O   UNL     1       4.242   3.694  19.201  0.00  0.00    +0.000 OA
ENDROOT
BRANCH   1   6
ATOM      6  O   UNL     1       5.205   1.753  20.121  0.00  0.00    +0.000 OA
ATOM      7  H   UNL     1       5.572   1.940  21.005  0.00  0.00    +0.000 HD
ENDBRANCH   1   6
BRANCH   4   8
ATOM      8  C   UNL     1       4.835   3.829  16.832  0.00  0.00    +0.000 C 
BRANCH   8   9
ATOM      9  C   UNL     1       5.783   4.934  17.248  0.00  0.00    +0.000 A 
ATOM     10  C   UNL     1       6.923   4.663  18.022  0.00  0.00    +0.000 A 
ATOM     11  C   UNL     1       7.807   5.685  18.376  0.00  0.00    +0.000 A 
ATOM     12  C   UNL     1       7.579   6.989  17.945  0.00  0.00    +0.000 A 
ATOM     13  C   UNL     1       6.460   7.269  17.165  0.00  0.00    +0.000 A 
ATOM     14  C   UNL     1       5.565   6.249  16.823  0.00  0.00    +0.000 A 
ENDBRANCH   8   9
ENDBRANCH   4   8
BRANCH   4  15
ATOM     15  C   UNL     1       2.464   4.311  17.655  0.00  0.00    +0.000 C 
BRANCH  15  16
ATOM     16  C   UNL     1       2.260   5.506  18.561  0.00  0.00    +0.000 A 
ATOM     17  C   UNL     1       1.805   5.284  19.873  0.00  0.00    +0.000 A 
ATOM     18  C   UNL     1       1.558   6.353  20.738  0.00  0.00    +0.000 A 
ATOM     19  C   UNL     1       1.775   7.659  20.311  0.00  0.00    +0.000 A 
ATOM     20  C   UNL     1       2.267   7.896  19.032  0.00  0.00    +0.000 A 
ATOM     21  C   UNL     1       2.531   6.828  18.175  0.00  0.00    +0.000 A 
ENDBRANCH  15  16
ENDBRANCH   4  15
TORSDOF 5
ENDMDL
MODEL 7
REMARK VINA RESULT:      -7.7      1.338      2.193
REMARK  Name = 
REMARK  5 active torsions:
REMARK  status: ('A' for Active; 'I' for Inactive)
REMARK    1  A    between atoms: O_1  and  C_2
REMARK    2  A    between atoms: N_5  and  C_6
REMARK    3  A    between atoms: N_5  and  C_13
REMARK    4  A    between atoms: C_6  and  C_7
REMARK    5  A    between atoms: C_13  and  C_14
REMARK                            x       y       z     vdW  Elec       q    Type
REMARK                         _______ _______ _______ _____ _____    ______ ____
ROOT
ATOM      1  C   UNL     1       4.025   2.496  19.966  0.00  0.00    +0.000 C 
ATOM      2  C   UNL     1       3.005   1.675  19.223  0.00  0.00    +0.000 C 
ATOM      3  C   UNL     1       3.416   1.934  17.790  0.00  0.00    +0.000 C 
ATOM      4  N   UNL     1       3.747   3.418  17.800  0.00  0.00    +0.000 N 
ATOM      5  O   UNL     1       4.267   3.674  19.158  0.00  0.00    +0.000 OA
ENDROOT
BRANCH   1   6
ATOM      6  O   UNL     1       5.210   1.733  20.100  0.00  0.00    +0.000 OA
ATOM      7  H   UNL     1       5.959   2.321  19.887  0.00  0.00    +0.000 HD
ENDBRANCH   1   6
BRANCH   4   8
ATOM      8  C   UNL     1       4.850   3.769  16.784  0.00  0.00    +0.000 C 
BRANCH   8   9
ATOM      9  C   UNL     1       5.803   4.880  17.173  0.00  0.00    +0.000 A 
ATOM     10  C   UNL     1       5.565   6.210  16.792  0.00  0.00    +0.000 A 
ATOM     11  C   UNL     1       6.435   7.233  17.181  0.00  0.00    +0.000 A 
ATOM     12  C   UNL     1       7.543   6.945  17.974  0.00  0.00    +0.000 A 
ATOM     13  C   UNL     1       7.782   5.633  18.371  0.00  0.00    +0.000 A 
ATOM     14  C   UNL     1       6.920   4.605  17.969  0.00  0.00    +0.000 A 
ENDBRANCH   8   9
ENDBRANCH   4   8
BRANCH   4  15
ATOM     15  C   UNL     1       2.489   4.292  17.612  0.00  0.00    +0.000 C 
BRANCH  15  16
ATOM     16  C   UNL     1       2.279   5.473  18.536  0.00  0.00    +0.000 A 
ATOM     17  C   UNL     1       1.805   5.230  19.837  0.00  0.00    +0.000 A 
ATOM     18  C   UNL     1       1.553   6.286  20.717  0.00  0.00    +0.000 A 
ATOM     19  C   UNL     1       1.783   7.598  20.316  0.00  0.00    +0.000 A 
ATOM     20  C   UNL     1       2.293   7.854  19.049  0.00  0.00    +0.000 A 
ATOM     21  C   UNL     1       2.563   6.799  18.177  0.00  0.00    +0.000 A 
ENDBRANCH  15  16
ENDBRANCH   4  15
TORSDOF 5
ENDMDL
MODEL 8
REMARK VINA RESULT:      -7.4      1.078      4.744
REMARK  Name = 
REMARK  5 active torsions:
REMARK  status: ('A' for Active; 'I' for Inactive)
REMARK    1  A    between atoms: O_1  and  C_2
REMARK    2  A    between atoms: N_5  and  C_6
REMARK    3  A    between atoms: N_5  and  C_13
REMARK    4  A    between atoms: C_6  and  C_7
REMARK    5  A    between atoms: C_13  and  C_14
REMARK                            x       y       z     vdW  Elec       q    Type
REMARK                         _______ _______ _______ _____ _____    ______ ____
ROOT
ATOM      1  C   UNL     1       1.163   3.312  18.839  0.00  0.00    +0.000 C 
ATOM      2  C   UNL     1       2.350   2.437  19.142  0.00  0.00    +0.000 C 
ATOM      3  C   UNL     1       3.244   3.408  19.882  0.00  0.00    +0.000 C 
ATOM      4  N   UNL     1       3.077   4.691  19.084  0.00  0.00    +0.000 N 
ATOM      5  O   UNL     1       1.691   4.636  18.577  0.00  0.00    +0.000 OA
ENDROOT
BRANCH   1   6
ATOM      6  O   UNL     1       0.315   3.331  19.972  0.00  0.00    +0.000 OA
ATOM      7  H   UNL     1       0.620   4.055  20.551  0.00  0.00    +0.000 HD
ENDBRANCH   1   6
BRANCH   4   8
ATOM      8  C   UNL     1       3.220   5.943  19.969  0.00  0.00    +0.000 C 
BRANCH   8   9
ATOM      9  C   UNL     1       2.422   7.162  19.555  0.00  0.00    +0.000 A 
ATOM     10  C   UNL     1       1.612   7.849  20.474  0.00  0.00    +0.000 A 
ATOM     11  C   UNL     1       0.903   8.989  20.089  0.00  0.00    +0.000 A 
ATOM     12  C   UNL     1       1.009   9.475  18.788  0.00  0.00    +0.000 A 
ATOM     13  C   UNL     1       1.821   8.812  17.872  0.00  0.00    +0.000 A 
ATOM     14  C   UNL     1       2.519   7.660  18.251  0.00  0.00    +0.000 A 
ENDBRANCH   8   9
ENDBRANCH   4   8
BRANCH   4  15
ATOM     15  C   UNL     1       4.016   4.738  17.860  0.00  0.00    +0.000 C 
BRANCH  15  16
ATOM     16  C   UNL     1       5.343   5.455  17.989  0.00  0.00    +0.000 A 
ATOM     17  C   UNL     1       5.569   6.595  17.196  0.00  0.00    +0.000 A 
ATOM     18  C   UNL     1       6.791   7.270  17.244  0.00  0.00    +0.000 A 
ATOM     19  C   UNL     1       7.801   6.826  18.091  0.00  0.00    +0.000 A 
ATOM     20  C   UNL     1       7.580   5.728  18.914  0.00  0.00    +0.000 A 
ATOM     21  C   UNL     1       6.353   5.065  18.881  0.00  0.00    +0.000 A 
ENDBRANCH  15  16
ENDBRANCH   4  15
TORSDOF 5
ENDMDL
MODEL 9
REMARK VINA RESULT:      -7.4      1.829      4.650
REMARK  Name = 
REMARK  5 active torsions:
REMARK  status: ('A' for Active; 'I' for Inactive)
REMARK    1  A    between atoms: O_1  and  C_2
REMARK    2  A    between atoms: N_5  and  C_6
REMARK    3  A    between atoms: N_5  and  C_13
REMARK    4  A    between atoms: C_6  and  C_7
REMARK    5  A    between atoms: C_13  and  C_14
REMARK                            x       y       z     vdW  Elec       q    Type
REMARK                         _______ _______ _______ _____ _____    ______ ____
ROOT
ATOM      1  C   UNL     1       7.168   4.953  17.420  0.00  0.00    +0.000 C 
ATOM      2  C   UNL     1       6.634   5.889  18.471  0.00  0.00    +0.000 C 
ATOM      3  C   UNL     1       5.521   5.053  19.064  0.00  0.00    +0.000 C 
ATOM      4  N   UNL     1       4.898   4.406  17.837  0.00  0.00    +0.000 N 
ATOM      5  O   UNL     1       6.024   4.235  16.896  0.00  0.00    +0.000 OA
ENDROOT
BRANCH   1   6
ATOM      6  O   UNL     1       8.078   4.057  18.032  0.00  0.00    +0.000 OA
ATOM      7  H   UNL     1       8.064   4.241  18.990  0.00  0.00    +0.000 HD
ENDBRANCH   1   6
BRANCH   4   8
ATOM      8  C   UNL     1       4.314   3.017  18.152  0.00  0.00    +0.000 C 
BRANCH   8   9
ATOM      9  C   UNL     1       3.199   2.965  19.175  0.00  0.00    +0.000 A 
ATOM     10  C   UNL     1       1.850   2.963  18.784  0.00  0.00    +0.000 A 
ATOM     11  C   UNL     1       0.829   2.887  19.735  0.00  0.00    +0.000 A 
ATOM     12  C   UNL     1       1.139   2.788  21.089  0.00  0.00    +0.000 A 
ATOM     13  C   UNL     1       2.473   2.774  21.489  0.00  0.00    +0.000 A 
ATOM     14  C   UNL     1       3.496   2.867  20.539  0.00  0.00    +0.000 A 
ENDBRANCH   8   9
ENDBRANCH   4   8
BRANCH   4  15
ATOM     15  C   UNL     1       3.863   5.328  17.159  0.00  0.00    +0.000 C 
BRANCH  15  16
ATOM     16  C   UNL     1       3.161   6.374  17.999  0.00  0.00    +0.000 A 
ATOM     17  C   UNL     1       2.959   7.652  17.446  0.00  0.00    +0.000 A 
ATOM     18  C   UNL     1       2.355   8.668  18.192  0.00  0.00    +0.000 A 
ATOM     19  C   UNL     1       1.932   8.420  19.494  0.00  0.00    +0.000 A 
ATOM     20  C   UNL     1       2.084   7.151  20.040  0.00  0.00    +0.000 A 
ATOM     21  C   UNL     1       2.670   6.131  19.290  0.00  0.00    +0.000 A 
ENDBRANCH  15  16
ENDBRANCH   4  15
TORSDOF 5
ENDMDL
