MODEL 1
REMARK VINA RESULT:      -6.1      0.000      0.000
REMARK  Name = 
REMARK  3 active torsions:
REMARK  status: ('A' for Active; 'I' for Inactive)
REMARK    1  A    between atoms: C_1  and  C_2
REMARK    2  A    between atoms: C_5  and  C_6
REMARK    3  A    between atoms: N_9  and  C_10
REMARK                            x       y       z     vdW  Elec       q    Type
REMARK                         _______ _______ _______ _____ _____    ______ ____
ROOT
ATOM      1  C   UNL     1       1.389   2.699  21.687  0.00  0.00    +0.000 C 
ATOM      2  C   UNL     1       2.161   3.213  20.510  0.00  0.00    +0.000 A 
ATOM      3  C   UNL     1       3.397   2.661  20.158  0.00  0.00    +0.000 A 
ATOM      4  C   UNL     1       4.115   3.164  19.068  0.00  0.00    +0.000 A 
ATOM      5  C   UNL     1       3.611   4.230  18.311  0.00  0.00    +0.000 A 
ATOM      6  C   UNL     1       2.367   4.769  18.658  0.00  0.00    +0.000 A 
ATOM      7  C   UNL     1       1.648   4.268  19.748  0.00  0.00    +0.000 A 
ENDROOT
BRANCH   5   8
ATOM      8  C   UNL     1       4.379   4.767  17.195  0.00  0.00    +0.000 A 
ATOM      9  C   UNL     1       4.595   6.118  16.802  0.00  0.00    +0.000 A 
ATOM     10  C   UNL     1       5.368   6.111  15.659  0.00  0.00    +0.000 A 
ATOM     11  N   UNL     1       5.619   4.807  15.338  0.00  0.00    +0.000 N 
ATOM     12  C   UNL     1       6.370   4.348  14.192  0.00  0.00    +0.000 C 
ATOM     13  C   UNL     1       5.033   3.983  16.262  0.00  0.00    +0.000 A 
ENDBRANCH   5   8
TORSDOF 1
ENDMDL
MODEL 2
REMARK VINA RESULT:      -6.0      0.147      1.344
REMARK  Name = 
REMARK  3 active torsions:
REMARK  status: ('A' for Active; 'I' for Inactive)
REMARK    1  A    between atoms: C_1  and  C_2
REMARK    2  A    between atoms: C_5  and  C_6
REMARK    3  A    between atoms: N_9  and  C_10
REMARK                            x       y       z     vdW  Elec       q    Type
REMARK                         _______ _______ _______ _____ _____    ______ ____
ROOT
ATOM      1  C   UNL     1       1.435   2.799  21.609  0.00  0.00    +0.000 C 
ATOM      2  C   UNL     1       2.222   3.341  20.454  0.00  0.00    +0.000 A 
ATOM      3  C   UNL     1       1.716   4.368  19.651  0.00  0.00    +0.000 A 
ATOM      4  C   UNL     1       2.456   4.851  18.566  0.00  0.00    +0.000 A 
ATOM      5  C   UNL     1       3.712   4.313  18.262  0.00  0.00    +0.000 A 
ATOM      6  C   UNL     1       4.221   3.295  19.077  0.00  0.00    +0.000 A 
ATOM      7  C   UNL     1       3.484   2.811  20.162  0.00  0.00    +0.000 A 
ENDROOT
BRANCH   5   8
ATOM      8  C   UNL     1       4.463   4.801  17.112  0.00  0.00    +0.000 A 
ATOM      9  C   UNL     1       4.690   6.135  16.670  0.00  0.00    +0.000 A 
ATOM     10  C   UNL     1       5.437   6.078  15.512  0.00  0.00    +0.000 A 
ATOM     11  N   UNL     1       5.662   4.761  15.228  0.00  0.00    +0.000 N 
ATOM     12  C   UNL     1       6.380   4.253  14.083  0.00  0.00    +0.000 C 
ATOM     13  C   UNL     1       5.085   3.976  16.191  0.00  0.00    +0.000 A 
ENDBRANCH   5   8
TORSDOF 1
ENDMDL
MODEL 3
REMARK VINA RESULT:      -5.9      1.982      5.560
REMARK  Name = 
REMARK  3 active torsions:
REMARK  status: ('A' for Active; 'I' for Inactive)
REMARK    1  A    between atoms: C_1  and  C_2
REMARK    2  A    between atoms: C_5  and  C_6
REMARK    3  A    between atoms: N_9  and  C_10
REMARK                            x       y       z     vdW  Elec       q    Type
REMARK                         _______ _______ _______ _____ _____    ______ ____
ROOT
ATOM      1  C   UNL     1       6.805   4.998  14.309  0.00  0.00    +0.000 C 
ATOM      2  C   UNL     1       5.850   4.950  15.464  0.00  0.00    +0.000 A 
ATOM      3  C   UNL     1       5.330   6.121  16.023  0.00  0.00    +0.000 A 
ATOM      4  C   UNL     1       4.455   6.060  17.112  0.00  0.00    +0.000 A 
ATOM      5  C   UNL     1       4.086   4.827  17.664  0.00  0.00    +0.000 A 
ATOM      6  C   UNL     1       4.597   3.656  17.091  0.00  0.00    +0.000 A 
ATOM      7  C   UNL     1       5.472   3.715  16.003  0.00  0.00    +0.000 A 
ENDROOT
BRANCH   5   8
ATOM      8  C   UNL     1       3.196   4.774  18.818  0.00  0.00    +0.000 A 
ATOM      9  C   UNL     1       2.631   5.832  19.584  0.00  0.00    +0.000 A 
ATOM     10  C   UNL     1       1.879   5.271  20.595  0.00  0.00    +0.000 A 
ATOM     11  N   UNL     1       1.976   3.913  20.478  0.00  0.00    +0.000 N 
ATOM     12  C   UNL     1       1.363   2.943  21.356  0.00  0.00    +0.000 C 
ATOM     13  C   UNL     1       2.763   3.597  19.403  0.00  0.00    +0.000 A 
ENDBRANCH   5   8
TORSDOF 1
ENDMDL
MODEL 4
REMARK VINA RESULT:      -5.9      1.947      5.442
REMARK  Name = 
REMARK  3 active torsions:
REMARK  status: ('A' for Active; 'I' for Inactive)
REMARK    1  A    between atoms: C_1  and  C_2
REMARK    2  A    between atoms: C_5  and  C_6
REMARK    3  A    between atoms: N_9  and  C_10
REMARK                            x       y       z     vdW  Elec       q    Type
REMARK                         _______ _______ _______ _____ _____    ______ ____
ROOT
ATOM      1  C   UNL     1       6.838   4.945  14.218  0.00  0.00    +0.000 C 
ATOM      2  C   UNL     1       5.927   4.882  15.407  0.00  0.00    +0.000 A 
ATOM      3  C   UNL     1       5.549   3.657  15.965  0.00  0.00    +0.000 A 
ATOM      4  C   UNL     1       4.683   3.615  17.063  0.00  0.00    +0.000 A 
ATOM      5  C   UNL     1       4.176   4.796  17.620  0.00  0.00    +0.000 A 
ATOM      6  C   UNL     1       4.570   6.020  17.067  0.00  0.00    +0.000 A 
ATOM      7  C   UNL     1       5.435   6.065  15.970  0.00  0.00    +0.000 A 
ENDROOT
BRANCH   5   8
ATOM      8  C   UNL     1       3.252   4.741  18.745  0.00  0.00    +0.000 A 
ATOM      9  C   UNL     1       2.583   5.795  19.429  0.00  0.00    +0.000 A 
ATOM     10  C   UNL     1       1.838   5.237  20.447  0.00  0.00    +0.000 A 
ATOM     11  N   UNL     1       2.038   3.886  20.413  0.00  0.00    +0.000 N 
ATOM     12  C   UNL     1       1.467   2.923  21.327  0.00  0.00    +0.000 C 
ATOM     13  C   UNL     1       2.885   3.570  19.385  0.00  0.00    +0.000 A 
ENDBRANCH   5   8
TORSDOF 1
ENDMDL
MODEL 5
REMARK VINA RESULT:      -5.9      3.180      5.557
REMARK  Name = 
REMARK  3 active torsions:
REMARK  status: ('A' for Active; 'I' for Inactive)
REMARK    1  A    between atoms: C_1  and  C_2
REMARK    2  A    between atoms: C_5  and  C_6
REMARK    3  A    between atoms: N_9  and  C_10
REMARK                            x       y       z     vdW  Elec       q    Type
REMARK                         _______ _______ _______ _____ _____    ______ ____
ROOT
ATOM      1  C   UNL     1       5.958   3.723  15.498  0.00  0.00    +0.000 C 
ATOM      2  C   UNL     1       5.100   4.677  16.273  0.00  0.00    +0.000 A 
ATOM      3  C   UNL     1       4.001   4.227  17.011  0.00  0.00    +0.000 A 
ATOM      4  C   UNL     1       3.198   5.133  17.714  0.00  0.00    +0.000 A 
ATOM      5  C   UNL     1       3.479   6.504  17.689  0.00  0.00    +0.000 A 
ATOM      6  C   UNL     1       4.589   6.948  16.961  0.00  0.00    +0.000 A 
ATOM      7  C   UNL     1       5.392   6.045  16.258  0.00  0.00    +0.000 A 
ENDROOT
BRANCH   5   8
ATOM      8  C   UNL     1       2.621   7.444  18.399  0.00  0.00    +0.000 A 
ATOM      9  C   UNL     1       2.019   8.652  17.947  0.00  0.00    +0.000 A 
ATOM     10  C   UNL     1       1.321   9.201  19.003  0.00  0.00    +0.000 A 
ATOM     11  N   UNL     1       1.487   8.378  20.081  0.00  0.00    +0.000 N 
ATOM     12  C   UNL     1       0.947   8.597  21.403  0.00  0.00    +0.000 C 
ATOM     13  C   UNL     1       2.264   7.307  19.730  0.00  0.00    +0.000 A 
ENDBRANCH   5   8
TORSDOF 1
ENDMDL
MODEL 6
REMARK VINA RESULT:      -5.9      1.095      1.785
REMARK  Name = 
REMARK  3 active torsions:
REMARK  status: ('A' for Active; 'I' for Inactive)
REMARK    1  A    between atoms: C_1  and  C_2
REMARK    2  A    between atoms: C_5  and  C_6
REMARK    3  A    between atoms: N_9  and  C_10
REMARK                            x       y       z     vdW  Elec       q    Type
REMARK                         _______ _______ _______ _____ _____    ______ ____
ROOT
ATOM      1  C   UNL     1       0.861   3.234  20.655  0.00  0.00    +0.000 C 
ATOM      2  C   UNL     1       2.008   3.512  19.730  0.00  0.00    +0.000 A 
ATOM      3  C   UNL     1       1.836   4.277  18.573  0.00  0.00    +0.000 A 
ATOM      4  C   UNL     1       2.913   4.512  17.710  0.00  0.00    +0.000 A 
ATOM      5  C   UNL     1       4.179   3.983  17.988  0.00  0.00    +0.000 A 
ATOM      6  C   UNL     1       4.350   3.230  19.156  0.00  0.00    +0.000 A 
ATOM      7  C   UNL     1       3.275   2.994  20.019  0.00  0.00    +0.000 A 
ENDROOT
BRANCH   5   8
ATOM      8  C   UNL     1       5.288   4.208  17.069  0.00  0.00    +0.000 A 
ATOM      9  C   UNL     1       6.619   4.640  17.333  0.00  0.00    +0.000 A 
ATOM     10  C   UNL     1       7.283   4.730  16.128  0.00  0.00    +0.000 A 
ATOM     11  N   UNL     1       6.403   4.380  15.143  0.00  0.00    +0.000 N 
ATOM     12  C   UNL     1       6.682   4.368  13.725  0.00  0.00    +0.000 C 
ATOM     13  C   UNL     1       5.195   4.055  15.697  0.00  0.00    +0.000 A 
ENDBRANCH   5   8
TORSDOF 1
ENDMDL
MODEL 7
REMARK VINA RESULT:      -5.8      1.866      2.399
REMARK  Name = 
REMARK  3 active torsions:
REMARK  status: ('A' for Active; 'I' for Inactive)
REMARK    1  A    between atoms: C_1  and  C_2
REMARK    2  A    between atoms: C_5  and  C_6
REMARK    3  A    between atoms: N_9  and  C_10
REMARK                            x       y       z     vdW  Elec       q    Type
REMARK                         _______ _______ _______ _____ _____    ______ ____
ROOT
ATOM      1  C   UNL     1       0.411   2.332  18.823  0.00  0.00    +0.000 C 
ATOM      2  C   UNL     1       1.660   3.021  18.363  0.00  0.00    +0.000 A 
ATOM      3  C   UNL     1       2.750   2.295  17.874  0.00  0.00    +0.000 A 
ATOM      4  C   UNL     1       3.916   2.952  17.466  0.00  0.00    +0.000 A 
ATOM      5  C   UNL     1       4.015   4.346  17.544  0.00  0.00    +0.000 A 
ATOM      6  C   UNL     1       2.915   5.071  18.020  0.00  0.00    +0.000 A 
ATOM      7  C   UNL     1       1.750   4.416  18.428  0.00  0.00    +0.000 A 
ENDROOT
BRANCH   5   8
ATOM      8  C   UNL     1       5.244   5.020  17.144  0.00  0.00    +0.000 A 
ATOM      9  C   UNL     1       6.236   4.627  16.202  0.00  0.00    +0.000 A 
ATOM     10  C   UNL     1       7.226   5.588  16.200  0.00  0.00    +0.000 A 
ATOM     11  N   UNL     1       6.877   6.542  17.113  0.00  0.00    +0.000 N 
ATOM     12  C   UNL     1       7.653   7.714  17.449  0.00  0.00    +0.000 C 
ATOM     13  C   UNL     1       5.678   6.217  17.687  0.00  0.00    +0.000 A 
ENDBRANCH   5   8
TORSDOF 1
ENDMDL
MODEL 8
REMARK VINA RESULT:      -5.8      1.050      1.134
REMARK  Name = 
REMARK  3 active torsions:
REMARK  status: ('A' for Active; 'I' for Inactive)
REMARK    1  A    between atoms: C_1  and  C_2
REMARK    2  A    between atoms: C_5  and  C_6
REMARK    3  A    between atoms: N_9  and  C_10
REMARK                            x       y       z     vdW  Elec       q    Type
REMARK                         _______ _______ _______ _____ _____    ______ ____
ROOT
ATOM      1  C   UNL     1       1.148   2.901  21.284  0.00  0.00    +0.000 C 
ATOM      2  C   UNL     1       2.218   3.190  20.275  0.00  0.00    +0.000 A 
ATOM      3  C   UNL     1       3.506   2.663  20.414  0.00  0.00    +0.000 A 
ATOM      4  C   UNL     1       4.499   2.957  19.473  0.00  0.00    +0.000 A 
ATOM      5  C   UNL     1       4.224   3.788  18.380  0.00  0.00    +0.000 A 
ATOM      6  C   UNL     1       2.929   4.302  18.237  0.00  0.00    +0.000 A 
ATOM      7  C   UNL     1       1.935   4.008  19.176  0.00  0.00    +0.000 A 
ENDROOT
BRANCH   5   8
ATOM      8  C   UNL     1       5.272   4.113  17.421  0.00  0.00    +0.000 A 
ATOM      9  C   UNL     1       6.564   4.672  17.636  0.00  0.00    +0.000 A 
ATOM     10  C   UNL     1       7.173   4.820  16.407  0.00  0.00    +0.000 A 
ATOM     11  N   UNL     1       6.296   4.383  15.455  0.00  0.00    +0.000 N 
ATOM     12  C   UNL     1       6.524   4.390  14.028  0.00  0.00    +0.000 C 
ATOM     13  C   UNL     1       5.145   3.946  16.053  0.00  0.00    +0.000 A 
ENDBRANCH   5   8
TORSDOF 1
ENDMDL
MODEL 9
REMARK VINA RESULT:      -5.8      3.274      5.617
REMARK  Name = 
REMARK  3 active torsions:
REMARK  status: ('A' for Active; 'I' for Inactive)
REMARK    1  A    between atoms: C_1  and  C_2
REMARK    2  A    between atoms: C_5  and  C_6
REMARK    3  A    between atoms: N_9  and  C_10
REMARK                            x       y       z     vdW  Elec       q    Type
REMARK                         _______ _______ _______ _____ _____    ______ ____
ROOT
ATOM      1  C   UNL     1       5.879   3.749  15.690  0.00  0.00    +0.000 C 
ATOM      2  C   UNL     1       4.998   4.745  16.382  0.00  0.00    +0.000 A 
ATOM      3  C   UNL     1       5.253   6.117  16.301  0.00  0.00    +0.000 A 
ATOM      4  C   UNL     1       4.432   7.033  16.968  0.00  0.00    +0.000 A 
ATOM      5  C   UNL     1       3.344   6.592  17.731  0.00  0.00    +0.000 A 
ATOM      6  C   UNL     1       3.083   5.218  17.797  0.00  0.00    +0.000 A 
ATOM      7  C   UNL     1       3.902   4.302  17.131  0.00  0.00    +0.000 A 
ENDROOT
BRANCH   5   8
ATOM      8  C   UNL     1       2.511   7.551  18.447  0.00  0.00    +0.000 A 
ATOM      9  C   UNL     1       1.949   8.781  18.003  0.00  0.00    +0.000 A 
ATOM     10  C   UNL     1       1.263   9.341  19.060  0.00  0.00    +0.000 A 
ATOM     11  N   UNL     1       1.398   8.504  20.131  0.00  0.00    +0.000 N 
ATOM     12  C   UNL     1       0.858   8.727  21.453  0.00  0.00    +0.000 C 
ATOM     13  C   UNL     1       2.144   7.413  19.774  0.00  0.00    +0.000 A 
ENDBRANCH   5   8
TORSDOF 1
ENDMDL
