MODEL 1
REMARK VINA RESULT:      -7.1      0.000      0.000
REMARK  Name = 
REMARK  3 active torsions:
REMARK  status: ('A' for Active; 'I' for Inactive)
REMARK    1  A    between atoms: C_1  and  C_2
REMARK    2  A    between atoms: C_2  and  C_3
REMARK    3  A    between atoms: P_5  and  C_7
REMARK                            x       y       z     vdW  Elec       q    Type
REMARK                         _______ _______ _______ _____ _____    ______ ____
ROOT
ATOM      1  C   UNL     1       5.620   5.083  16.103  0.00  0.00    +0.000 C 
ATOM      2  C   UNL     1       4.927   4.047  16.639  0.00  0.00    +0.000 C 
ATOM      3  P   UNL     1       4.605   4.305  18.347  0.00  0.00    +0.000 P 
ATOM      4  O   UNL     1       5.626   3.768  19.327  0.00  0.00    +0.000 OA
ATOM      5  C   UNL     1       4.819   6.115  18.218  0.00  0.00    +0.000 C 
ATOM      6  C   UNL     1       5.563   6.367  16.908  0.00  0.00    +0.000 C 
ATOM      7 BR   UNL     1       7.324   7.085  17.314  0.00  0.00    +0.000 Br
ENDROOT
BRANCH   3   8
ATOM      8  C   UNL     1       2.925   4.047  18.838  0.00  0.00    +0.000 A 
ATOM      9  C   UNL     1       2.259   2.983  18.199  0.00  0.00    +0.000 A 
ATOM     10  C   UNL     1       1.082   2.441  18.713  0.00  0.00    +0.000 A 
ATOM     11  C   UNL     1       0.535   2.976  19.871  0.00  0.00    +0.000 A 
ATOM     12  C   UNL     1       1.134   4.083  20.476  0.00  0.00    +0.000 A 
ATOM     13  C   UNL     1       2.321   4.626  19.960  0.00  0.00    +0.000 A 
ENDBRANCH   3   8
BRANCH   1  15
ATOM     14  C   UNL     1       6.155   3.957  13.850  0.00  0.00    +0.000 C 
ATOM     15  C   UNL     1       6.569   4.914  14.939  0.00  0.00    +0.000 C 
ENDBRANCH   1  15
TORSDOF 2
ENDMDL
MODEL 2
REMARK VINA RESULT:      -6.9      1.893      2.596
REMARK  Name = 
REMARK  3 active torsions:
REMARK  status: ('A' for Active; 'I' for Inactive)
REMARK    1  A    between atoms: C_1  and  C_2
REMARK    2  A    between atoms: C_2  and  C_3
REMARK    3  A    between atoms: P_5  and  C_7
REMARK                            x       y       z     vdW  Elec       q    Type
REMARK                         _______ _______ _______ _____ _____    ______ ____
ROOT
ATOM      1  C   UNL     1       6.352   5.001  18.243  0.00  0.00    +0.000 C 
ATOM      2  C   UNL     1       5.305   5.419  18.997  0.00  0.00    +0.000 C 
ATOM      3  P   UNL     1       3.827   5.510  18.051  0.00  0.00    +0.000 P 
ATOM      4  O   UNL     1       3.517   6.833  17.386  0.00  0.00    +0.000 OA
ATOM      5  C   UNL     1       4.447   4.352  16.781  0.00  0.00    +0.000 C 
ATOM      6  C   UNL     1       5.964   4.297  16.956  0.00  0.00    +0.000 C 
ATOM      7 BR   UNL     1       6.807   5.071  15.384  0.00  0.00    +0.000 Br
ENDROOT
BRANCH   3   8
ATOM      8  C   UNL     1       2.422   4.721  18.782  0.00  0.00    +0.000 A 
ATOM      9  C   UNL     1       1.869   3.654  18.047  0.00  0.00    +0.000 A 
ATOM     10  C   UNL     1       1.008   2.729  18.633  0.00  0.00    +0.000 A 
ATOM     11  C   UNL     1       0.662   2.872  19.970  0.00  0.00    +0.000 A 
ATOM     12  C   UNL     1       1.132   3.968  20.696  0.00  0.00    +0.000 A 
ATOM     13  C   UNL     1       2.003   4.897  20.106  0.00  0.00    +0.000 A 
ENDBRANCH   3   8
BRANCH   1  15
ATOM     14  C   UNL     1       8.068   6.893  18.563  0.00  0.00    +0.000 C 
ATOM     15  C   UNL     1       7.777   5.414  18.525  0.00  0.00    +0.000 C 
ENDBRANCH   1  15
TORSDOF 2
ENDMDL
MODEL 3
REMARK VINA RESULT:      -6.8      1.966      2.703
REMARK  Name = 
REMARK  3 active torsions:
REMARK  status: ('A' for Active; 'I' for Inactive)
REMARK    1  A    between atoms: C_1  and  C_2
REMARK    2  A    between atoms: C_2  and  C_3
REMARK    3  A    between atoms: P_5  and  C_7
REMARK                            x       y       z     vdW  Elec       q    Type
REMARK                         _______ _______ _______ _____ _____    ______ ____
ROOT
ATOM      1  C   UNL     1       6.293   5.017  17.948  0.00  0.00    +0.000 C 
ATOM      2  C   UNL     1       5.367   5.216  18.919  0.00  0.00    +0.000 C 
ATOM      3  P   UNL     1       3.738   4.952  18.317  0.00  0.00    +0.000 P 
ATOM      4  O   UNL     1       3.008   6.155  17.760  0.00  0.00    +0.000 OA
ATOM      5  C   UNL     1       4.311   3.923  16.920  0.00  0.00    +0.000 C 
ATOM      6  C   UNL     1       5.803   4.207  16.762  0.00  0.00    +0.000 C 
ATOM      7 BR   UNL     1       6.097   5.101  15.061  0.00  0.00    +0.000 Br
ENDROOT
BRANCH   3   8
ATOM      8  C   UNL     1       2.733   3.897  19.319  0.00  0.00    +0.000 A 
ATOM      9  C   UNL     1       3.410   3.192  20.333  0.00  0.00    +0.000 A 
ATOM     10  C   UNL     1       2.730   2.610  21.402  0.00  0.00    +0.000 A 
ATOM     11  C   UNL     1       1.345   2.704  21.460  0.00  0.00    +0.000 A 
ATOM     12  C   UNL     1       0.647   3.327  20.423  0.00  0.00    +0.000 A 
ATOM     13  C   UNL     1       1.333   3.915  19.350  0.00  0.00    +0.000 A 
ENDBRANCH   3   8
BRANCH   1  15
ATOM     14  C   UNL     1       7.579   7.239  17.750  0.00  0.00    +0.000 C 
ATOM     15  C   UNL     1       7.619   5.741  17.923  0.00  0.00    +0.000 C 
ENDBRANCH   1  15
TORSDOF 2
ENDMDL
MODEL 4
REMARK VINA RESULT:      -6.8      0.411      1.303
REMARK  Name = 
REMARK  3 active torsions:
REMARK  status: ('A' for Active; 'I' for Inactive)
REMARK    1  A    between atoms: C_1  and  C_2
REMARK    2  A    between atoms: C_2  and  C_3
REMARK    3  A    between atoms: P_5  and  C_7
REMARK                            x       y       z     vdW  Elec       q    Type
REMARK                         _______ _______ _______ _____ _____    ______ ____
ROOT
ATOM      1  C   UNL     1       5.305   5.033  16.113  0.00  0.00    +0.000 C 
ATOM      2  C   UNL     1       4.888   3.881  16.696  0.00  0.00    +0.000 C 
ATOM      3  P   UNL     1       4.655   4.083  18.426  0.00  0.00    +0.000 P 
ATOM      4  O   UNL     1       5.839   3.781  19.318  0.00  0.00    +0.000 OA
ATOM      5  C   UNL     1       4.476   5.897  18.293  0.00  0.00    +0.000 C 
ATOM      6  C   UNL     1       5.046   6.285  16.930  0.00  0.00    +0.000 C 
ATOM      7 BR   UNL     1       6.645   7.358  17.199  0.00  0.00    +0.000 Br
ENDROOT
BRANCH   3   8
ATOM      8  C   UNL     1       3.110   3.486  19.046  0.00  0.00    +0.000 A 
ATOM      9  C   UNL     1       2.625   4.132  20.201  0.00  0.00    +0.000 A 
ATOM     10  C   UNL     1       1.293   4.024  20.597  0.00  0.00    +0.000 A 
ATOM     11  C   UNL     1       0.422   3.241  19.851  0.00  0.00    +0.000 A 
ATOM     12  C   UNL     1       0.900   2.526  18.751  0.00  0.00    +0.000 A 
ATOM     13  C   UNL     1       2.240   2.639  18.350  0.00  0.00    +0.000 A 
ENDBRANCH   3   8
BRANCH   1  15
ATOM     14  C   UNL     1       5.986   3.932  13.888  0.00  0.00    +0.000 C 
ATOM     15  C   UNL     1       6.174   5.054  14.877  0.00  0.00    +0.000 C 
ENDBRANCH   1  15
TORSDOF 2
ENDMDL
MODEL 5
REMARK VINA RESULT:      -6.4      3.556      5.761
REMARK  Name = 
REMARK  3 active torsions:
REMARK  status: ('A' for Active; 'I' for Inactive)
REMARK    1  A    between atoms: C_1  and  C_2
REMARK    2  A    between atoms: C_2  and  C_3
REMARK    3  A    between atoms: P_5  and  C_7
REMARK                            x       y       z     vdW  Elec       q    Type
REMARK                         _______ _______ _______ _____ _____    ______ ____
ROOT
ATOM      1  C   UNL     1       1.353   3.880  19.883  0.00  0.00    +0.000 C 
ATOM      2  C   UNL     1       1.706   5.032  20.507  0.00  0.00    +0.000 C 
ATOM      3  P   UNL     1       2.698   6.046  19.470  0.00  0.00    +0.000 P 
ATOM      4  O   UNL     1       4.197   5.862  19.562  0.00  0.00    +0.000 OA
ATOM      5  C   UNL     1       2.107   5.238  17.941  0.00  0.00    +0.000 C 
ATOM      6  C   UNL     1       1.479   3.913  18.372  0.00  0.00    +0.000 C 
ATOM      7 BR   UNL     1       2.551   2.451  17.668  0.00  0.00    +0.000 Br
ENDROOT
BRANCH   3   8
ATOM      8  C   UNL     1       2.181   7.734  19.359  0.00  0.00    +0.000 A 
ATOM      9  C   UNL     1       2.225   8.302  18.071  0.00  0.00    +0.000 A 
ATOM     10  C   UNL     1       1.536   9.474  17.763  0.00  0.00    +0.000 A 
ATOM     11  C   UNL     1       0.805  10.115  18.754  0.00  0.00    +0.000 A 
ATOM     12  C   UNL     1       0.814   9.615  20.058  0.00  0.00    +0.000 A 
ATOM     13  C   UNL     1       1.505   8.433  20.366  0.00  0.00    +0.000 A 
ENDBRANCH   3   8
BRANCH   1  15
ATOM     14  C   UNL     1       1.851   2.386  21.920  0.00  0.00    +0.000 C 
ATOM     15  C   UNL     1       1.095   2.593  20.632  0.00  0.00    +0.000 C 
ENDBRANCH   1  15
TORSDOF 2
ENDMDL
MODEL 6
REMARK VINA RESULT:      -6.4      2.475      5.646
REMARK  Name = 
REMARK  3 active torsions:
REMARK  status: ('A' for Active; 'I' for Inactive)
REMARK    1  A    between atoms: C_1  and  C_2
REMARK    2  A    between atoms: C_2  and  C_3
REMARK    3  A    between atoms: P_5  and  C_7
REMARK                            x       y       z     vdW  Elec       q    Type
REMARK                         _______ _______ _______ _____ _____    ______ ____
ROOT
ATOM      1  C   UNL     1       2.522   5.435  19.496  0.00  0.00    +0.000 C 
ATOM      2  C   UNL     1       3.846   5.588  19.238  0.00  0.00    +0.000 C 
ATOM      3  P   UNL     1       4.580   4.076  18.727  0.00  0.00    +0.000 P 
ATOM      4  O   UNL     1       5.174   3.201  19.809  0.00  0.00    +0.000 OA
ATOM      5  C   UNL     1       2.981   3.356  18.211  0.00  0.00    +0.000 C 
ATOM      6  C   UNL     1       1.896   4.199  18.880  0.00  0.00    +0.000 C 
ATOM      7 BR   UNL     1       0.956   3.098  20.178  0.00  0.00    +0.000 Br
ENDROOT
BRANCH   3   8
ATOM      8  C   UNL     1       5.562   4.180  17.260  0.00  0.00    +0.000 A 
ATOM      9  C   UNL     1       4.857   4.074  16.044  0.00  0.00    +0.000 A 
ATOM     10  C   UNL     1       5.417   4.479  14.834  0.00  0.00    +0.000 A 
ATOM     11  C   UNL     1       6.713   4.979  14.817  0.00  0.00    +0.000 A 
ATOM     12  C   UNL     1       7.459   5.017  15.997  0.00  0.00    +0.000 A 
ATOM     13  C   UNL     1       6.893   4.612  17.215  0.00  0.00    +0.000 A 
ENDBRANCH   3   8
BRANCH   1  15
ATOM     14  C   UNL     1       1.778   7.771  20.282  0.00  0.00    +0.000 C 
ATOM     15  C   UNL     1       1.785   6.280  20.509  0.00  0.00    +0.000 C 
ENDBRANCH   1  15
TORSDOF 2
ENDMDL
MODEL 7
REMARK VINA RESULT:      -6.3      2.034      2.720
REMARK  Name = 
REMARK  3 active torsions:
REMARK  status: ('A' for Active; 'I' for Inactive)
REMARK    1  A    between atoms: C_1  and  C_2
REMARK    2  A    between atoms: C_2  and  C_3
REMARK    3  A    between atoms: P_5  and  C_7
REMARK                            x       y       z     vdW  Elec       q    Type
REMARK                         _______ _______ _______ _____ _____    ______ ____
ROOT
ATOM      1  C   UNL     1       6.288   5.309  17.747  0.00  0.00    +0.000 C 
ATOM      2  C   UNL     1       5.488   5.672  18.781  0.00  0.00    +0.000 C 
ATOM      3  P   UNL     1       3.802   5.307  18.448  0.00  0.00    +0.000 P 
ATOM      4  O   UNL     1       2.980   6.394  17.791  0.00  0.00    +0.000 OA
ATOM      5  C   UNL     1       4.217   4.051  17.186  0.00  0.00    +0.000 C 
ATOM      6  C   UNL     1       5.671   4.306  16.791  0.00  0.00    +0.000 C 
ATOM      7 BR   UNL     1       5.726   4.893  14.938  0.00  0.00    +0.000 Br
ENDROOT
BRANCH   3   8
ATOM      8  C   UNL     1       2.956   4.439  19.737  0.00  0.00    +0.000 A 
ATOM      9  C   UNL     1       1.556   4.590  19.758  0.00  0.00    +0.000 A 
ATOM     10  C   UNL     1       0.735   3.716  20.468  0.00  0.00    +0.000 A 
ATOM     11  C   UNL     1       1.309   2.683  21.197  0.00  0.00    +0.000 A 
ATOM     12  C   UNL     1       2.699   2.564  21.257  0.00  0.00    +0.000 A 
ATOM     13  C   UNL     1       3.525   3.441  20.538  0.00  0.00    +0.000 A 
ENDBRANCH   3   8
BRANCH   1  15
ATOM     14  C   UNL     1       7.592   7.522  17.565  0.00  0.00    +0.000 C 
ATOM     15  C   UNL     1       7.583   6.020  17.429  0.00  0.00    +0.000 C 
ENDBRANCH   1  15
TORSDOF 2
ENDMDL
MODEL 8
REMARK VINA RESULT:      -6.2      2.474      5.839
REMARK  Name = 
REMARK  3 active torsions:
REMARK  status: ('A' for Active; 'I' for Inactive)
REMARK    1  A    between atoms: C_1  and  C_2
REMARK    2  A    between atoms: C_2  and  C_3
REMARK    3  A    between atoms: P_5  and  C_7
REMARK                            x       y       z     vdW  Elec       q    Type
REMARK                         _______ _______ _______ _____ _____    ______ ____
ROOT
ATOM      1  C   UNL     1       2.365   5.497  19.683  0.00  0.00    +0.000 C 
ATOM      2  C   UNL     1       3.637   5.781  19.306  0.00  0.00    +0.000 C 
ATOM      3  P   UNL     1       4.421   4.382  18.588  0.00  0.00    +0.000 P 
ATOM      4  O   UNL     1       5.195   3.474  19.520  0.00  0.00    +0.000 OA
ATOM      5  C   UNL     1       2.834   3.576  18.176  0.00  0.00    +0.000 C 
ATOM      6  C   UNL     1       1.769   4.267  19.026  0.00  0.00    +0.000 C 
ATOM      7 BR   UNL     1       1.062   2.989  20.310  0.00  0.00    +0.000 Br
ENDROOT
BRANCH   3   8
ATOM      8  C   UNL     1       5.226   4.688  17.042  0.00  0.00    +0.000 A 
ATOM      9  C   UNL     1       6.559   5.137  17.127  0.00  0.00    +0.000 A 
ATOM     10  C   UNL     1       7.421   5.084  16.033  0.00  0.00    +0.000 A 
ATOM     11  C   UNL     1       6.951   4.602  14.818  0.00  0.00    +0.000 A 
ATOM     12  C   UNL     1       5.612   4.228  14.690  0.00  0.00    +0.000 A 
ATOM     13  C   UNL     1       4.746   4.278  15.793  0.00  0.00    +0.000 A 
ENDBRANCH   3   8
BRANCH   1  15
ATOM     14  C   UNL     1       1.531   7.689  20.745  0.00  0.00    +0.000 C 
ATOM     15  C   UNL     1       1.683   6.192  20.839  0.00  0.00    +0.000 C 
ENDBRANCH   1  15
TORSDOF 2
ENDMDL
MODEL 9
REMARK VINA RESULT:      -6.1      2.483      5.686
REMARK  Name = 
REMARK  3 active torsions:
REMARK  status: ('A' for Active; 'I' for Inactive)
REMARK    1  A    between atoms: C_1  and  C_2
REMARK    2  A    between atoms: C_2  and  C_3
REMARK    3  A    between atoms: P_5  and  C_7
REMARK                            x       y       z     vdW  Elec       q    Type
REMARK                         _______ _______ _______ _____ _____    ______ ____
ROOT
ATOM      1  C   UNL     1       2.259   5.478  19.718  0.00  0.00    +0.000 C 
ATOM      2  C   UNL     1       3.508   5.856  19.346  0.00  0.00    +0.000 C 
ATOM      3  P   UNL     1       4.410   4.510  18.666  0.00  0.00    +0.000 P 
ATOM      4  O   UNL     1       5.245   3.689  19.625  0.00  0.00    +0.000 OA
ATOM      5  C   UNL     1       2.898   3.568  18.260  0.00  0.00    +0.000 C 
ATOM      6  C   UNL     1       1.772   4.189  19.085  0.00  0.00    +0.000 C 
ATOM      7 BR   UNL     1       1.158   2.886  20.392  0.00  0.00    +0.000 Br
ENDROOT
BRANCH   3   8
ATOM      8  C   UNL     1       5.203   4.845  17.121  0.00  0.00    +0.000 A 
ATOM      9  C   UNL     1       5.768   3.731  16.470  0.00  0.00    +0.000 A 
ATOM     10  C   UNL     1       6.107   3.766  15.118  0.00  0.00    +0.000 A 
ATOM     11  C   UNL     1       5.907   4.935  14.396  0.00  0.00    +0.000 A 
ATOM     12  C   UNL     1       5.425   6.076  15.040  0.00  0.00    +0.000 A 
ATOM     13  C   UNL     1       5.081   6.039  16.400  0.00  0.00    +0.000 A 
ENDBRANCH   3   8
BRANCH   1  15
ATOM     14  C   UNL     1       1.471   7.648  20.858  0.00  0.00    +0.000 C 
ATOM     15  C   UNL     1       1.511   6.140  20.852  0.00  0.00    +0.000 C 
ENDBRANCH   1  15
TORSDOF 2
ENDMDL
