MODEL 1
REMARK VINA RESULT:      -7.5      0.000      0.000
REMARK  Name = 
REMARK  9 active torsions:
REMARK  status: ('A' for Active; 'I' for Inactive)
REMARK    1  A    between atoms: C_1  and  C_2
REMARK    2  A    between atoms: C_2  and  C_3
REMARK    3  A    between atoms: C_2  and  C_5
REMARK    4  A    between atoms: C_2  and  N_15
REMARK    5  A    between atoms: C_5  and  O_6
REMARK    6  A    between atoms: O_6  and  C_7
REMARK    7  A    between atoms: C_16  and  C_18
REMARK    8  A    between atoms: C_21  and  O_22
REMARK    9  A    between atoms: O_22  and  C_23
REMARK                            x       y       z     vdW  Elec       q    Type
REMARK                         _______ _______ _______ _____ _____    ______ ____
ROOT
ATOM      1  N   UNL     1       2.034   4.539  19.005  0.00  0.00    +0.000 N 
ATOM      2  C   UNL     1       2.392   5.541  19.884  0.00  0.00    +0.000 C 
ATOM      3  O   UNL     1       2.950   5.328  20.954  0.00  0.00    +0.000 OA
ATOM      4  H   UNL     1       1.616   4.765  18.114  0.00  0.00    +0.000 HD
ENDROOT
BRANCH   2   5
ATOM      5  C   UNL     1       2.045   6.936  19.513  0.00  0.00    +0.000 A 
ATOM      6  C   UNL     1       1.462   7.748  20.493  0.00  0.00    +0.000 A 
ATOM      7  C   UNL     1       1.123   9.068  20.198  0.00  0.00    +0.000 A 
ATOM      8  C   UNL     1       1.378   9.602  18.934  0.00  0.00    +0.000 A 
ATOM      9  C   UNL     1       1.929   8.784  17.944  0.00  0.00    +0.000 A 
ATOM     10  C   UNL     1       2.287   7.461  18.241  0.00  0.00    +0.000 A 
BRANCH   8  11
ATOM     11  O   UNL     1       0.991  10.894  18.771  0.00  0.00    +0.000 OA
BRANCH  11  12
ATOM     12  C   UNL     1      -0.388  11.199  18.619  0.00  0.00    +0.000 C 
ATOM     13  F   UNL     1      -0.635  12.381  18.015  0.00  0.00    +0.000 F 
ATOM     14  F   UNL     1      -0.977  10.218  17.901  0.00  0.00    +0.000 F 
ATOM     15  F   UNL     1      -0.961  11.231  19.842  0.00  0.00    +0.000 F 
ENDBRANCH  11  12
ENDBRANCH   8  11
ENDBRANCH   2   5
BRANCH   1  17
ATOM     16  C   UNL     1       1.609   2.201  18.285  0.00  0.00    +0.000 C 
ATOM     17  C   UNL     1       2.389   3.126  19.243  0.00  0.00    +0.000 C 
BRANCH  17  18
ATOM     18  C   UNL     1       2.068   2.741  20.679  0.00  0.00    +0.000 C 
ATOM     19  N   UNL     1       1.801   2.421  21.868  0.00  0.00    +0.000 NA
ENDBRANCH  17  18
BRANCH  17  20
ATOM     20  C   UNL     1       3.898   2.891  18.996  0.00  0.00    +0.000 C 
BRANCH  20  21
ATOM     21  O   UNL     1       4.321   3.598  17.825  0.00  0.00    +0.000 OA
BRANCH  21  22
ATOM     22  C   UNL     1       5.406   4.429  17.940  0.00  0.00    +0.000 A 
ATOM     23  C   UNL     1       5.989   4.803  19.155  0.00  0.00    +0.000 A 
ATOM     24  C   UNL     1       7.116   5.621  19.162  0.00  0.00    +0.000 A 
ATOM     25  F   UNL     1       7.670   5.958  20.333  0.00  0.00    +0.000 F 
ATOM     26  C   UNL     1       7.680   6.086  17.981  0.00  0.00    +0.000 A 
ATOM     27  C   UNL     1       7.101   5.735  16.764  0.00  0.00    +0.000 A 
ATOM     28  C   UNL     1       5.969   4.911  16.746  0.00  0.00    +0.000 A 
ATOM     29 BR   UNL     1       5.228   4.463  15.053  0.00  0.00    +0.000 Br
ENDBRANCH  21  22
ENDBRANCH  20  21
ENDBRANCH  17  20
ENDBRANCH   1  17
TORSDOF 8
ENDMDL
MODEL 2
REMARK VINA RESULT:      -7.4      1.867      2.183
REMARK  Name = 
REMARK  9 active torsions:
REMARK  status: ('A' for Active; 'I' for Inactive)
REMARK    1  A    between atoms: C_1  and  C_2
REMARK    2  A    between atoms: C_2  and  C_3
REMARK    3  A    between atoms: C_2  and  C_5
REMARK    4  A    between atoms: C_2  and  N_15
REMARK    5  A    between atoms: C_5  and  O_6
REMARK    6  A    between atoms: O_6  and  C_7
REMARK    7  A    between atoms: C_16  and  C_18
REMARK    8  A    between atoms: C_21  and  O_22
REMARK    9  A    between atoms: O_22  and  C_23
REMARK                            x       y       z     vdW  Elec       q    Type
REMARK                         _______ _______ _______ _____ _____    ______ ____
ROOT
ATOM      1  N   UNL     1       2.209   5.033  18.727  0.00  0.00    +0.000 N 
ATOM      2  C   UNL     1       2.369   5.968  19.729  0.00  0.00    +0.000 C 
ATOM      3  O   UNL     1       2.804   5.695  20.841  0.00  0.00    +0.000 OA
ATOM      4  H   UNL     1       1.888   5.312  17.811  0.00  0.00    +0.000 HD
ENDROOT
BRANCH   2   5
ATOM      5  C   UNL     1       1.954   7.364  19.436  0.00  0.00    +0.000 A 
ATOM      6  C   UNL     1       1.360   8.099  20.469  0.00  0.00    +0.000 A 
ATOM      7  C   UNL     1       0.958   9.416  20.249  0.00  0.00    +0.000 A 
ATOM      8  C   UNL     1       1.160  10.024  19.008  0.00  0.00    +0.000 A 
ATOM      9  C   UNL     1       1.722   9.281  17.967  0.00  0.00    +0.000 A 
ATOM     10  C   UNL     1       2.143   7.961  18.188  0.00  0.00    +0.000 A 
BRANCH   8  11
ATOM     11  O   UNL     1       0.714  11.304  18.920  0.00  0.00    +0.000 OA
BRANCH  11  12
ATOM     12  C   UNL     1      -0.659  11.552  18.655  0.00  0.00    +0.000 C 
ATOM     13  F   UNL     1      -0.894  12.641  17.893  0.00  0.00    +0.000 F 
ATOM     14  F   UNL     1      -1.188  10.473  18.039  0.00  0.00    +0.000 F 
ATOM     15  F   UNL     1      -1.301  11.724  19.832  0.00  0.00    +0.000 F 
ENDBRANCH  11  12
ENDBRANCH   8  11
ENDBRANCH   2   5
BRANCH   1  17
ATOM     16  C   UNL     1       2.145   2.766  17.715  0.00  0.00    +0.000 C 
ATOM     17  C   UNL     1       2.650   3.632  18.887  0.00  0.00    +0.000 C 
BRANCH  17  18
ATOM     18  C   UNL     1       2.118   3.063  20.193  0.00  0.00    +0.000 C 
ATOM     19  N   UNL     1       1.676   2.591  21.275  0.00  0.00    +0.000 NA
ENDBRANCH  17  18
BRANCH  17  20
ATOM     20  C   UNL     1       4.195   3.543  18.904  0.00  0.00    +0.000 C 
BRANCH  20  21
ATOM     21  O   UNL     1       4.764   4.758  18.403  0.00  0.00    +0.000 OA
BRANCH  21  22
ATOM     22  C   UNL     1       5.433   4.702  17.208  0.00  0.00    +0.000 A 
ATOM     23  C   UNL     1       4.856   4.305  15.998  0.00  0.00    +0.000 A 
ATOM     24  C   UNL     1       5.613   4.323  14.829  0.00  0.00    +0.000 A 
ATOM     25  F   UNL     1       5.041   3.953  13.676  0.00  0.00    +0.000 F 
ATOM     26  C   UNL     1       6.943   4.723  14.833  0.00  0.00    +0.000 A 
ATOM     27  C   UNL     1       7.535   5.106  16.034  0.00  0.00    +0.000 A 
ATOM     28  C   UNL     1       6.783   5.095  17.215  0.00  0.00    +0.000 A 
ATOM     29 BR   UNL     1       7.648   5.633  18.820  0.00  0.00    +0.000 Br
ENDBRANCH  21  22
ENDBRANCH  20  21
ENDBRANCH  17  20
ENDBRANCH   1  17
TORSDOF 8
ENDMDL
MODEL 3
REMARK VINA RESULT:      -7.4      2.341      2.941
REMARK  Name = 
REMARK  9 active torsions:
REMARK  status: ('A' for Active; 'I' for Inactive)
REMARK    1  A    between atoms: C_1  and  C_2
REMARK    2  A    between atoms: C_2  and  C_3
REMARK    3  A    between atoms: C_2  and  C_5
REMARK    4  A    between atoms: C_2  and  N_15
REMARK    5  A    between atoms: C_5  and  O_6
REMARK    6  A    between atoms: O_6  and  C_7
REMARK    7  A    between atoms: C_16  and  C_18
REMARK    8  A    between atoms: C_21  and  O_22
REMARK    9  A    between atoms: O_22  and  C_23
REMARK                            x       y       z     vdW  Elec       q    Type
REMARK                         _______ _______ _______ _____ _____    ______ ____
ROOT
ATOM      1  N   UNL     1       3.073   4.301  19.570  0.00  0.00    +0.000 N 
ATOM      2  C   UNL     1       2.309   5.127  18.771  0.00  0.00    +0.000 C 
ATOM      3  O   UNL     1       1.930   4.815  17.648  0.00  0.00    +0.000 OA
ATOM      4  H   UNL     1       3.325   4.583  20.506  0.00  0.00    +0.000 HD
ENDROOT
BRANCH   2   5
ATOM      5  C   UNL     1       1.968   6.471  19.302  0.00  0.00    +0.000 A 
ATOM      6  C   UNL     1       2.072   7.564  18.433  0.00  0.00    +0.000 A 
ATOM      7  C   UNL     1       1.757   8.847  18.880  0.00  0.00    +0.000 A 
ATOM      8  C   UNL     1       1.316   9.056  20.188  0.00  0.00    +0.000 A 
ATOM      9  C   UNL     1       1.243   7.972  21.067  0.00  0.00    +0.000 A 
ATOM     10  C   UNL     1       1.543   6.677  20.616  0.00  0.00    +0.000 A 
BRANCH   8  11
ATOM     11  O   UNL     1       1.053  10.351  20.502  0.00  0.00    +0.000 OA
BRANCH  11  12
ATOM     12  C   UNL     1      -0.294  10.794  20.580  0.00  0.00    +0.000 C 
ATOM     13  F   UNL     1      -1.113  10.260  19.650  0.00  0.00    +0.000 F 
ATOM     14  F   UNL     1      -0.782  10.498  21.805  0.00  0.00    +0.000 F 
ATOM     15  F   UNL     1      -0.317  12.137  20.430  0.00  0.00    +0.000 F 
ENDBRANCH  11  12
ENDBRANCH   8  11
ENDBRANCH   2   5
BRANCH   1  17
ATOM     16  C   UNL     1       2.139   2.060  19.049  0.00  0.00    +0.000 C 
ATOM     17  C   UNL     1       3.413   2.922  19.168  0.00  0.00    +0.000 C 
BRANCH  17  18
ATOM     18  C   UNL     1       4.347   2.293  20.190  0.00  0.00    +0.000 C 
ATOM     19  N   UNL     1       5.120   1.772  21.039  0.00  0.00    +0.000 NA
ENDBRANCH  17  18
BRANCH  17  20
ATOM     20  C   UNL     1       4.116   2.911  17.788  0.00  0.00    +0.000 C 
BRANCH  20  21
ATOM     21  O   UNL     1       5.224   3.818  17.793  0.00  0.00    +0.000 OA
BRANCH  21  22
ATOM     22  C   UNL     1       5.798   4.128  16.587  0.00  0.00    +0.000 A 
ATOM     23  C   UNL     1       5.384   3.606  15.358  0.00  0.00    +0.000 A 
ATOM     24  C   UNL     1       6.008   4.017  14.182  0.00  0.00    +0.000 A 
ATOM     25  F   UNL     1       5.589   3.518  13.013  0.00  0.00    +0.000 F 
ATOM     26  C   UNL     1       7.047   4.938  14.199  0.00  0.00    +0.000 A 
ATOM     27  C   UNL     1       7.481   5.454  15.417  0.00  0.00    +0.000 A 
ATOM     28  C   UNL     1       6.859   5.050  16.604  0.00  0.00    +0.000 A 
ATOM     29 BR   UNL     1       7.494   5.795  18.234  0.00  0.00    +0.000 Br
ENDBRANCH  21  22
ENDBRANCH  20  21
ENDBRANCH  17  20
ENDBRANCH   1  17
TORSDOF 8
ENDMDL
MODEL 4
REMARK VINA RESULT:      -7.3      1.448      1.605
REMARK  Name = 
REMARK  9 active torsions:
REMARK  status: ('A' for Active; 'I' for Inactive)
REMARK    1  A    between atoms: C_1  and  C_2
REMARK    2  A    between atoms: C_2  and  C_3
REMARK    3  A    between atoms: C_2  and  C_5
REMARK    4  A    between atoms: C_2  and  N_15
REMARK    5  A    between atoms: C_5  and  O_6
REMARK    6  A    between atoms: O_6  and  C_7
REMARK    7  A    between atoms: C_16  and  C_18
REMARK    8  A    between atoms: C_21  and  O_22
REMARK    9  A    between atoms: O_22  and  C_23
REMARK                            x       y       z     vdW  Elec       q    Type
REMARK                         _______ _______ _______ _____ _____    ______ ____
ROOT
ATOM      1  N   UNL     1       2.192   5.081  18.458  0.00  0.00    +0.000 N 
ATOM      2  C   UNL     1       2.559   6.043  19.378  0.00  0.00    +0.000 C 
ATOM      3  O   UNL     1       3.193   5.792  20.396  0.00  0.00    +0.000 OA
ATOM      4  H   UNL     1       1.709   5.340  17.611  0.00  0.00    +0.000 HD
ENDROOT
BRANCH   2   5
ATOM      5  C   UNL     1       2.126   7.439  19.120  0.00  0.00    +0.000 A 
ATOM      6  C   UNL     1       1.479   8.125  20.155  0.00  0.00    +0.000 A 
ATOM      7  C   UNL     1       1.058   9.441  19.966  0.00  0.00    +0.000 A 
ATOM      8  C   UNL     1       1.292  10.096  18.757  0.00  0.00    +0.000 A 
ATOM      9  C   UNL     1       1.908   9.403  17.711  0.00  0.00    +0.000 A 
ATOM     10  C   UNL     1       2.348   8.085  17.902  0.00  0.00    +0.000 A 
BRANCH   8  11
ATOM     11  O   UNL     1       0.823  11.370  18.697  0.00  0.00    +0.000 OA
BRANCH  11  12
ATOM     12  C   UNL     1       1.720  12.457  18.879  0.00  0.00    +0.000 C 
ATOM     13  F   UNL     1       1.215  13.661  18.536  0.00  0.00    +0.000 F 
ATOM     14  F   UNL     1       2.097  12.501  20.175  0.00  0.00    +0.000 F 
ATOM     15  F   UNL     1       2.821  12.240  18.126  0.00  0.00    +0.000 F 
ENDBRANCH  11  12
ENDBRANCH   8  11
ENDBRANCH   2   5
BRANCH   1  17
ATOM     16  C   UNL     1       2.233   2.872  17.324  0.00  0.00    +0.000 C 
ATOM     17  C   UNL     1       2.625   3.675  18.583  0.00  0.00    +0.000 C 
BRANCH  17  18
ATOM     18  C   UNL     1       1.982   3.035  19.803  0.00  0.00    +0.000 C 
ATOM     19  N   UNL     1       1.449   2.505  20.814  0.00  0.00    +0.000 NA
ENDBRANCH  17  18
BRANCH  17  20
ATOM     20  C   UNL     1       4.163   3.587  18.734  0.00  0.00    +0.000 C 
BRANCH  20  21
ATOM     21  O   UNL     1       4.804   4.326  17.687  0.00  0.00    +0.000 OA
BRANCH  21  22
ATOM     22  C   UNL     1       5.865   5.124  18.030  0.00  0.00    +0.000 A 
ATOM     23  C   UNL     1       6.678   4.920  19.149  0.00  0.00    +0.000 A 
ATOM     24  C   UNL     1       7.759   5.765  19.386  0.00  0.00    +0.000 A 
ATOM     25  F   UNL     1       8.535   5.547  20.455  0.00  0.00    +0.000 F 
ATOM     26  C   UNL     1       8.052   6.822  18.533  0.00  0.00    +0.000 A 
ATOM     27  C   UNL     1       7.242   7.047  17.424  0.00  0.00    +0.000 A 
ATOM     28  C   UNL     1       6.154   6.201  17.174  0.00  0.00    +0.000 A 
ATOM     29 BR   UNL     1       5.090   6.558  15.640  0.00  0.00    +0.000 Br
ENDBRANCH  21  22
ENDBRANCH  20  21
ENDBRANCH  17  20
ENDBRANCH   1  17
TORSDOF 8
ENDMDL
MODEL 5
REMARK VINA RESULT:      -7.3      2.840      3.537
REMARK  Name = 
REMARK  9 active torsions:
REMARK  status: ('A' for Active; 'I' for Inactive)
REMARK    1  A    between atoms: C_1  and  C_2
REMARK    2  A    between atoms: C_2  and  C_3
REMARK    3  A    between atoms: C_2  and  C_5
REMARK    4  A    between atoms: C_2  and  N_15
REMARK    5  A    between atoms: C_5  and  O_6
REMARK    6  A    between atoms: O_6  and  C_7
REMARK    7  A    between atoms: C_16  and  C_18
REMARK    8  A    between atoms: C_21  and  O_22
REMARK    9  A    between atoms: O_22  and  C_23
REMARK                            x       y       z     vdW  Elec       q    Type
REMARK                         _______ _______ _______ _____ _____    ______ ____
ROOT
ATOM      1  N   UNL     1       2.026   6.467  20.322  0.00  0.00    +0.000 N 
ATOM      2  C   UNL     1       1.858   7.746  19.830  0.00  0.00    +0.000 C 
ATOM      3  O   UNL     1       2.290   8.109  18.742  0.00  0.00    +0.000 OA
ATOM      4  H   UNL     1       1.615   6.200  21.204  0.00  0.00    +0.000 HD
ENDROOT
BRANCH   2   5
ATOM      5  C   UNL     1       1.148   8.725  20.691  0.00  0.00    +0.000 A 
ATOM      6  C   UNL     1       0.638   8.271  21.913  0.00  0.00    +0.000 A 
ATOM      7  C   UNL     1      -0.033   9.151  22.762  0.00  0.00    +0.000 A 
ATOM      8  C   UNL     1      -0.186  10.494  22.416  0.00  0.00    +0.000 A 
ATOM      9  C   UNL     1       0.293  10.942  21.182  0.00  0.00    +0.000 A 
ATOM     10  C   UNL     1       0.982  10.064  20.332  0.00  0.00    +0.000 A 
BRANCH   8  11
ATOM     11  O   UNL     1      -0.867  11.244  23.323  0.00  0.00    +0.000 OA
BRANCH  11  12
ATOM     12  C   UNL     1      -1.956  12.047  22.891  0.00  0.00    +0.000 C 
ATOM     13  F   UNL     1      -2.389  11.777  21.642  0.00  0.00    +0.000 F 
ATOM     14  F   UNL     1      -2.987  11.885  23.749  0.00  0.00    +0.000 F 
ATOM     15  F   UNL     1      -1.577  13.344  22.927  0.00  0.00    +0.000 F 
ENDBRANCH  11  12
ENDBRANCH   8  11
ENDBRANCH   2   5
BRANCH   1  17
ATOM     16  C   UNL     1       1.890   5.179  18.203  0.00  0.00    +0.000 C 
ATOM     17  C   UNL     1       2.659   5.399  19.523  0.00  0.00    +0.000 C 
BRANCH  17  18
ATOM     18  C   UNL     1       2.680   4.099  20.310  0.00  0.00    +0.000 C 
ATOM     19  N   UNL     1       2.697   3.021  20.964  0.00  0.00    +0.000 NA
ENDBRANCH  17  18
BRANCH  17  20
ATOM     20  C   UNL     1       4.115   5.778  19.158  0.00  0.00    +0.000 C 
BRANCH  20  21
ATOM     21  O   UNL     1       4.842   4.610  18.760  0.00  0.00    +0.000 OA
BRANCH  21  22
ATOM     22  C   UNL     1       5.461   4.632  17.537  0.00  0.00    +0.000 A 
ATOM     23  C   UNL     1       4.855   4.248  16.338  0.00  0.00    +0.000 A 
ATOM     24  C   UNL     1       5.559   4.347  15.140  0.00  0.00    +0.000 A 
ATOM     25  F   UNL     1       4.959   3.988  13.998  0.00  0.00    +0.000 F 
ATOM     26  C   UNL     1       6.866   4.818  15.105  0.00  0.00    +0.000 A 
ATOM     27  C   UNL     1       7.488   5.190  16.294  0.00  0.00    +0.000 A 
ATOM     28  C   UNL     1       6.788   5.097  17.503  0.00  0.00    +0.000 A 
ATOM     29 BR   UNL     1       7.691   5.624  19.091  0.00  0.00    +0.000 Br
ENDBRANCH  21  22
ENDBRANCH  20  21
ENDBRANCH  17  20
ENDBRANCH   1  17
TORSDOF 8
ENDMDL
MODEL 6
REMARK VINA RESULT:      -7.3      0.514      1.047
REMARK  Name = 
REMARK  9 active torsions:
REMARK  status: ('A' for Active; 'I' for Inactive)
REMARK    1  A    between atoms: C_1  and  C_2
REMARK    2  A    between atoms: C_2  and  C_3
REMARK    3  A    between atoms: C_2  and  C_5
REMARK    4  A    between atoms: C_2  and  N_15
REMARK    5  A    between atoms: C_5  and  O_6
REMARK    6  A    between atoms: O_6  and  C_7
REMARK    7  A    between atoms: C_16  and  C_18
REMARK    8  A    between atoms: C_21  and  O_22
REMARK    9  A    between atoms: O_22  and  C_23
REMARK                            x       y       z     vdW  Elec       q    Type
REMARK                         _______ _______ _______ _____ _____    ______ ____
ROOT
ATOM      1  N   UNL     1       2.146   4.732  18.908  0.00  0.00    +0.000 N 
ATOM      2  C   UNL     1       2.476   5.693  19.842  0.00  0.00    +0.000 C 
ATOM      3  O   UNL     1       3.081   5.443  20.878  0.00  0.00    +0.000 OA
ATOM      4  H   UNL     1       1.685   4.991  18.047  0.00  0.00    +0.000 HD
ENDROOT
BRANCH   2   5
ATOM      5  C   UNL     1       2.037   7.086  19.577  0.00  0.00    +0.000 A 
ATOM      6  C   UNL     1       2.219   7.594  18.285  0.00  0.00    +0.000 A 
ATOM      7  C   UNL     1       1.818   8.896  17.982  0.00  0.00    +0.000 A 
ATOM      8  C   UNL     1       1.216   9.698  18.952  0.00  0.00    +0.000 A 
ATOM      9  C   UNL     1       1.064   9.205  20.250  0.00  0.00    +0.000 A 
ATOM     10  C   UNL     1       1.450   7.892  20.556  0.00  0.00    +0.000 A 
BRANCH   8  11
ATOM     11  O   UNL     1       0.883  10.947  18.533  0.00  0.00    +0.000 OA
BRANCH  11  12
ATOM     12  C   UNL     1      -0.479  11.351  18.543  0.00  0.00    +0.000 C 
ATOM     13  F   UNL     1      -0.743  12.445  17.800  0.00  0.00    +0.000 F 
ATOM     14  F   UNL     1      -1.242  10.330  18.094  0.00  0.00    +0.000 F 
ATOM     15  F   UNL     1      -0.841  11.619  19.817  0.00  0.00    +0.000 F 
ENDBRANCH  11  12
ENDBRANCH   8  11
ENDBRANCH   2   5
BRANCH   1  17
ATOM     16  C   UNL     1       1.848   2.430  18.027  0.00  0.00    +0.000 C 
ATOM     17  C   UNL     1       2.588   3.330  19.039  0.00  0.00    +0.000 C 
BRANCH  17  18
ATOM     18  C   UNL     1       2.316   2.824  20.447  0.00  0.00    +0.000 C 
ATOM     19  N   UNL     1       2.092   2.405  21.614  0.00  0.00    +0.000 NA
ENDBRANCH  17  18
BRANCH  17  20
ATOM     20  C   UNL     1       4.104   3.205  18.755  0.00  0.00    +0.000 C 
BRANCH  20  21
ATOM     21  O   UNL     1       4.507   4.185  17.791  0.00  0.00    +0.000 OA
BRANCH  21  22
ATOM     22  C   UNL     1       5.609   4.947  18.081  0.00  0.00    +0.000 A 
ATOM     23  C   UNL     1       6.289   4.920  19.302  0.00  0.00    +0.000 A 
ATOM     24  C   UNL     1       7.426   5.705  19.481  0.00  0.00    +0.000 A 
ATOM     25  F   UNL     1       8.073   5.657  20.652  0.00  0.00    +0.000 F 
ATOM     26  C   UNL     1       7.905   6.528  18.470  0.00  0.00    +0.000 A 
ATOM     27  C   UNL     1       7.228   6.577  17.254  0.00  0.00    +0.000 A 
ATOM     28  C   UNL     1       6.086   5.790  17.062  0.00  0.00    +0.000 A 
ATOM     29 BR   UNL     1       5.211   5.898  15.377  0.00  0.00    +0.000 Br
ENDBRANCH  21  22
ENDBRANCH  20  21
ENDBRANCH  17  20
ENDBRANCH   1  17
TORSDOF 8
ENDMDL
MODEL 7
REMARK VINA RESULT:      -7.3      5.393      7.814
REMARK  Name = 
REMARK  9 active torsions:
REMARK  status: ('A' for Active; 'I' for Inactive)
REMARK    1  A    between atoms: C_1  and  C_2
REMARK    2  A    between atoms: C_2  and  C_3
REMARK    3  A    between atoms: C_2  and  C_5
REMARK    4  A    between atoms: C_2  and  N_15
REMARK    5  A    between atoms: C_5  and  O_6
REMARK    6  A    between atoms: O_6  and  C_7
REMARK    7  A    between atoms: C_16  and  C_18
REMARK    8  A    between atoms: C_21  and  O_22
REMARK    9  A    between atoms: O_22  and  C_23
REMARK                            x       y       z     vdW  Elec       q    Type
REMARK                         _______ _______ _______ _____ _____    ______ ____
ROOT
ATOM      1  N   UNL     1       8.157   7.317  18.565  0.00  0.00    +0.000 N 
ATOM      2  C   UNL     1       7.830   8.451  17.852  0.00  0.00    +0.000 C 
ATOM      3  O   UNL     1       7.057   8.447  16.900  0.00  0.00    +0.000 OA
ATOM      4  H   UNL     1       8.764   7.375  19.370  0.00  0.00    +0.000 HD
ENDROOT
BRANCH   2   5
ATOM      5  C   UNL     1       8.482   9.724  18.249  0.00  0.00    +0.000 A 
ATOM      6  C   UNL     1       9.282   9.718  19.398  0.00  0.00    +0.000 A 
ATOM      7  C   UNL     1       9.923  10.886  19.812  0.00  0.00    +0.000 A 
ATOM      8  C   UNL     1       9.793  12.066  19.078  0.00  0.00    +0.000 A 
ATOM      9  C   UNL     1       8.968  12.084  17.951  0.00  0.00    +0.000 A 
ATOM     10  C   UNL     1       8.335  10.907  17.522  0.00  0.00    +0.000 A 
BRANCH   8  11
ATOM     11  O   UNL     1      10.456  13.134  19.592  0.00  0.00    +0.000 OA
BRANCH  11  12
ATOM     12  C   UNL     1      11.502  13.737  18.843  0.00  0.00    +0.000 C 
ATOM     13  F   UNL     1      11.083  14.611  17.903  0.00  0.00    +0.000 F 
ATOM     14  F   UNL     1      12.333  14.382  19.690  0.00  0.00    +0.000 F 
ATOM     15  F   UNL     1      12.203  12.765  18.220  0.00  0.00    +0.000 F 
ENDBRANCH  11  12
ENDBRANCH   8  11
ENDBRANCH   2   5
BRANCH   1  17
ATOM     16  C   UNL     1       8.314   4.871  18.964  0.00  0.00    +0.000 C 
ATOM     17  C   UNL     1       7.519   6.013  18.297  0.00  0.00    +0.000 C 
BRANCH  17  18
ATOM     18  C   UNL     1       7.447   5.763  16.799  0.00  0.00    +0.000 C 
ATOM     19  N   UNL     1       7.388   5.556  15.557  0.00  0.00    +0.000 NA
ENDBRANCH  17  18
BRANCH  17  20
ATOM     20  C   UNL     1       6.081   5.979  18.871  0.00  0.00    +0.000 C 
BRANCH  20  21
ATOM     21  O   UNL     1       5.125   6.034  17.807  0.00  0.00    +0.000 OA
BRANCH  21  22
ATOM     22  C   UNL     1       4.104   5.119  17.821  0.00  0.00    +0.000 A 
ATOM     23  C   UNL     1       4.277   3.741  17.662  0.00  0.00    +0.000 A 
ATOM     24  C   UNL     1       3.176   2.890  17.733  0.00  0.00    +0.000 A 
ATOM     25  F   UNL     1       3.361   1.572  17.594  0.00  0.00    +0.000 F 
ATOM     26  C   UNL     1       1.895   3.380  17.954  0.00  0.00    +0.000 A 
ATOM     27  C   UNL     1       1.706   4.752  18.097  0.00  0.00    +0.000 A 
ATOM     28  C   UNL     1       2.806   5.616  18.030  0.00  0.00    +0.000 A 
ATOM     29 BR   UNL     1       2.482   7.478  18.239  0.00  0.00    +0.000 Br
ENDBRANCH  21  22
ENDBRANCH  20  21
ENDBRANCH  17  20
ENDBRANCH   1  17
TORSDOF 8
ENDMDL
MODEL 8
REMARK VINA RESULT:      -7.3      2.010      2.641
REMARK  Name = 
REMARK  9 active torsions:
REMARK  status: ('A' for Active; 'I' for Inactive)
REMARK    1  A    between atoms: C_1  and  C_2
REMARK    2  A    between atoms: C_2  and  C_3
REMARK    3  A    between atoms: C_2  and  C_5
REMARK    4  A    between atoms: C_2  and  N_15
REMARK    5  A    between atoms: C_5  and  O_6
REMARK    6  A    between atoms: O_6  and  C_7
REMARK    7  A    between atoms: C_16  and  C_18
REMARK    8  A    between atoms: C_21  and  O_22
REMARK    9  A    between atoms: O_22  and  C_23
REMARK                            x       y       z     vdW  Elec       q    Type
REMARK                         _______ _______ _______ _____ _____    ______ ____
ROOT
ATOM      1  N   UNL     1       2.203   4.745  18.836  0.00  0.00    +0.000 N 
ATOM      2  C   UNL     1       2.831   5.788  19.487  0.00  0.00    +0.000 C 
ATOM      3  O   UNL     1       3.834   5.644  20.175  0.00  0.00    +0.000 OA
ATOM      4  H   UNL     1       1.404   4.918  18.243  0.00  0.00    +0.000 HD
ENDROOT
BRANCH   2   5
ATOM      5  C   UNL     1       2.225   7.138  19.362  0.00  0.00    +0.000 A 
ATOM      6  C   UNL     1       2.259   7.756  18.106  0.00  0.00    +0.000 A 
ATOM      7  C   UNL     1       1.699   9.021  17.933  0.00  0.00    +0.000 A 
ATOM      8  C   UNL     1       1.081   9.677  18.999  0.00  0.00    +0.000 A 
ATOM      9  C   UNL     1       1.075   9.077  20.261  0.00  0.00    +0.000 A 
ATOM     10  C   UNL     1       1.623   7.797  20.435  0.00  0.00    +0.000 A 
BRANCH   8  11
ATOM     11  O   UNL     1       0.585  10.907  18.703  0.00  0.00    +0.000 OA
BRANCH  11  12
ATOM     12  C   UNL     1      -0.804  11.061  18.449  0.00  0.00    +0.000 C 
ATOM     13  F   UNL     1      -1.308  10.186  17.554  0.00  0.00    +0.000 F 
ATOM     14  F   UNL     1      -1.479  10.925  19.611  0.00  0.00    +0.000 F 
ATOM     15  F   UNL     1      -1.022  12.308  17.977  0.00  0.00    +0.000 F 
ENDBRANCH  11  12
ENDBRANCH   8  11
ENDBRANCH   2   5
BRANCH   1  17
ATOM     16  C   UNL     1       1.788   2.397  18.143  0.00  0.00    +0.000 C 
ATOM     17  C   UNL     1       2.756   3.376  18.839  0.00  0.00    +0.000 C 
BRANCH  17  18
ATOM     18  C   UNL     1       2.994   2.911  20.267  0.00  0.00    +0.000 C 
ATOM     19  N   UNL     1       3.191   2.525  21.451  0.00  0.00    +0.000 NA
ENDBRANCH  17  18
BRANCH  17  20
ATOM     20  C   UNL     1       4.101   3.327  18.075  0.00  0.00    +0.000 C 
BRANCH  20  21
ATOM     21  O   UNL     1       4.303   4.548  17.354  0.00  0.00    +0.000 OA
BRANCH  21  22
ATOM     22  C   UNL     1       5.208   4.537  16.324  0.00  0.00    +0.000 A 
ATOM     23  C   UNL     1       4.947   4.027  15.049  0.00  0.00    +0.000 A 
ATOM     24  C   UNL     1       5.923   4.102  14.058  0.00  0.00    +0.000 A 
ATOM     25  F   UNL     1       5.652   3.621  12.838  0.00  0.00    +0.000 F 
ATOM     26  C   UNL     1       7.166   4.669  14.308  0.00  0.00    +0.000 A 
ATOM     27  C   UNL     1       7.446   5.167  15.578  0.00  0.00    +0.000 A 
ATOM     28  C   UNL     1       6.471   5.100  16.580  0.00  0.00    +0.000 A 
ATOM     29 BR   UNL     1       6.912   5.800  18.292  0.00  0.00    +0.000 Br
ENDBRANCH  21  22
ENDBRANCH  20  21
ENDBRANCH  17  20
ENDBRANCH   1  17
TORSDOF 8
ENDMDL
MODEL 9
REMARK VINA RESULT:      -7.2      4.531      8.749
REMARK  Name = 
REMARK  9 active torsions:
REMARK  status: ('A' for Active; 'I' for Inactive)
REMARK    1  A    between atoms: C_1  and  C_2
REMARK    2  A    between atoms: C_2  and  C_3
REMARK    3  A    between atoms: C_2  and  C_5
REMARK    4  A    between atoms: C_2  and  N_15
REMARK    5  A    between atoms: C_5  and  O_6
REMARK    6  A    between atoms: O_6  and  C_7
REMARK    7  A    between atoms: C_16  and  C_18
REMARK    8  A    between atoms: C_21  and  O_22
REMARK    9  A    between atoms: O_22  and  C_23
REMARK                            x       y       z     vdW  Elec       q    Type
REMARK                         _______ _______ _______ _____ _____    ______ ____
ROOT
ATOM      1  N   UNL     1       0.700   9.796  19.976  0.00  0.00    +0.000 N 
ATOM      2  C   UNL     1       1.372   8.910  20.793  0.00  0.00    +0.000 C 
ATOM      3  O   UNL     1       1.657   9.155  21.959  0.00  0.00    +0.000 OA
ATOM      4  H   UNL     1       0.447   9.534  19.034  0.00  0.00    +0.000 HD
ENDROOT
BRANCH   2   5
ATOM      5  C   UNL     1       1.792   7.615  20.201  0.00  0.00    +0.000 A 
ATOM      6  C   UNL     1       1.556   6.451  20.943  0.00  0.00    +0.000 A 
ATOM      7  C   UNL     1       1.925   5.207  20.430  0.00  0.00    +0.000 A 
ATOM      8  C   UNL     1       2.513   5.104  19.168  0.00  0.00    +0.000 A 
ATOM      9  C   UNL     1       2.780   6.267  18.441  0.00  0.00    +0.000 A 
ATOM     10  C   UNL     1       2.395   7.519  18.946  0.00  0.00    +0.000 A 
BRANCH   8  11
ATOM     11  O   UNL     1       2.836   3.840  18.789  0.00  0.00    +0.000 OA
BRANCH  11  12
ATOM     12  C   UNL     1       1.830   2.989  18.257  0.00  0.00    +0.000 C 
ATOM     13  F   UNL     1       0.770   3.638  17.733  0.00  0.00    +0.000 F 
ATOM     14  F   UNL     1       2.377   2.211  17.298  0.00  0.00    +0.000 F 
ATOM     15  F   UNL     1       1.377   2.187  19.245  0.00  0.00    +0.000 F 
ENDBRANCH  11  12
ENDBRANCH   8  11
ENDBRANCH   2   5
BRANCH   1  17
ATOM     16  C   UNL     1       1.330  12.090  20.686  0.00  0.00    +0.000 C 
ATOM     17  C   UNL     1       0.180  11.083  20.479  0.00  0.00    +0.000 C 
BRANCH  17  18
ATOM     18  C   UNL     1      -0.545  10.875  21.799  0.00  0.00    +0.000 C 
ATOM     19  N   UNL     1      -1.146  10.703  22.893  0.00  0.00    +0.000 NA
ENDBRANCH  17  18
BRANCH  17  20
ATOM     20  C   UNL     1      -0.811  11.706  19.466  0.00  0.00    +0.000 C 
BRANCH  20  21
ATOM     21  O   UNL     1      -1.950  10.853  19.303  0.00  0.00    +0.000 OA
BRANCH  21  22
ATOM     22  C   UNL     1      -2.595  10.878  18.093  0.00  0.00    +0.000 A 
ATOM     23  C   UNL     1      -2.108  10.284  16.926  0.00  0.00    +0.000 A 
ATOM     24  C   UNL     1      -2.862  10.330  15.755  0.00  0.00    +0.000 A 
ATOM     25  F   UNL     1      -2.387   9.744  14.650  0.00  0.00    +0.000 F 
ATOM     26  C   UNL     1      -4.097  10.964  15.715  0.00  0.00    +0.000 A 
ATOM     27  C   UNL     1      -4.588  11.574  16.866  0.00  0.00    +0.000 A 
ATOM     28  C   UNL     1      -3.840  11.531  18.049  0.00  0.00    +0.000 A 
ATOM     29 BR   UNL     1      -4.567  12.378  19.588  0.00  0.00    +0.000 Br
ENDBRANCH  21  22
ENDBRANCH  20  21
ENDBRANCH  17  20
ENDBRANCH   1  17
TORSDOF 8
ENDMDL
