MODEL 1
REMARK VINA RESULT:      -8.1      0.000      0.000
REMARK  Name = 
REMARK  8 active torsions:
REMARK  status: ('A' for Active; 'I' for Inactive)
REMARK    1  A    between atoms: C_1  and  C_2
REMARK    2  A    between atoms: C_2  and  C_3
REMARK    3  A    between atoms: N_7  and  C_8
REMARK    4  A    between atoms: C_8  and  C_9
REMARK    5  A    between atoms: C_9  and  C_10
REMARK    6  A    between atoms: C_10  and  C_11
REMARK    7  A    between atoms: C_11  and  C_12
REMARK    8  A    between atoms: C_12  and  N_13
REMARK                            x       y       z     vdW  Elec       q    Type
REMARK                         _______ _______ _______ _____ _____    ______ ____
ROOT
ATOM      1  C   UNL     1       2.556   7.269  18.894  0.00  0.00    +0.000 C 
ENDROOT
BRANCH   1   2
ATOM      2  N   UNL     1       2.917   5.949  18.407  0.00  0.00    +0.000 N 
ATOM      3  C   UNL     1       2.352   4.776  18.862  0.00  0.00    +0.000 A 
ATOM      4  C   UNL     1       1.360   4.549  19.833  0.00  0.00    +0.000 A 
ATOM      5  C   UNL     1       0.985   3.228  20.090  0.00  0.00    +0.000 A 
ATOM      6  C   UNL     1       1.572   2.172  19.400  0.00  0.00    +0.000 A 
ATOM      7  C   UNL     1       2.554   2.412  18.433  0.00  0.00    +0.000 A 
ATOM      8  C   UNL     1       2.952   3.736  18.156  0.00  0.00    +0.000 A 
ATOM      9  C   UNL     1       3.902   4.312  17.255  0.00  0.00    +0.000 A 
ATOM     10  C   UNL     1       4.792   3.775  16.300  0.00  0.00    +0.000 A 
ATOM     11  C   UNL     1       5.625   4.626  15.568  0.00  0.00    +0.000 A 
ATOM     12  C   UNL     1       5.587   6.000  15.777  0.00  0.00    +0.000 A 
ATOM     13  C   UNL     1       4.712   6.559  16.714  0.00  0.00    +0.000 A 
ATOM     14  C   UNL     1       3.872   5.697  17.441  0.00  0.00    +0.000 A 
ENDBRANCH   1   2
BRANCH   1  15
ATOM     15  C   UNL     1       1.883   8.114  17.812  0.00  0.00    +0.000 C 
BRANCH  15  16
ATOM     16  C   UNL     1       1.891   9.607  18.149  0.00  0.00    +0.000 C 
BRANCH  16  17
ATOM     17  C   UNL     1       0.527  10.182  18.544  0.00  0.00    +0.000 C 
BRANCH  17  18
ATOM     18  C   UNL     1       0.263  10.066  20.050  0.00  0.00    +0.000 C 
BRANCH  18  25
ATOM     19  C   UNL     1      -2.370  12.030  22.981  0.00  0.00    +0.000 C 
ATOM     20  C   UNL     1      -1.426  12.821  22.053  0.00  0.00    +0.000 C 
ATOM     21  C   UNL     1      -0.751  13.929  22.883  0.00  0.00    +0.000 C 
ATOM     22  C   UNL     1      -2.205  13.466  20.892  0.00  0.00    +0.000 C 
ATOM     23  C   UNL     1      -2.721  12.420  19.910  0.00  0.00    +0.000 C 
ATOM     24  C   UNL     1      -1.594  11.511  19.424  0.00  0.00    +0.000 C 
ATOM     25  N   UNL     1      -0.864  10.882  20.533  0.00  0.00    +0.000 NA
ATOM     26  C   UNL     1      -0.337  11.895  21.471  0.00  0.00    +0.000 C 
ENDBRANCH  18  25
ENDBRANCH  17  18
ENDBRANCH  16  17
ENDBRANCH  15  16
ENDBRANCH   1  15
TORSDOF 6
ENDMDL
MODEL 2
REMARK VINA RESULT:      -8.0      0.757      1.393
REMARK  Name = 
REMARK  8 active torsions:
REMARK  status: ('A' for Active; 'I' for Inactive)
REMARK    1  A    between atoms: C_1  and  C_2
REMARK    2  A    between atoms: C_2  and  C_3
REMARK    3  A    between atoms: N_7  and  C_8
REMARK    4  A    between atoms: C_8  and  C_9
REMARK    5  A    between atoms: C_9  and  C_10
REMARK    6  A    between atoms: C_10  and  C_11
REMARK    7  A    between atoms: C_11  and  C_12
REMARK    8  A    between atoms: C_12  and  N_13
REMARK                            x       y       z     vdW  Elec       q    Type
REMARK                         _______ _______ _______ _____ _____    ______ ____
ROOT
ATOM      1  C   UNL     1       2.842   7.197  18.787  0.00  0.00    +0.000 C 
ENDROOT
BRANCH   1   2
ATOM      2  N   UNL     1       3.129   5.871  18.265  0.00  0.00    +0.000 N 
ATOM      3  C   UNL     1       2.470   4.726  18.660  0.00  0.00    +0.000 A 
ATOM      4  C   UNL     1       1.433   4.536  19.591  0.00  0.00    +0.000 A 
ATOM      5  C   UNL     1       0.960   3.237  19.789  0.00  0.00    +0.000 A 
ATOM      6  C   UNL     1       1.497   2.166  19.081  0.00  0.00    +0.000 A 
ATOM      7  C   UNL     1       2.525   2.369  18.155  0.00  0.00    +0.000 A 
ATOM      8  C   UNL     1       3.022   3.671  17.938  0.00  0.00    +0.000 A 
ATOM      9  C   UNL     1       4.039   4.209  17.087  0.00  0.00    +0.000 A 
ATOM     10  C   UNL     1       4.922   3.644  16.143  0.00  0.00    +0.000 A 
ATOM     11  C   UNL     1       5.836   4.459  15.468  0.00  0.00    +0.000 A 
ATOM     12  C   UNL     1       5.884   5.824  15.724  0.00  0.00    +0.000 A 
ATOM     13  C   UNL     1       5.018   6.411  16.652  0.00  0.00    +0.000 A 
ATOM     14  C   UNL     1       4.097   5.585  17.322  0.00  0.00    +0.000 A 
ENDBRANCH   1   2
BRANCH   1  15
ATOM     15  C   UNL     1       2.056   8.046  17.788  0.00  0.00    +0.000 C 
BRANCH  15  16
ATOM     16  C   UNL     1       1.780   9.457  18.314  0.00  0.00    +0.000 C 
BRANCH  16  17
ATOM     17  C   UNL     1       0.641   9.549  19.335  0.00  0.00    +0.000 C 
BRANCH  17  18
ATOM     18  C   UNL     1       0.058  10.964  19.427  0.00  0.00    +0.000 C 
BRANCH  18  25
ATOM     19  C   UNL     1      -0.678  13.805  22.708  0.00  0.00    +0.000 C 
ATOM     20  C   UNL     1      -1.784  12.899  22.132  0.00  0.00    +0.000 C 
ATOM     21  C   UNL     1      -3.066  13.739  21.980  0.00  0.00    +0.000 C 
ATOM     22  C   UNL     1      -2.069  11.711  23.071  0.00  0.00    +0.000 C 
ATOM     23  C   UNL     1      -0.909  10.723  23.098  0.00  0.00    +0.000 C 
ATOM     24  C   UNL     1      -0.527  10.275  21.688  0.00  0.00    +0.000 C 
ATOM     25  N   UNL     1      -0.238  11.409  20.799  0.00  0.00    +0.000 NA
ATOM     26  C   UNL     1      -1.372  12.354  20.748  0.00  0.00    +0.000 C 
ENDBRANCH  18  25
ENDBRANCH  17  18
ENDBRANCH  16  17
ENDBRANCH  15  16
ENDBRANCH   1  15
TORSDOF 6
ENDMDL
MODEL 3
REMARK VINA RESULT:      -8.0      0.741      3.432
REMARK  Name = 
REMARK  8 active torsions:
REMARK  status: ('A' for Active; 'I' for Inactive)
REMARK    1  A    between atoms: C_1  and  C_2
REMARK    2  A    between atoms: C_2  and  C_3
REMARK    3  A    between atoms: N_7  and  C_8
REMARK    4  A    between atoms: C_8  and  C_9
REMARK    5  A    between atoms: C_9  and  C_10
REMARK    6  A    between atoms: C_10  and  C_11
REMARK    7  A    between atoms: C_11  and  C_12
REMARK    8  A    between atoms: C_12  and  N_13
REMARK                            x       y       z     vdW  Elec       q    Type
REMARK                         _______ _______ _______ _____ _____    ______ ____
ROOT
ATOM      1  C   UNL     1       2.682   7.208  18.864  0.00  0.00    +0.000 C 
ENDROOT
BRANCH   1   2
ATOM      2  N   UNL     1       3.001   5.891  18.341  0.00  0.00    +0.000 N 
ATOM      3  C   UNL     1       3.956   5.654  17.375  0.00  0.00    +0.000 A 
ATOM      4  C   UNL     1       4.810   6.536  16.689  0.00  0.00    +0.000 A 
ATOM      5  C   UNL     1       5.687   5.999  15.744  0.00  0.00    +0.000 A 
ATOM      6  C   UNL     1       5.716   4.629  15.495  0.00  0.00    +0.000 A 
ATOM      7  C   UNL     1       4.864   3.762  16.187  0.00  0.00    +0.000 A 
ATOM      8  C   UNL     1       3.968   4.280  17.145  0.00  0.00    +0.000 A 
ATOM      9  C   UNL     1       2.990   3.686  18.003  0.00  0.00    +0.000 A 
ATOM     10  C   UNL     1       2.557   2.360  18.219  0.00  0.00    +0.000 A 
ATOM     11  C   UNL     1       1.540   2.100  19.143  0.00  0.00    +0.000 A 
ATOM     12  C   UNL     1       0.947   3.141  19.848  0.00  0.00    +0.000 A 
ATOM     13  C   UNL     1       1.359   4.464  19.656  0.00  0.00    +0.000 A 
ATOM     14  C   UNL     1       2.387   4.716  18.730  0.00  0.00    +0.000 A 
ENDBRANCH   1   2
BRANCH   1  15
ATOM     15  C   UNL     1       1.763   7.989  17.925  0.00  0.00    +0.000 C 
BRANCH  15  16
ATOM     16  C   UNL     1       1.684   9.474  18.288  0.00  0.00    +0.000 C 
BRANCH  16  17
ATOM     17  C   UNL     1       0.921   9.778  19.582  0.00  0.00    +0.000 C 
BRANCH  17  18
ATOM     18  C   UNL     1       0.571  11.265  19.712  0.00  0.00    +0.000 C 
BRANCH  18  25
ATOM     19  C   UNL     1      -0.821  13.946  22.914  0.00  0.00    +0.000 C 
ATOM     20  C   UNL     1      -1.782  13.052  22.106  0.00  0.00    +0.000 C 
ATOM     21  C   UNL     1      -3.031  13.880  21.753  0.00  0.00    +0.000 C 
ATOM     22  C   UNL     1      -2.210  11.819  22.925  0.00  0.00    +0.000 C 
ATOM     23  C   UNL     1      -1.053  10.847  23.127  0.00  0.00    +0.000 C 
ATOM     24  C   UNL     1      -0.408  10.468  21.795  0.00  0.00    +0.000 C 
ATOM     25  N   UNL     1       0.016  11.644  21.023  0.00  0.00    +0.000 NA
ATOM     26  C   UNL     1      -1.109  12.575  20.801  0.00  0.00    +0.000 C 
ENDBRANCH  18  25
ENDBRANCH  17  18
ENDBRANCH  16  17
ENDBRANCH  15  16
ENDBRANCH   1  15
TORSDOF 6
ENDMDL
MODEL 4
REMARK VINA RESULT:      -8.0      0.295      3.151
REMARK  Name = 
REMARK  8 active torsions:
REMARK  status: ('A' for Active; 'I' for Inactive)
REMARK    1  A    between atoms: C_1  and  C_2
REMARK    2  A    between atoms: C_2  and  C_3
REMARK    3  A    between atoms: N_7  and  C_8
REMARK    4  A    between atoms: C_8  and  C_9
REMARK    5  A    between atoms: C_9  and  C_10
REMARK    6  A    between atoms: C_10  and  C_11
REMARK    7  A    between atoms: C_11  and  C_12
REMARK    8  A    between atoms: C_12  and  N_13
REMARK                            x       y       z     vdW  Elec       q    Type
REMARK                         _______ _______ _______ _____ _____    ______ ____
ROOT
ATOM      1  C   UNL     1       2.834   7.145  18.738  0.00  0.00    +0.000 C 
ENDROOT
BRANCH   1   2
ATOM      2  N   UNL     1       3.117   5.819  18.215  0.00  0.00    +0.000 N 
ATOM      3  C   UNL     1       4.082   5.553  17.266  0.00  0.00    +0.000 A 
ATOM      4  C   UNL     1       4.980   6.407  16.602  0.00  0.00    +0.000 A 
ATOM      5  C   UNL     1       5.855   5.843  15.671  0.00  0.00    +0.000 A 
ATOM      6  C   UNL     1       5.842   4.475  15.417  0.00  0.00    +0.000 A 
ATOM      7  C   UNL     1       4.947   3.635  16.088  0.00  0.00    +0.000 A 
ATOM      8  C   UNL     1       4.051   4.180  17.031  0.00  0.00    +0.000 A 
ATOM      9  C   UNL     1       3.036   3.617  17.866  0.00  0.00    +0.000 A 
ATOM     10  C   UNL     1       2.553   2.307  18.068  0.00  0.00    +0.000 A 
ATOM     11  C   UNL     1       1.510   2.079  18.971  0.00  0.00    +0.000 A 
ATOM     12  C   UNL     1       0.940   3.137  19.669  0.00  0.00    +0.000 A 
ATOM     13  C   UNL     1       1.401   4.446  19.491  0.00  0.00    +0.000 A 
ATOM     14  C   UNL     1       2.456   4.665  18.587  0.00  0.00    +0.000 A 
ENDBRANCH   1   2
BRANCH   1  15
ATOM     15  C   UNL     1       1.867   7.918  17.842  0.00  0.00    +0.000 C 
BRANCH  15  16
ATOM     16  C   UNL     1       1.883   9.422  18.127  0.00  0.00    +0.000 C 
BRANCH  16  17
ATOM     17  C   UNL     1       0.550   9.996  18.617  0.00  0.00    +0.000 C 
BRANCH  17  18
ATOM     18  C   UNL     1       0.573  10.318  20.116  0.00  0.00    +0.000 C 
BRANCH  18  25
ATOM     19  C   UNL     1      -2.295  11.867  23.074  0.00  0.00    +0.000 C 
ATOM     20  C   UNL     1      -1.425  12.792  22.200  0.00  0.00    +0.000 C 
ATOM     21  C   UNL     1      -0.882  13.926  23.088  0.00  0.00    +0.000 C 
ATOM     22  C   UNL     1      -2.250  13.402  21.051  0.00  0.00    +0.000 C 
ATOM     23  C   UNL     1      -2.639  12.353  20.017  0.00  0.00    +0.000 C 
ATOM     24  C   UNL     1      -1.415  11.588  19.514  0.00  0.00    +0.000 C 
ATOM     25  N   UNL     1      -0.640  10.990  20.610  0.00  0.00    +0.000 NA
ATOM     26  C   UNL     1      -0.236  12.010  21.601  0.00  0.00    +0.000 C 
ENDBRANCH  18  25
ENDBRANCH  17  18
ENDBRANCH  16  17
ENDBRANCH  15  16
ENDBRANCH   1  15
TORSDOF 6
ENDMDL
MODEL 5
REMARK VINA RESULT:      -8.0      1.901      2.830
REMARK  Name = 
REMARK  8 active torsions:
REMARK  status: ('A' for Active; 'I' for Inactive)
REMARK    1  A    between atoms: C_1  and  C_2
REMARK    2  A    between atoms: C_2  and  C_3
REMARK    3  A    between atoms: N_7  and  C_8
REMARK    4  A    between atoms: C_8  and  C_9
REMARK    5  A    between atoms: C_9  and  C_10
REMARK    6  A    between atoms: C_10  and  C_11
REMARK    7  A    between atoms: C_11  and  C_12
REMARK    8  A    between atoms: C_12  and  N_13
REMARK                            x       y       z     vdW  Elec       q    Type
REMARK                         _______ _______ _______ _____ _____    ______ ____
ROOT
ATOM      1  C   UNL     1       2.683   7.622  18.880  0.00  0.00    +0.000 C 
ENDROOT
BRANCH   1   2
ATOM      2  N   UNL     1       2.942   6.245  18.495  0.00  0.00    +0.000 N 
ATOM      3  C   UNL     1       2.343   5.152  19.086  0.00  0.00    +0.000 A 
ATOM      4  C   UNL     1       1.401   5.070  20.128  0.00  0.00    +0.000 A 
ATOM      5  C   UNL     1       0.972   3.802  20.525  0.00  0.00    +0.000 A 
ATOM      6  C   UNL     1       1.458   2.656  19.902  0.00  0.00    +0.000 A 
ATOM      7  C   UNL     1       2.390   2.752  18.864  0.00  0.00    +0.000 A 
ATOM      8  C   UNL     1       2.842   4.020  18.446  0.00  0.00    +0.000 A 
ATOM      9  C   UNL     1       3.765   4.457  17.444  0.00  0.00    +0.000 A 
ATOM     10  C   UNL     1       4.565   3.788  16.495  0.00  0.00    +0.000 A 
ATOM     11  C   UNL     1       5.397   4.520  15.642  0.00  0.00    +0.000 A 
ATOM     12  C   UNL     1       5.446   5.907  15.727  0.00  0.00    +0.000 A 
ATOM     13  C   UNL     1       4.661   6.597  16.656  0.00  0.00    +0.000 A 
ATOM     14  C   UNL     1       3.822   5.853  17.505  0.00  0.00    +0.000 A 
ENDBRANCH   1   2
BRANCH   1  15
ATOM     15  C   UNL     1       1.735   8.319  17.904  0.00  0.00    +0.000 C 
BRANCH  15  16
ATOM     16  C   UNL     1       1.303   9.702  18.398  0.00  0.00    +0.000 C 
BRANCH  16  17
ATOM     17  C   UNL     1       0.041   9.707  19.266  0.00  0.00    +0.000 C 
BRANCH  17  18
ATOM     18  C   UNL     1      -0.895  10.871  18.922  0.00  0.00    +0.000 C 
BRANCH  18  25
ATOM     19  C   UNL     1      -5.190  10.076  18.372  0.00  0.00    +0.000 C 
ATOM     20  C   UNL     1      -4.469  11.250  17.679  0.00  0.00    +0.000 C 
ATOM     21  C   UNL     1      -5.370  12.495  17.775  0.00  0.00    +0.000 C 
ATOM     22  C   UNL     1      -4.201  10.935  16.196  0.00  0.00    +0.000 C 
ATOM     23  C   UNL     1      -3.147   9.847  16.032  0.00  0.00    +0.000 C 
ATOM     24  C   UNL     1      -1.869  10.191  16.796  0.00  0.00    +0.000 C 
ATOM     25  N   UNL     1      -2.124  10.472  18.216  0.00  0.00    +0.000 NA
ATOM     26  C   UNL     1      -3.125  11.548  18.378  0.00  0.00    +0.000 C 
ENDBRANCH  18  25
ENDBRANCH  17  18
ENDBRANCH  16  17
ENDBRANCH  15  16
ENDBRANCH   1  15
TORSDOF 6
ENDMDL
MODEL 6
REMARK VINA RESULT:      -8.0      1.457      2.485
REMARK  Name = 
REMARK  8 active torsions:
REMARK  status: ('A' for Active; 'I' for Inactive)
REMARK    1  A    between atoms: C_1  and  C_2
REMARK    2  A    between atoms: C_2  and  C_3
REMARK    3  A    between atoms: N_7  and  C_8
REMARK    4  A    between atoms: C_8  and  C_9
REMARK    5  A    between atoms: C_9  and  C_10
REMARK    6  A    between atoms: C_10  and  C_11
REMARK    7  A    between atoms: C_11  and  C_12
REMARK    8  A    between atoms: C_12  and  N_13
REMARK                            x       y       z     vdW  Elec       q    Type
REMARK                         _______ _______ _______ _____ _____    ______ ____
ROOT
ATOM      1  C   UNL     1       3.177   6.832  19.644  0.00  0.00    +0.000 C 
ENDROOT
BRANCH   1   2
ATOM      2  N   UNL     1       3.269   5.661  18.789  0.00  0.00    +0.000 N 
ATOM      3  C   UNL     1       2.487   4.534  18.935  0.00  0.00    +0.000 A 
ATOM      4  C   UNL     1       1.474   4.230  19.863  0.00  0.00    +0.000 A 
ATOM      5  C   UNL     1       0.848   2.986  19.767  0.00  0.00    +0.000 A 
ATOM      6  C   UNL     1       1.213   2.078  18.777  0.00  0.00    +0.000 A 
ATOM      7  C   UNL     1       2.218   2.394  17.857  0.00  0.00    +0.000 A 
ATOM      8  C   UNL     1       2.868   3.643  17.934  0.00  0.00    +0.000 A 
ATOM      9  C   UNL     1       3.908   4.263  17.172  0.00  0.00    +0.000 A 
ATOM     10  C   UNL     1       4.671   3.862  16.055  0.00  0.00    +0.000 A 
ATOM     11  C   UNL     1       5.652   4.714  15.538  0.00  0.00    +0.000 A 
ATOM     12  C   UNL     1       5.885   5.954  16.121  0.00  0.00    +0.000 A 
ATOM     13  C   UNL     1       5.142   6.378  17.227  0.00  0.00    +0.000 A 
ATOM     14  C   UNL     1       4.152   5.518  17.736  0.00  0.00    +0.000 A 
ENDBRANCH   1   2
BRANCH   1  15
ATOM     15  C   UNL     1       1.977   7.708  19.285  0.00  0.00    +0.000 C 
BRANCH  15  16
ATOM     16  C   UNL     1       2.106   8.331  17.893  0.00  0.00    +0.000 C 
BRANCH  16  17
ATOM     17  C   UNL     1       1.970   9.857  17.857  0.00  0.00    +0.000 C 
BRANCH  17  18
ATOM     18  C   UNL     1       1.133  10.391  19.026  0.00  0.00    +0.000 C 
BRANCH  18  25
ATOM     19  C   UNL     1      -2.327  11.383  16.491  0.00  0.00    +0.000 C 
ATOM     20  C   UNL     1      -2.473  10.677  17.854  0.00  0.00    +0.000 C 
ATOM     21  C   UNL     1      -3.505   9.544  17.703  0.00  0.00    +0.000 C 
ATOM     22  C   UNL     1      -2.958  11.660  18.936  0.00  0.00    +0.000 C 
ATOM     23  C   UNL     1      -1.888  12.687  19.286  0.00  0.00    +0.000 C 
ATOM     24  C   UNL     1      -0.570  12.011  19.660  0.00  0.00    +0.000 C 
ATOM     25  N   UNL     1      -0.099  11.087  18.619  0.00  0.00    +0.000 NA
ATOM     26  C   UNL     1      -1.124  10.072  18.298  0.00  0.00    +0.000 C 
ENDBRANCH  18  25
ENDBRANCH  17  18
ENDBRANCH  16  17
ENDBRANCH  15  16
ENDBRANCH   1  15
TORSDOF 6
ENDMDL
MODEL 7
REMARK VINA RESULT:      -7.9      1.924      4.230
REMARK  Name = 
REMARK  8 active torsions:
REMARK  status: ('A' for Active; 'I' for Inactive)
REMARK    1  A    between atoms: C_1  and  C_2
REMARK    2  A    between atoms: C_2  and  C_3
REMARK    3  A    between atoms: N_7  and  C_8
REMARK    4  A    between atoms: C_8  and  C_9
REMARK    5  A    between atoms: C_9  and  C_10
REMARK    6  A    between atoms: C_10  and  C_11
REMARK    7  A    between atoms: C_11  and  C_12
REMARK    8  A    between atoms: C_12  and  N_13
REMARK                            x       y       z     vdW  Elec       q    Type
REMARK                         _______ _______ _______ _____ _____    ______ ____
ROOT
ATOM      1  C   UNL     1       2.517   7.654  18.993  0.00  0.00    +0.000 C 
ENDROOT
BRANCH   1   2
ATOM      2  N   UNL     1       2.830   6.297  18.580  0.00  0.00    +0.000 N 
ATOM      3  C   UNL     1       3.733   5.981  17.587  0.00  0.00    +0.000 A 
ATOM      4  C   UNL     1       4.533   6.804  16.774  0.00  0.00    +0.000 A 
ATOM      5  C   UNL     1       5.365   6.190  15.836  0.00  0.00    +0.000 A 
ATOM      6  C   UNL     1       5.405   4.804  15.716  0.00  0.00    +0.000 A 
ATOM      7  C   UNL     1       4.608   3.996  16.534  0.00  0.00    +0.000 A 
ATOM      8  C   UNL     1       3.758   4.592  17.488  0.00  0.00    +0.000 A 
ATOM      9  C   UNL     1       2.840   4.069  18.452  0.00  0.00    +0.000 A 
ATOM     10  C   UNL     1       2.443   2.765  18.817  0.00  0.00    +0.000 A 
ATOM     11  C   UNL     1       1.484   2.582  19.818  0.00  0.00    +0.000 A 
ATOM     12  C   UNL     1       0.912   3.678  20.454  0.00  0.00    +0.000 A 
ATOM     13  C   UNL     1       1.289   4.981  20.115  0.00  0.00    +0.000 A 
ATOM     14  C   UNL     1       2.260   5.157  19.112  0.00  0.00    +0.000 A 
ENDBRANCH   1   2
BRANCH   1  15
ATOM     15  C   UNL     1       1.954   8.487  17.842  0.00  0.00    +0.000 C 
BRANCH  15  16
ATOM     16  C   UNL     1       1.343   9.806  18.321  0.00  0.00    +0.000 C 
BRANCH  16  17
ATOM     17  C   UNL     1       0.049   9.658  19.128  0.00  0.00    +0.000 C 
BRANCH  17  18
ATOM     18  C   UNL     1      -0.919  10.823  18.891  0.00  0.00    +0.000 C 
BRANCH  18  25
ATOM     19  C   UNL     1      -5.238  10.138  18.388  0.00  0.00    +0.000 C 
ATOM     20  C   UNL     1      -4.491  11.280  17.671  0.00  0.00    +0.000 C 
ATOM     21  C   UNL     1      -5.357  12.550  17.753  0.00  0.00    +0.000 C 
ATOM     22  C   UNL     1      -4.243  10.933  16.191  0.00  0.00    +0.000 C 
ATOM     23  C   UNL     1      -3.221   9.813  16.037  0.00  0.00    +0.000 C 
ATOM     24  C   UNL     1      -1.928  10.135  16.785  0.00  0.00    +0.000 C 
ATOM     25  N   UNL     1      -2.163  10.447  18.202  0.00  0.00    +0.000 NA
ATOM     26  C   UNL     1      -3.133  11.552  18.354  0.00  0.00    +0.000 C 
ENDBRANCH  18  25
ENDBRANCH  17  18
ENDBRANCH  16  17
ENDBRANCH  15  16
ENDBRANCH   1  15
TORSDOF 6
ENDMDL
MODEL 8
REMARK VINA RESULT:      -7.8      1.583      9.105
REMARK  Name = 
REMARK  8 active torsions:
REMARK  status: ('A' for Active; 'I' for Inactive)
REMARK    1  A    between atoms: C_1  and  C_2
REMARK    2  A    between atoms: C_2  and  C_3
REMARK    3  A    between atoms: N_7  and  C_8
REMARK    4  A    between atoms: C_8  and  C_9
REMARK    5  A    between atoms: C_9  and  C_10
REMARK    6  A    between atoms: C_10  and  C_11
REMARK    7  A    between atoms: C_11  and  C_12
REMARK    8  A    between atoms: C_12  and  N_13
REMARK                            x       y       z     vdW  Elec       q    Type
REMARK                         _______ _______ _______ _____ _____    ______ ____
ROOT
ATOM      1  C   UNL     1       0.379   9.683  19.328  0.00  0.00    +0.000 C 
ENDROOT
BRANCH   1   2
ATOM      2  N   UNL     1      -0.785  10.552  19.307  0.00  0.00    +0.000 N 
ATOM      3  C   UNL     1      -1.739  10.541  18.312  0.00  0.00    +0.000 A 
ATOM      4  C   UNL     1      -1.846   9.759  17.148  0.00  0.00    +0.000 A 
ATOM      5  C   UNL     1      -2.941   9.977  16.309  0.00  0.00    +0.000 A 
ATOM      6  C   UNL     1      -3.900  10.936  16.622  0.00  0.00    +0.000 A 
ATOM      7  C   UNL     1      -3.785  11.704  17.785  0.00  0.00    +0.000 A 
ATOM      8  C   UNL     1      -2.687  11.505  18.648  0.00  0.00    +0.000 A 
ATOM      9  C   UNL     1      -2.281  12.104  19.881  0.00  0.00    +0.000 A 
ATOM     10  C   UNL     1      -2.825  13.115  20.702  0.00  0.00    +0.000 A 
ATOM     11  C   UNL     1      -2.161  13.497  21.871  0.00  0.00    +0.000 A 
ATOM     12  C   UNL     1      -0.962  12.893  22.229  0.00  0.00    +0.000 A 
ATOM     13  C   UNL     1      -0.401  11.886  21.436  0.00  0.00    +0.000 A 
ATOM     14  C   UNL     1      -1.079  11.502  20.266  0.00  0.00    +0.000 A 
ENDBRANCH   1   2
BRANCH   1  15
ATOM     15  C   UNL     1       1.452  10.141  18.340  0.00  0.00    +0.000 C 
BRANCH  15  16
ATOM     16  C   UNL     1       2.310   8.980  17.831  0.00  0.00    +0.000 C 
BRANCH  16  17
ATOM     17  C   UNL     1       2.313   7.742  18.734  0.00  0.00    +0.000 C 
BRANCH  17  18
ATOM     18  C   UNL     1       3.014   6.547  18.077  0.00  0.00    +0.000 C 
BRANCH  18  25
ATOM     19  C   UNL     1       1.524   3.489  20.871  0.00  0.00    +0.000 C 
ATOM     20  C   UNL     1       1.798   3.190  19.383  0.00  0.00    +0.000 C 
ATOM     21  C   UNL     1       0.638   2.335  18.841  0.00  0.00    +0.000 C 
ATOM     22  C   UNL     1       3.119   2.416  19.210  0.00  0.00    +0.000 C 
ATOM     23  C   UNL     1       4.328   3.287  19.530  0.00  0.00    +0.000 C 
ATOM     24  C   UNL     1       4.304   4.588  18.729  0.00  0.00    +0.000 C 
ATOM     25  N   UNL     1       3.051   5.334  18.910  0.00  0.00    +0.000 NA
ATOM     26  C   UNL     1       1.877   4.502  18.573  0.00  0.00    +0.000 C 
ENDBRANCH  18  25
ENDBRANCH  17  18
ENDBRANCH  16  17
ENDBRANCH  15  16
ENDBRANCH   1  15
TORSDOF 6
ENDMDL
MODEL 9
REMARK VINA RESULT:      -7.8      0.842      3.302
REMARK  Name = 
REMARK  8 active torsions:
REMARK  status: ('A' for Active; 'I' for Inactive)
REMARK    1  A    between atoms: C_1  and  C_2
REMARK    2  A    between atoms: C_2  and  C_3
REMARK    3  A    between atoms: N_7  and  C_8
REMARK    4  A    between atoms: C_8  and  C_9
REMARK    5  A    between atoms: C_9  and  C_10
REMARK    6  A    between atoms: C_10  and  C_11
REMARK    7  A    between atoms: C_11  and  C_12
REMARK    8  A    between atoms: C_12  and  N_13
REMARK                            x       y       z     vdW  Elec       q    Type
REMARK                         _______ _______ _______ _____ _____    ______ ____
ROOT
ATOM      1  C   UNL     1       2.690   7.280  18.809  0.00  0.00    +0.000 C 
ENDROOT
BRANCH   1   2
ATOM      2  N   UNL     1       3.007   5.934  18.362  0.00  0.00    +0.000 N 
ATOM      3  C   UNL     1       3.946   5.643  17.395  0.00  0.00    +0.000 A 
ATOM      4  C   UNL     1       4.782   6.485  16.640  0.00  0.00    +0.000 A 
ATOM      5  C   UNL     1       5.644   5.895  15.714  0.00  0.00    +0.000 A 
ATOM      6  C   UNL     1       5.677   4.513  15.549  0.00  0.00    +0.000 A 
ATOM      7  C   UNL     1       4.844   3.686  16.309  0.00  0.00    +0.000 A 
ATOM      8  C   UNL     1       3.962   4.257  17.250  0.00  0.00    +0.000 A 
ATOM      9  C   UNL     1       3.004   3.712  18.161  0.00  0.00    +0.000 A 
ATOM     10  C   UNL     1       2.583   2.401  18.467  0.00  0.00    +0.000 A 
ATOM     11  C   UNL     1       1.585   2.194  19.424  0.00  0.00    +0.000 A 
ATOM     12  C   UNL     1       0.999   3.273  20.074  0.00  0.00    +0.000 A 
ATOM     13  C   UNL     1       1.399   4.583  19.793  0.00  0.00    +0.000 A 
ATOM     14  C   UNL     1       2.408   4.783  18.835  0.00  0.00    +0.000 A 
ENDBRANCH   1   2
BRANCH   1  15
ATOM     15  C   UNL     1       1.862   8.045  17.776  0.00  0.00    +0.000 C 
BRANCH  15  16
ATOM     16  C   UNL     1       1.883   9.556  18.016  0.00  0.00    +0.000 C 
BRANCH  16  17
ATOM     17  C   UNL     1       0.965  10.038  19.144  0.00  0.00    +0.000 C 
BRANCH  17  18
ATOM     18  C   UNL     1      -0.430  10.419  18.634  0.00  0.00    +0.000 C 
BRANCH  18  25
ATOM     19  C   UNL     1      -3.037  12.869  21.200  0.00  0.00    +0.000 C 
ATOM     20  C   UNL     1      -1.526  12.714  21.461  0.00  0.00    +0.000 C 
ATOM     21  C   UNL     1      -1.316  12.509  22.972  0.00  0.00    +0.000 C 
ATOM     22  C   UNL     1      -0.756  13.970  21.011  0.00  0.00    +0.000 C 
ATOM     23  C   UNL     1      -0.746  14.111  19.493  0.00  0.00    +0.000 C 
ATOM     24  C   UNL     1      -0.234  12.839  18.820  0.00  0.00    +0.000 C 
ATOM     25  N   UNL     1      -0.981  11.644  19.236  0.00  0.00    +0.000 NA
ATOM     26  C   UNL     1      -0.968  11.488  20.706  0.00  0.00    +0.000 C 
ENDBRANCH  18  25
ENDBRANCH  17  18
ENDBRANCH  16  17
ENDBRANCH  15  16
ENDBRANCH   1  15
TORSDOF 6
ENDMDL
