MODEL 1
REMARK VINA RESULT:      -6.7      0.000      0.000
REMARK  Name = 
REMARK  8 active torsions:
REMARK  status: ('A' for Active; 'I' for Inactive)
REMARK    1  A    between atoms: C_1  and  C_2
REMARK    2  A    between atoms: C_2  and  O_3
REMARK    3  A    between atoms: O_3  and  C_4
REMARK    4  A    between atoms: C_4  and  C_6
REMARK    5  A    between atoms: C_10  and  C_12
REMARK    6  A    between atoms: C_12  and  C_13
REMARK    7  A    between atoms: C_13  and  C_14
REMARK    8  A    between atoms: C_17  and  C_18
REMARK                            x       y       z     vdW  Elec       q    Type
REMARK                         _______ _______ _______ _____ _____    ______ ____
ROOT
ATOM      1  C   UNL     1       6.207   4.540  16.896  0.00  0.00    +0.000 A 
ATOM      2  S   UNL     1       4.659   3.816  17.003  0.00  0.00    +0.000 S 
ATOM      3  C   UNL     1       4.738   3.867  18.694  0.00  0.00    +0.000 A 
ATOM      4  N   UNL     1       3.756   3.337  19.494  0.00  0.00    +0.000 N 
ATOM      5  C   UNL     1       2.768   2.470  19.081  0.00  0.00    +0.000 C 
ATOM      6  O   UNL     1       2.583   2.050  17.944  0.00  0.00    +0.000 OA
ATOM      7  N   UNL     1       5.786   4.474  19.200  0.00  0.00    +0.000 NA
ATOM      8  C   UNL     1       6.659   4.840  18.174  0.00  0.00    +0.000 A 
ATOM      9  C   UNL     1       7.956   5.464  18.561  0.00  0.00    +0.000 C 
ATOM     10  H   UNL     1       3.910   3.498  20.479  0.00  0.00    +0.000 HD
ENDROOT
BRANCH   1  11
ATOM     11  C   UNL     1       6.812   4.672  15.592  0.00  0.00    +0.000 C 
ATOM     12  O   UNL     1       7.535   5.591  15.218  0.00  0.00    +0.000 OA
BRANCH  11  13
ATOM     13  O   UNL     1       6.376   3.674  14.776  0.00  0.00    +0.000 OA
BRANCH  13  15
ATOM     14  C   UNL     1       6.416   3.503  12.393  0.00  0.00    +0.000 C 
ATOM     15  C   UNL     1       5.700   4.111  13.586  0.00  0.00    +0.000 C 
ENDBRANCH  13  15
ENDBRANCH  11  13
ENDBRANCH   1  11
BRANCH   5  16
ATOM     16  C   UNL     1       1.847   2.042  20.207  0.00  0.00    +0.000 C 
BRANCH  16  17
ATOM     17  C   UNL     1       1.478   3.226  21.110  0.00  0.00    +0.000 C 
BRANCH  17  18
ATOM     18  C   UNL     1       0.820   4.391  20.371  0.00  0.00    +0.000 C 
ATOM     19 CL   UNL     1       1.692   5.919  20.646  0.00  0.00    +0.000 Cl
ENDBRANCH  17  18
ENDBRANCH  16  17
ENDBRANCH   5  16
TORSDOF 6
ENDMDL
MODEL 2
REMARK VINA RESULT:      -6.6      1.005      1.015
REMARK  Name = 
REMARK  8 active torsions:
REMARK  status: ('A' for Active; 'I' for Inactive)
REMARK    1  A    between atoms: C_1  and  C_2
REMARK    2  A    between atoms: C_2  and  O_3
REMARK    3  A    between atoms: O_3  and  C_4
REMARK    4  A    between atoms: C_4  and  C_6
REMARK    5  A    between atoms: C_10  and  C_12
REMARK    6  A    between atoms: C_12  and  C_13
REMARK    7  A    between atoms: C_13  and  C_14
REMARK    8  A    between atoms: C_17  and  C_18
REMARK                            x       y       z     vdW  Elec       q    Type
REMARK                         _______ _______ _______ _____ _____    ______ ____
ROOT
ATOM      1  C   UNL     1       6.159   4.924  16.414  0.00  0.00    +0.000 A 
ATOM      2  S   UNL     1       4.949   3.850  16.974  0.00  0.00    +0.000 S 
ATOM      3  C   UNL     1       5.051   4.525  18.524  0.00  0.00    +0.000 A 
ATOM      4  N   UNL     1       4.326   4.044  19.587  0.00  0.00    +0.000 N 
ATOM      5  C   UNL     1       3.677   2.829  19.629  0.00  0.00    +0.000 C 
ATOM      6  O   UNL     1       3.614   1.995  18.732  0.00  0.00    +0.000 OA
ATOM      7  N   UNL     1       5.846   5.562  18.646  0.00  0.00    +0.000 NA
ATOM      8  C   UNL     1       6.517   5.784  17.442  0.00  0.00    +0.000 A 
ATOM      9  C   UNL     1       7.538   6.869  17.412  0.00  0.00    +0.000 C 
ATOM     10  H   UNL     1       4.443   4.585  20.432  0.00  0.00    +0.000 HD
ENDROOT
BRANCH   1  11
ATOM     11  C   UNL     1       6.649   4.759  15.066  0.00  0.00    +0.000 C 
ATOM     12  O   UNL     1       7.660   5.272  14.594  0.00  0.00    +0.000 OA
BRANCH  11  13
ATOM     13  O   UNL     1       5.761   4.029  14.336  0.00  0.00    +0.000 OA
BRANCH  13  15
ATOM     14  C   UNL     1       5.067   3.509  12.110  0.00  0.00    +0.000 C 
ATOM     15  C   UNL     1       6.247   3.573  13.064  0.00  0.00    +0.000 C 
ENDBRANCH  13  15
ENDBRANCH  11  13
ENDBRANCH   1  11
BRANCH   5  16
ATOM     16  C   UNL     1       2.984   2.573  20.954  0.00  0.00    +0.000 C 
BRANCH  16  17
ATOM     17  C   UNL     1       1.467   2.769  20.839  0.00  0.00    +0.000 C 
BRANCH  17  18
ATOM     18  C   UNL     1       1.056   3.963  19.978  0.00  0.00    +0.000 C 
ATOM     19 CL   UNL     1       1.430   5.509  20.779  0.00  0.00    +0.000 Cl
ENDBRANCH  17  18
ENDBRANCH  16  17
ENDBRANCH   5  16
TORSDOF 6
ENDMDL
MODEL 3
REMARK VINA RESULT:      -6.6      1.660      1.786
REMARK  Name = 
REMARK  8 active torsions:
REMARK  status: ('A' for Active; 'I' for Inactive)
REMARK    1  A    between atoms: C_1  and  C_2
REMARK    2  A    between atoms: C_2  and  O_3
REMARK    3  A    between atoms: O_3  and  C_4
REMARK    4  A    between atoms: C_4  and  C_6
REMARK    5  A    between atoms: C_10  and  C_12
REMARK    6  A    between atoms: C_12  and  C_13
REMARK    7  A    between atoms: C_13  and  C_14
REMARK    8  A    between atoms: C_17  and  C_18
REMARK                            x       y       z     vdW  Elec       q    Type
REMARK                         _______ _______ _______ _____ _____    ______ ____
ROOT
ATOM      1  C   UNL     1       6.080   5.187  15.859  0.00  0.00    +0.000 A 
ATOM      2  S   UNL     1       4.558   4.403  15.880  0.00  0.00    +0.000 S 
ATOM      3  C   UNL     1       4.211   5.090  17.389  0.00  0.00    +0.000 A 
ATOM      4  N   UNL     1       3.063   4.801  18.084  0.00  0.00    +0.000 N 
ATOM      5  C   UNL     1       2.213   3.748  17.824  0.00  0.00    +0.000 C 
ATOM      6  O   UNL     1       2.320   2.917  16.929  0.00  0.00    +0.000 OA
ATOM      7  N   UNL     1       5.097   5.944  17.846  0.00  0.00    +0.000 NA
ATOM      8  C   UNL     1       6.197   5.986  16.987  0.00  0.00    +0.000 A 
ATOM      9  C   UNL     1       7.353   6.837  17.389  0.00  0.00    +0.000 C 
ATOM     10  H   UNL     1       2.965   5.333  18.937  0.00  0.00    +0.000 HD
ENDROOT
BRANCH   1  11
ATOM     11  C   UNL     1       6.992   4.882  14.781  0.00  0.00    +0.000 C 
ATOM     12  O   UNL     1       7.940   5.571  14.417  0.00  0.00    +0.000 OA
BRANCH  11  13
ATOM     13  O   UNL     1       6.584   3.756  14.134  0.00  0.00    +0.000 OA
BRANCH  13  15
ATOM     14  C   UNL     1       5.387   3.268  12.126  0.00  0.00    +0.000 C 
ATOM     15  C   UNL     1       6.685   3.804  12.703  0.00  0.00    +0.000 C 
ENDBRANCH  13  15
ENDBRANCH  11  13
ENDBRANCH   1  11
BRANCH   5  16
ATOM     16  C   UNL     1       1.042   3.681  18.785  0.00  0.00    +0.000 C 
BRANCH  16  17
ATOM     17  C   UNL     1       1.436   4.172  20.184  0.00  0.00    +0.000 C 
BRANCH  17  18
ATOM     18  C   UNL     1       1.351   3.098  21.268  0.00  0.00    +0.000 C 
ATOM     19 CL   UNL     1       2.951   2.407  21.634  0.00  0.00    +0.000 Cl
ENDBRANCH  17  18
ENDBRANCH  16  17
ENDBRANCH   5  16
TORSDOF 6
ENDMDL
MODEL 4
REMARK VINA RESULT:      -6.4      1.443      1.667
REMARK  Name = 
REMARK  8 active torsions:
REMARK  status: ('A' for Active; 'I' for Inactive)
REMARK    1  A    between atoms: C_1  and  C_2
REMARK    2  A    between atoms: C_2  and  O_3
REMARK    3  A    between atoms: O_3  and  C_4
REMARK    4  A    between atoms: C_4  and  C_6
REMARK    5  A    between atoms: C_10  and  C_12
REMARK    6  A    between atoms: C_12  and  C_13
REMARK    7  A    between atoms: C_13  and  C_14
REMARK    8  A    between atoms: C_17  and  C_18
REMARK                            x       y       z     vdW  Elec       q    Type
REMARK                         _______ _______ _______ _____ _____    ______ ____
ROOT
ATOM      1  C   UNL     1       6.173   5.681  17.526  0.00  0.00    +0.000 A 
ATOM      2  S   UNL     1       4.612   5.071  17.177  0.00  0.00    +0.000 S 
ATOM      3  C   UNL     1       4.624   4.179  18.617  0.00  0.00    +0.000 A 
ATOM      4  N   UNL     1       3.603   3.330  18.966  0.00  0.00    +0.000 N 
ATOM      5  C   UNL     1       2.620   2.869  18.119  0.00  0.00    +0.000 C 
ATOM      6  O   UNL     1       2.474   3.152  16.935  0.00  0.00    +0.000 OA
ATOM      7  N   UNL     1       5.660   4.371  19.400  0.00  0.00    +0.000 NA
ATOM      8  C   UNL     1       6.578   5.211  18.768  0.00  0.00    +0.000 A 
ATOM      9  C   UNL     1       7.868   5.474  19.467  0.00  0.00    +0.000 C 
ATOM     10  H   UNL     1       3.720   2.916  19.880  0.00  0.00    +0.000 HD
ENDROOT
BRANCH   1  11
ATOM     11  C   UNL     1       6.831   6.489  16.527  0.00  0.00    +0.000 C 
ATOM     12  O   UNL     1       7.495   7.501  16.735  0.00  0.00    +0.000 OA
BRANCH  11  13
ATOM     13  O   UNL     1       6.520   6.032  15.283  0.00  0.00    +0.000 OA
BRANCH  13  15
ATOM     14  C   UNL     1       6.306   4.097  13.899  0.00  0.00    +0.000 C 
ATOM     15  C   UNL     1       7.195   4.827  14.890  0.00  0.00    +0.000 C 
ENDBRANCH  13  15
ENDBRANCH  11  13
ENDBRANCH   1  11
BRANCH   5  16
ATOM     16  C   UNL     1       1.648   1.922  18.798  0.00  0.00    +0.000 C 
BRANCH  16  17
ATOM     17  C   UNL     1       0.470   2.682  19.421  0.00  0.00    +0.000 C 
BRANCH  17  18
ATOM     18  C   UNL     1       0.863   3.613  20.567  0.00  0.00    +0.000 C 
ATOM     19 CL   UNL     1       1.700   2.732  21.869  0.00  0.00    +0.000 Cl
ENDBRANCH  17  18
ENDBRANCH  16  17
ENDBRANCH   5  16
TORSDOF 6
ENDMDL
MODEL 5
REMARK VINA RESULT:      -6.4      1.428      1.433
REMARK  Name = 
REMARK  8 active torsions:
REMARK  status: ('A' for Active; 'I' for Inactive)
REMARK    1  A    between atoms: C_1  and  C_2
REMARK    2  A    between atoms: C_2  and  O_3
REMARK    3  A    between atoms: O_3  and  C_4
REMARK    4  A    between atoms: C_4  and  C_6
REMARK    5  A    between atoms: C_10  and  C_12
REMARK    6  A    between atoms: C_12  and  C_13
REMARK    7  A    between atoms: C_13  and  C_14
REMARK    8  A    between atoms: C_17  and  C_18
REMARK                            x       y       z     vdW  Elec       q    Type
REMARK                         _______ _______ _______ _____ _____    ______ ____
ROOT
ATOM      1  C   UNL     1       6.237   4.926  16.670  0.00  0.00    +0.000 A 
ATOM      2  S   UNL     1       5.070   3.823  17.266  0.00  0.00    +0.000 S 
ATOM      3  C   UNL     1       5.077   4.608  18.767  0.00  0.00    +0.000 A 
ATOM      4  N   UNL     1       4.343   4.159  19.837  0.00  0.00    +0.000 N 
ATOM      5  C   UNL     1       3.763   2.914  19.944  0.00  0.00    +0.000 C 
ATOM      6  O   UNL     1       3.780   2.018  19.107  0.00  0.00    +0.000 OA
ATOM      7  N   UNL     1       5.808   5.696  18.841  0.00  0.00    +0.000 NA
ATOM      8  C   UNL     1       6.509   5.874  17.647  0.00  0.00    +0.000 A 
ATOM      9  C   UNL     1       7.466   7.013  17.573  0.00  0.00    +0.000 C 
ATOM     10  H   UNL     1       4.398   4.763  20.644  0.00  0.00    +0.000 HD
ENDROOT
BRANCH   1  11
ATOM     11  C   UNL     1       6.785   4.698  15.354  0.00  0.00    +0.000 C 
ATOM     12  O   UNL     1       7.650   5.371  14.802  0.00  0.00    +0.000 OA
BRANCH  11  13
ATOM     13  O   UNL     1       6.120   3.677  14.746  0.00  0.00    +0.000 OA
BRANCH  13  15
ATOM     14  C   UNL     1       6.207   3.351  12.382  0.00  0.00    +0.000 C 
ATOM     15  C   UNL     1       5.460   4.024  13.519  0.00  0.00    +0.000 C 
ENDBRANCH  13  15
ENDBRANCH  11  13
ENDBRANCH   1  11
BRANCH   5  16
ATOM     16  C   UNL     1       3.038   2.709  21.260  0.00  0.00    +0.000 C 
BRANCH  16  17
ATOM     17  C   UNL     1       1.520   2.619  21.055  0.00  0.00    +0.000 C 
BRANCH  17  18
ATOM     18  C   UNL     1       1.001   3.442  19.877  0.00  0.00    +0.000 C 
ATOM     19 CL   UNL     1       0.422   2.401  18.554  0.00  0.00    +0.000 Cl
ENDBRANCH  17  18
ENDBRANCH  16  17
ENDBRANCH   5  16
TORSDOF 6
ENDMDL
MODEL 6
REMARK VINA RESULT:      -6.3      3.590      6.802
REMARK  Name = 
REMARK  8 active torsions:
REMARK  status: ('A' for Active; 'I' for Inactive)
REMARK    1  A    between atoms: C_1  and  C_2
REMARK    2  A    between atoms: C_2  and  O_3
REMARK    3  A    between atoms: O_3  and  C_4
REMARK    4  A    between atoms: C_4  and  C_6
REMARK    5  A    between atoms: C_10  and  C_12
REMARK    6  A    between atoms: C_12  and  C_13
REMARK    7  A    between atoms: C_13  and  C_14
REMARK    8  A    between atoms: C_17  and  C_18
REMARK                            x       y       z     vdW  Elec       q    Type
REMARK                         _______ _______ _______ _____ _____    ______ ____
ROOT
ATOM      1  C   UNL     1       3.842   3.648  18.680  0.00  0.00    +0.000 A 
ATOM      2  S   UNL     1       5.370   4.393  18.889  0.00  0.00    +0.000 S 
ATOM      3  C   UNL     1       4.862   5.722  17.970  0.00  0.00    +0.000 A 
ATOM      4  N   UNL     1       5.699   6.765  17.658  0.00  0.00    +0.000 N 
ATOM      5  C   UNL     1       7.071   6.754  17.776  0.00  0.00    +0.000 C 
ATOM      6  O   UNL     1       7.768   5.837  18.197  0.00  0.00    +0.000 OA
ATOM      7  N   UNL     1       3.605   5.711  17.594  0.00  0.00    +0.000 NA
ATOM      8  C   UNL     1       3.012   4.504  17.969  0.00  0.00    +0.000 A 
ATOM      9  C   UNL     1       1.603   4.268  17.547  0.00  0.00    +0.000 C 
ATOM     10  H   UNL     1       5.240   7.513  17.158  0.00  0.00    +0.000 HD
ENDROOT
BRANCH   1  11
ATOM     11  C   UNL     1       3.662   2.306  19.178  0.00  0.00    +0.000 C 
ATOM     12  O   UNL     1       3.523   1.293  18.499  0.00  0.00    +0.000 OA
BRANCH  11  13
ATOM     13  O   UNL     1       3.552   2.326  20.535  0.00  0.00    +0.000 OA
BRANCH  13  15
ATOM     14  C   UNL     1       2.054   3.857  21.592  0.00  0.00    +0.000 C 
ATOM     15  C   UNL     1       2.213   2.453  21.037  0.00  0.00    +0.000 C 
ENDBRANCH  13  15
ENDBRANCH  11  13
ENDBRANCH   1  11
BRANCH   5  16
ATOM     16  C   UNL     1       7.716   8.052  17.328  0.00  0.00    +0.000 C 
BRANCH  16  17
ATOM     17  C   UNL     1       8.524   8.696  18.461  0.00  0.00    +0.000 C 
BRANCH  17  18
ATOM     18  C   UNL     1       8.790  10.188  18.266  0.00  0.00    +0.000 C 
ATOM     19 CL   UNL     1       9.927  10.817  19.484  0.00  0.00    +0.000 Cl
ENDBRANCH  17  18
ENDBRANCH  16  17
ENDBRANCH   5  16
TORSDOF 6
ENDMDL
MODEL 7
REMARK VINA RESULT:      -6.2      3.571      6.573
REMARK  Name = 
REMARK  8 active torsions:
REMARK  status: ('A' for Active; 'I' for Inactive)
REMARK    1  A    between atoms: C_1  and  C_2
REMARK    2  A    between atoms: C_2  and  O_3
REMARK    3  A    between atoms: O_3  and  C_4
REMARK    4  A    between atoms: C_4  and  C_6
REMARK    5  A    between atoms: C_10  and  C_12
REMARK    6  A    between atoms: C_12  and  C_13
REMARK    7  A    between atoms: C_13  and  C_14
REMARK    8  A    between atoms: C_17  and  C_18
REMARK                            x       y       z     vdW  Elec       q    Type
REMARK                         _______ _______ _______ _____ _____    ______ ____
ROOT
ATOM      1  C   UNL     1       3.803   3.848  18.151  0.00  0.00    +0.000 A 
ATOM      2  S   UNL     1       4.568   5.137  17.323  0.00  0.00    +0.000 S 
ATOM      3  C   UNL     1       5.900   5.031  18.364  0.00  0.00    +0.000 A 
ATOM      4  N   UNL     1       6.960   5.902  18.295  0.00  0.00    +0.000 N 
ATOM      5  C   UNL     1       6.968   7.101  17.618  0.00  0.00    +0.000 C 
ATOM      6  O   UNL     1       6.057   7.578  16.951  0.00  0.00    +0.000 OA
ATOM      7  N   UNL     1       5.875   4.043  19.227  0.00  0.00    +0.000 NA
ATOM      8  C   UNL     1       4.654   3.371  19.137  0.00  0.00    +0.000 A 
ATOM      9  C   UNL     1       4.401   2.268  20.107  0.00  0.00    +0.000 C 
ATOM     10  H   UNL     1       7.707   5.677  18.937  0.00  0.00    +0.000 HD
ENDROOT
BRANCH   1  11
ATOM     11  C   UNL     1       2.451   3.503  17.778  0.00  0.00    +0.000 C 
ATOM     12  O   UNL     1       2.112   2.548  17.086  0.00  0.00    +0.000 OA
BRANCH  11  13
ATOM     13  O   UNL     1       1.590   4.463  18.216  0.00  0.00    +0.000 OA
BRANCH  13  15
ATOM     14  C   UNL     1       0.799   3.429  20.218  0.00  0.00    +0.000 C 
ATOM     15  C   UNL     1       1.533   4.626  19.641  0.00  0.00    +0.000 C 
ENDBRANCH  13  15
ENDBRANCH  11  13
ENDBRANCH   1  11
BRANCH   5  16
ATOM     16  C   UNL     1       8.281   7.849  17.753  0.00  0.00    +0.000 C 
BRANCH  16  17
ATOM     17  C   UNL     1       8.052   9.357  17.921  0.00  0.00    +0.000 C 
BRANCH  17  18
ATOM     18  C   UNL     1       9.070  10.044  18.831  0.00  0.00    +0.000 C 
ATOM     19 CL   UNL     1      10.032  11.251  17.945  0.00  0.00    +0.000 Cl
ENDBRANCH  17  18
ENDBRANCH  16  17
ENDBRANCH   5  16
TORSDOF 6
ENDMDL
MODEL 8
REMARK VINA RESULT:      -6.2      3.255      6.946
REMARK  Name = 
REMARK  8 active torsions:
REMARK  status: ('A' for Active; 'I' for Inactive)
REMARK    1  A    between atoms: C_1  and  C_2
REMARK    2  A    between atoms: C_2  and  O_3
REMARK    3  A    between atoms: O_3  and  C_4
REMARK    4  A    between atoms: C_4  and  C_6
REMARK    5  A    between atoms: C_10  and  C_12
REMARK    6  A    between atoms: C_12  and  C_13
REMARK    7  A    between atoms: C_13  and  C_14
REMARK    8  A    between atoms: C_17  and  C_18
REMARK                            x       y       z     vdW  Elec       q    Type
REMARK                         _______ _______ _______ _____ _____    ______ ____
ROOT
ATOM      1  C   UNL     1       2.761   3.667  19.618  0.00  0.00    +0.000 A 
ATOM      2  S   UNL     1       4.191   4.386  19.010  0.00  0.00    +0.000 S 
ATOM      3  C   UNL     1       3.846   3.794  17.461  0.00  0.00    +0.000 A 
ATOM      4  N   UNL     1       4.699   3.967  16.399  0.00  0.00    +0.000 N 
ATOM      5  C   UNL     1       6.017   4.356  16.486  0.00  0.00    +0.000 C 
ATOM      6  O   UNL     1       6.638   4.635  17.506  0.00  0.00    +0.000 OA
ATOM      7  N   UNL     1       2.693   3.180  17.327  0.00  0.00    +0.000 NA
ATOM      8  C   UNL     1       2.070   3.072  18.571  0.00  0.00    +0.000 A 
ATOM      9  C   UNL     1       0.784   2.321  18.635  0.00  0.00    +0.000 C 
ATOM     10  H   UNL     1       4.331   3.614  15.527  0.00  0.00    +0.000 HD
ENDROOT
BRANCH   1  11
ATOM     11  C   UNL     1       2.519   3.720  21.040  0.00  0.00    +0.000 C 
ATOM     12  O   UNL     1       2.410   2.757  21.793  0.00  0.00    +0.000 OA
BRANCH  11  13
ATOM     13  O   UNL     1       2.314   5.009  21.428  0.00  0.00    +0.000 OA
BRANCH  13  15
ATOM     14  C   UNL     1       1.705   7.129  20.510  0.00  0.00    +0.000 C 
ATOM     15  C   UNL     1       1.260   5.694  20.733  0.00  0.00    +0.000 C 
ENDBRANCH  13  15
ENDBRANCH  11  13
ENDBRANCH   1  11
BRANCH   5  16
ATOM     16  C   UNL     1       6.703   4.432  15.136  0.00  0.00    +0.000 C 
BRANCH  16  17
ATOM     17  C   UNL     1       5.763   3.996  14.005  0.00  0.00    +0.000 C 
BRANCH  17  18
ATOM     18  C   UNL     1       6.473   3.687  12.688  0.00  0.00    +0.000 C 
ATOM     19 CL   UNL     1       5.544   2.537  11.695  0.00  0.00    +0.000 Cl
ENDBRANCH  17  18
ENDBRANCH  16  17
ENDBRANCH   5  16
TORSDOF 6
ENDMDL
MODEL 9
REMARK VINA RESULT:      -6.2      3.842      6.642
REMARK  Name = 
REMARK  8 active torsions:
REMARK  status: ('A' for Active; 'I' for Inactive)
REMARK    1  A    between atoms: C_1  and  C_2
REMARK    2  A    between atoms: C_2  and  O_3
REMARK    3  A    between atoms: O_3  and  C_4
REMARK    4  A    between atoms: C_4  and  C_6
REMARK    5  A    between atoms: C_10  and  C_12
REMARK    6  A    between atoms: C_12  and  C_13
REMARK    7  A    between atoms: C_13  and  C_14
REMARK    8  A    between atoms: C_17  and  C_18
REMARK                            x       y       z     vdW  Elec       q    Type
REMARK                         _______ _______ _______ _____ _____    ______ ____
ROOT
ATOM      1  C   UNL     1       5.543   4.764  17.919  0.00  0.00    +0.000 A 
ATOM      2  S   UNL     1       5.041   4.089  16.428  0.00  0.00    +0.000 S 
ATOM      3  C   UNL     1       6.583   4.350  15.777  0.00  0.00    +0.000 A 
ATOM      4  N   UNL     1       6.888   4.069  14.467  0.00  0.00    +0.000 N 
ATOM      5  C   UNL     1       5.973   3.833  13.465  0.00  0.00    +0.000 C 
ATOM      6  O   UNL     1       4.751   3.809  13.572  0.00  0.00    +0.000 OA
ATOM      7  N   UNL     1       7.486   4.812  16.610  0.00  0.00    +0.000 NA
ATOM      8  C   UNL     1       6.891   5.086  17.843  0.00  0.00    +0.000 A 
ATOM      9  C   UNL     1       7.743   5.706  18.897  0.00  0.00    +0.000 C 
ATOM     10  H   UNL     1       7.861   4.217  14.241  0.00  0.00    +0.000 HD
ENDROOT
BRANCH   1  11
ATOM     11  C   UNL     1       4.553   4.950  18.953  0.00  0.00    +0.000 C 
ATOM     12  O   UNL     1       4.134   4.088  19.719  0.00  0.00    +0.000 OA
BRANCH  11  13
ATOM     13  O   UNL     1       4.053   6.215  18.893  0.00  0.00    +0.000 OA
BRANCH  13  15
ATOM     14  C   UNL     1       2.445   7.656  17.872  0.00  0.00    +0.000 C 
ATOM     15  C   UNL     1       2.667   6.306  18.530  0.00  0.00    +0.000 C 
ENDBRANCH  13  15
ENDBRANCH  11  13
ENDBRANCH   1  11
BRANCH   5  16
ATOM     16  C   UNL     1       6.621   3.577  12.118  0.00  0.00    +0.000 C 
BRANCH  16  17
ATOM     17  C   UNL     1       5.969   2.389  11.400  0.00  0.00    +0.000 C 
BRANCH  17  18
ATOM     18  C   UNL     1       6.899   1.192  11.205  0.00  0.00    +0.000 C 
ATOM     19 CL   UNL     1       6.010  -0.349  11.279  0.00  0.00    +0.000 Cl
ENDBRANCH  17  18
ENDBRANCH  16  17
ENDBRANCH   5  16
TORSDOF 6
ENDMDL
