MODEL 1
REMARK VINA RESULT:      -9.1      0.000      0.000
REMARK  Name = 
REMARK  4 active torsions:
REMARK  status: ('A' for Active; 'I' for Inactive)
REMARK    1  A    between atoms: C_1  and  C_2
REMARK    2  A    between atoms: N_4  and  C_5
REMARK    3  A    between atoms: C_8  and  C_9
REMARK    4  A    between atoms: N_16  and  C_17
REMARK                            x       y       z     vdW  Elec       q    Type
REMARK                         _______ _______ _______ _____ _____    ______ ____
ROOT
ATOM      1  C   UNL     1       2.906   6.084  18.336  0.00  0.00    +0.000 A 
ATOM      2  C   UNL     1       2.413   4.966  19.167  0.00  0.00    +0.000 A 
ATOM      3  C   UNL     1       1.640   5.020  20.362  0.00  0.00    +0.000 A 
ATOM      4  C   UNL     1       1.168   3.882  21.028  0.00  0.00    +0.000 A 
ATOM      5  C   UNL     1       1.446   2.622  20.533  0.00  0.00    +0.000 A 
ATOM      6  C   UNL     1       2.289   2.502  19.441  0.00  0.00    +0.000 A 
ATOM      7  C   UNL     1       2.825   3.651  18.824  0.00  0.00    +0.000 A 
ATOM      8  N   UNL     1       3.881   3.544  17.987  0.00  0.00    +0.000 N 
ATOM      9  C   UNL     1       3.849   2.597  16.853  0.00  0.00    +0.000 C 
ATOM     10  C   UNL     1       4.658   4.629  17.808  0.00  0.00    +0.000 A 
ATOM     11  C   UNL     1       5.877   4.793  18.473  0.00  0.00    +0.000 A 
ATOM     12  C   UNL     1       6.590   5.976  18.289  0.00  0.00    +0.000 A 
ATOM     13  C   UNL     1       6.147   6.860  17.308  0.00  0.00    +0.000 A 
ATOM     14  C   UNL     1       4.856   6.707  16.801  0.00  0.00    +0.000 A 
ATOM     15  C   UNL     1       4.034   5.807  17.487  0.00  0.00    +0.000 A 
ENDROOT
BRANCH   1  19
ATOM     16  C   UNL     1       0.634   9.519  19.115  0.00  0.00    +0.000 A 
ATOM     17  C   UNL     1       1.338   9.453  17.914  0.00  0.00    +0.000 A 
ATOM     18  C   UNL     1       2.345   8.495  17.736  0.00  0.00    +0.000 A 
ATOM     19  C   UNL     1       2.552   7.513  18.705  0.00  0.00    +0.000 A 
ATOM     20  C   UNL     1       2.094   7.852  19.988  0.00  0.00    +0.000 A 
ATOM     21  C   UNL     1       1.129   8.828  20.199  0.00  0.00    +0.000 A 
BRANCH  16  25
ATOM     22  C   UNL     1      -2.162  11.964  19.509  0.00  0.00    +0.000 C 
ATOM     23  C   UNL     1      -0.708  11.540  19.469  0.00  0.00    +0.000 C 
ATOM     24  O   UNL     1       0.192  12.365  19.622  0.00  0.00    +0.000 OA
ATOM     25  N   UNL     1      -0.582  10.183  19.293  0.00  0.00    +0.000 N 
ATOM     26  H   UNL     1      -1.422   9.696  18.994  0.00  0.00    +0.000 HD
ENDBRANCH  16  25
ENDBRANCH   1  19
TORSDOF 2
ENDMDL
MODEL 2
REMARK VINA RESULT:      -8.7      2.621      8.036
REMARK  Name = 
REMARK  4 active torsions:
REMARK  status: ('A' for Active; 'I' for Inactive)
REMARK    1  A    between atoms: C_1  and  C_2
REMARK    2  A    between atoms: N_4  and  C_5
REMARK    3  A    between atoms: C_8  and  C_9
REMARK    4  A    between atoms: N_16  and  C_17
REMARK                            x       y       z     vdW  Elec       q    Type
REMARK                         _______ _______ _______ _____ _____    ______ ____
ROOT
ATOM      1  C   UNL     1      -0.242  10.753  19.501  0.00  0.00    +0.000 A 
ATOM      2  C   UNL     1      -1.337  10.631  18.515  0.00  0.00    +0.000 A 
ATOM      3  C   UNL     1      -1.405   9.799  17.362  0.00  0.00    +0.000 A 
ATOM      4  C   UNL     1      -2.533   9.717  16.536  0.00  0.00    +0.000 A 
ATOM      5  C   UNL     1      -3.659  10.466  16.819  0.00  0.00    +0.000 A 
ATOM      6  C   UNL     1      -3.612  11.379  17.861  0.00  0.00    +0.000 A 
ATOM      7  C   UNL     1      -2.443  11.513  18.638  0.00  0.00    +0.000 A 
ATOM      8  N   UNL     1      -2.270  12.600  19.424  0.00  0.00    +0.000 N 
ATOM      9  C   UNL     1      -3.310  12.998  20.395  0.00  0.00    +0.000 C 
ATOM     10  C   UNL     1      -1.011  12.947  19.754  0.00  0.00    +0.000 A 
ATOM     11  C   UNL     1      -0.322  13.970  19.096  0.00  0.00    +0.000 A 
ATOM     12  C   UNL     1       1.003  14.223  19.448  0.00  0.00    +0.000 A 
ATOM     13  C   UNL     1       1.518  13.570  20.565  0.00  0.00    +0.000 A 
ATOM     14  C   UNL     1       0.834  12.464  21.071  0.00  0.00    +0.000 A 
ATOM     15  C   UNL     1      -0.201  11.969  20.270  0.00  0.00    +0.000 A 
ENDROOT
BRANCH   1  19
ATOM     16  C   UNL     1       2.208   7.483  18.574  0.00  0.00    +0.000 A 
ATOM     17  C   UNL     1       1.857   7.685  19.907  0.00  0.00    +0.000 A 
ATOM     18  C   UNL     1       1.315   8.911  20.317  0.00  0.00    +0.000 A 
ATOM     19  C   UNL     1       0.994   9.882  19.369  0.00  0.00    +0.000 A 
ATOM     20  C   UNL     1       1.691   9.770  18.156  0.00  0.00    +0.000 A 
ATOM     21  C   UNL     1       2.276   8.580  17.744  0.00  0.00    +0.000 A 
BRANCH  16  25
ATOM     22  C   UNL     1       3.548   4.214  17.360  0.00  0.00    +0.000 C 
ATOM     23  C   UNL     1       3.657   5.604  17.952  0.00  0.00    +0.000 C 
ATOM     24  O   UNL     1       4.747   6.056  18.299  0.00  0.00    +0.000 OA
ATOM     25  N   UNL     1       2.437   6.235  17.989  0.00  0.00    +0.000 N 
ATOM     26  H   UNL     1       1.626   5.639  17.842  0.00  0.00    +0.000 HD
ENDBRANCH  16  25
ENDBRANCH   1  19
TORSDOF 2
ENDMDL
MODEL 3
REMARK VINA RESULT:      -8.1      1.344      3.845
REMARK  Name = 
REMARK  4 active torsions:
REMARK  status: ('A' for Active; 'I' for Inactive)
REMARK    1  A    between atoms: C_1  and  C_2
REMARK    2  A    between atoms: N_4  and  C_5
REMARK    3  A    between atoms: C_8  and  C_9
REMARK    4  A    between atoms: N_16  and  C_17
REMARK                            x       y       z     vdW  Elec       q    Type
REMARK                         _______ _______ _______ _____ _____    ______ ____
ROOT
ATOM      1  C   UNL     1       2.997   5.809  19.338  0.00  0.00    +0.000 A 
ATOM      2  C   UNL     1       4.226   5.782  18.518  0.00  0.00    +0.000 A 
ATOM      3  C   UNL     1       4.660   6.718  17.536  0.00  0.00    +0.000 A 
ATOM      4  C   UNL     1       5.888   6.622  16.869  0.00  0.00    +0.000 A 
ATOM      5  C   UNL     1       6.753   5.581  17.149  0.00  0.00    +0.000 A 
ATOM      6  C   UNL     1       6.337   4.578  18.009  0.00  0.00    +0.000 A 
ATOM      7  C   UNL     1       5.065   4.640  18.615  0.00  0.00    +0.000 A 
ATOM      8  N   UNL     1       4.527   3.537  19.183  0.00  0.00    +0.000 N 
ATOM      9  C   UNL     1       5.286   2.761  20.184  0.00  0.00    +0.000 C 
ATOM     10  C   UNL     1       3.187   3.479  19.304  0.00  0.00    +0.000 A 
ATOM     11  C   UNL     1       2.386   2.762  18.409  0.00  0.00    +0.000 A 
ATOM     12  C   UNL     1       1.001   2.808  18.560  0.00  0.00    +0.000 A 
ATOM     13  C   UNL     1       0.489   3.412  19.706  0.00  0.00    +0.000 A 
ATOM     14  C   UNL     1       1.327   4.230  20.465  0.00  0.00    +0.000 A 
ATOM     15  C   UNL     1       2.558   4.551  19.881  0.00  0.00    +0.000 A 
ENDROOT
BRANCH   1  19
ATOM     16  C   UNL     1       1.558   9.722  18.918  0.00  0.00    +0.000 A 
ATOM     17  C   UNL     1       1.497   9.130  20.178  0.00  0.00    +0.000 A 
ATOM     18  C   UNL     1       1.664   7.746  20.317  0.00  0.00    +0.000 A 
ATOM     19  C   UNL     1       2.032   6.974  19.215  0.00  0.00    +0.000 A 
ATOM     20  C   UNL     1       1.717   7.543  17.971  0.00  0.00    +0.000 A 
ATOM     21  C   UNL     1       1.503   8.905  17.811  0.00  0.00    +0.000 A 
BRANCH  16  25
ATOM     22  C   UNL     1       1.288  13.434  18.598  0.00  0.00    +0.000 C 
ATOM     23  C   UNL     1       0.746  12.033  18.790  0.00  0.00    +0.000 C 
ATOM     24  O   UNL     1      -0.456  11.843  18.975  0.00  0.00    +0.000 OA
ATOM     25  N   UNL     1       1.738  11.088  18.685  0.00  0.00    +0.000 N 
ATOM     26  H   UNL     1       2.691  11.441  18.725  0.00  0.00    +0.000 HD
ENDBRANCH  16  25
ENDBRANCH   1  19
TORSDOF 2
ENDMDL
MODEL 4
REMARK VINA RESULT:      -7.7      4.174     10.267
REMARK  Name = 
REMARK  4 active torsions:
REMARK  status: ('A' for Active; 'I' for Inactive)
REMARK    1  A    between atoms: C_1  and  C_2
REMARK    2  A    between atoms: N_4  and  C_5
REMARK    3  A    between atoms: C_8  and  C_9
REMARK    4  A    between atoms: N_16  and  C_17
REMARK                            x       y       z     vdW  Elec       q    Type
REMARK                         _______ _______ _______ _____ _____    ______ ____
ROOT
ATOM      1  C   UNL     1      -4.051  12.718  20.122  0.00  0.00    +0.000 A 
ATOM      2  C   UNL     1      -4.050  12.665  21.599  0.00  0.00    +0.000 A 
ATOM      3  C   UNL     1      -3.017  12.220  22.472  0.00  0.00    +0.000 A 
ATOM      4  C   UNL     1      -3.105  12.283  23.868  0.00  0.00    +0.000 A 
ATOM      5  C   UNL     1      -4.238  12.797  24.471  0.00  0.00    +0.000 A 
ATOM      6  C   UNL     1      -5.322  13.139  23.678  0.00  0.00    +0.000 A 
ATOM      7  C   UNL     1      -5.253  12.996  22.276  0.00  0.00    +0.000 A 
ATOM      8  N   UNL     1      -6.384  13.013  21.535  0.00  0.00    +0.000 N 
ATOM      9  C   UNL     1      -7.352  14.121  21.665  0.00  0.00    +0.000 C 
ATOM     10  C   UNL     1      -6.359  12.409  20.332  0.00  0.00    +0.000 A 
ATOM     11  C   UNL     1      -6.876  11.125  20.130  0.00  0.00    +0.000 A 
ATOM     12  C   UNL     1      -6.749  10.540  18.871  0.00  0.00    +0.000 A 
ATOM     13  C   UNL     1      -6.282  11.333  17.826  0.00  0.00    +0.000 A 
ATOM     14  C   UNL     1      -5.647  12.539  18.130  0.00  0.00    +0.000 A 
ATOM     15  C   UNL     1      -5.338  12.741  19.480  0.00  0.00    +0.000 A 
ENDROOT
BRANCH   1  19
ATOM     16  C   UNL     1      -0.460  10.788  19.151  0.00  0.00    +0.000 A 
ATOM     17  C   UNL     1      -0.405  12.126  19.540  0.00  0.00    +0.000 A 
ATOM     18  C   UNL     1      -1.571  12.901  19.571  0.00  0.00    +0.000 A 
ATOM     19  C   UNL     1      -2.812  12.304  19.350  0.00  0.00    +0.000 A 
ATOM     20  C   UNL     1      -2.762  11.102  18.626  0.00  0.00    +0.000 A 
ATOM     21  C   UNL     1      -1.608  10.334  18.541  0.00  0.00    +0.000 A 
BRANCH  16  25
ATOM     22  C   UNL     1       1.745   8.053  20.421  0.00  0.00    +0.000 C 
ATOM     23  C   UNL     1       0.616   9.059  20.518  0.00  0.00    +0.000 C 
ATOM     24  O   UNL     1      -0.080   9.129  21.530  0.00  0.00    +0.000 OA
ATOM     25  N   UNL     1       0.541   9.844  19.392  0.00  0.00    +0.000 N 
ATOM     26  H   UNL     1       1.069   9.516  18.587  0.00  0.00    +0.000 HD
ENDBRANCH  16  25
ENDBRANCH   1  19
TORSDOF 2
ENDMDL
MODEL 5
REMARK VINA RESULT:      -7.6      2.705      7.979
REMARK  Name = 
REMARK  4 active torsions:
REMARK  status: ('A' for Active; 'I' for Inactive)
REMARK    1  A    between atoms: C_1  and  C_2
REMARK    2  A    between atoms: N_4  and  C_5
REMARK    3  A    between atoms: C_8  and  C_9
REMARK    4  A    between atoms: N_16  and  C_17
REMARK                            x       y       z     vdW  Elec       q    Type
REMARK                         _______ _______ _______ _____ _____    ______ ____
ROOT
ATOM      1  C   UNL     1       0.670   9.897  19.471  0.00  0.00    +0.000 A 
ATOM      2  C   UNL     1       0.987  11.284  19.072  0.00  0.00    +0.000 A 
ATOM      3  C   UNL     1       2.198  11.796  18.525  0.00  0.00    +0.000 A 
ATOM      4  C   UNL     1       2.357  13.127  18.118  0.00  0.00    +0.000 A 
ATOM      5  C   UNL     1       1.310  14.021  18.235  0.00  0.00    +0.000 A 
ATOM      6  C   UNL     1       0.146  13.610  18.864  0.00  0.00    +0.000 A 
ATOM      7  C   UNL     1       0.023  12.290  19.345  0.00  0.00    +0.000 A 
ATOM      8  N   UNL     1      -0.950  11.976  20.230  0.00  0.00    +0.000 N 
ATOM      9  C   UNL     1      -2.360  12.313  19.947  0.00  0.00    +0.000 C 
ATOM     10  C   UNL     1      -0.762  10.903  21.021  0.00  0.00    +0.000 A 
ATOM     11  C   UNL     1      -0.328  11.018  22.345  0.00  0.00    +0.000 A 
ATOM     12  C   UNL     1      -0.089   9.856  23.078  0.00  0.00    +0.000 A 
ATOM     13  C   UNL     1      -0.472   8.640  22.518  0.00  0.00    +0.000 A 
ATOM     14  C   UNL     1      -0.750   8.589  21.151  0.00  0.00    +0.000 A 
ATOM     15  C   UNL     1      -0.403   9.727  20.415  0.00  0.00    +0.000 A 
ENDROOT
BRANCH   1  19
ATOM     16  C   UNL     1       2.328   6.154  18.573  0.00  0.00    +0.000 A 
ATOM     17  C   UNL     1       2.229   6.526  19.912  0.00  0.00    +0.000 A 
ATOM     18  C   UNL     1       1.983   7.861  20.259  0.00  0.00    +0.000 A 
ATOM     19  C   UNL     1       1.696   8.798  19.265  0.00  0.00    +0.000 A 
ATOM     20  C   UNL     1       2.166   8.457  17.987  0.00  0.00    +0.000 A 
ATOM     21  C   UNL     1       2.461   7.148  17.629  0.00  0.00    +0.000 A 
BRANCH  16  25
ATOM     22  C   UNL     1       2.832   2.577  17.623  0.00  0.00    +0.000 C 
ATOM     23  C   UNL     1       3.283   3.950  18.079  0.00  0.00    +0.000 C 
ATOM     24  O   UNL     1       4.464   4.169  18.343  0.00  0.00    +0.000 OA
ATOM     25  N   UNL     1       2.239   4.843  18.099  0.00  0.00    +0.000 N 
ATOM     26  H   UNL     1       1.308   4.438  18.037  0.00  0.00    +0.000 HD
ENDBRANCH  16  25
ENDBRANCH   1  19
TORSDOF 2
ENDMDL
MODEL 6
REMARK VINA RESULT:      -7.6      2.665      7.873
REMARK  Name = 
REMARK  4 active torsions:
REMARK  status: ('A' for Active; 'I' for Inactive)
REMARK    1  A    between atoms: C_1  and  C_2
REMARK    2  A    between atoms: N_4  and  C_5
REMARK    3  A    between atoms: C_8  and  C_9
REMARK    4  A    between atoms: N_16  and  C_17
REMARK                            x       y       z     vdW  Elec       q    Type
REMARK                         _______ _______ _______ _____ _____    ______ ____
ROOT
ATOM      1  C   UNL     1       0.669   9.882  19.458  0.00  0.00    +0.000 A 
ATOM      2  C   UNL     1       1.000  11.261  19.040  0.00  0.00    +0.000 A 
ATOM      3  C   UNL     1       2.221  11.757  18.502  0.00  0.00    +0.000 A 
ATOM      4  C   UNL     1       2.394  13.080  18.075  0.00  0.00    +0.000 A 
ATOM      5  C   UNL     1       1.350  13.982  18.163  0.00  0.00    +0.000 A 
ATOM      6  C   UNL     1       0.175  13.588  18.783  0.00  0.00    +0.000 A 
ATOM      7  C   UNL     1       0.038  12.276  19.284  0.00  0.00    +0.000 A 
ATOM      8  N   UNL     1      -0.949  11.983  20.160  0.00  0.00    +0.000 N 
ATOM      9  C   UNL     1      -2.353  12.322  19.852  0.00  0.00    +0.000 C 
ATOM     10  C   UNL     1      -0.777  10.922  20.971  0.00  0.00    +0.000 A 
ATOM     11  C   UNL     1      -0.361  11.056  22.300  0.00  0.00    +0.000 A 
ATOM     12  C   UNL     1      -0.139   9.906  23.054  0.00  0.00    +0.000 A 
ATOM     13  C   UNL     1      -0.522   8.682  22.509  0.00  0.00    +0.000 A 
ATOM     14  C   UNL     1      -0.781   8.610  21.140  0.00  0.00    +0.000 A 
ATOM     15  C   UNL     1      -0.417   9.734  20.390  0.00  0.00    +0.000 A 
ENDROOT
BRANCH   1  19
ATOM     16  C   UNL     1       2.306   6.074  18.837  0.00  0.00    +0.000 A 
ATOM     17  C   UNL     1       2.318   6.594  20.130  0.00  0.00    +0.000 A 
ATOM     18  C   UNL     1       2.082   7.957  20.346  0.00  0.00    +0.000 A 
ATOM     19  C   UNL     1       1.692   8.774  19.285  0.00  0.00    +0.000 A 
ATOM     20  C   UNL     1       2.053   8.295  18.015  0.00  0.00    +0.000 A 
ATOM     21  C   UNL     1       2.337   6.956  17.780  0.00  0.00    +0.000 A 
BRANCH  16  25
ATOM     22  C   UNL     1       1.387   2.468  18.511  0.00  0.00    +0.000 C 
ATOM     23  C   UNL     1       1.366   3.833  19.167  0.00  0.00    +0.000 C 
ATOM     24  O   UNL     1       0.692   4.035  20.177  0.00  0.00    +0.000 OA
ATOM     25  N   UNL     1       2.197   4.717  18.522  0.00  0.00    +0.000 N 
ATOM     26  H   UNL     1       2.519   4.430  17.602  0.00  0.00    +0.000 HD
ENDBRANCH  16  25
ENDBRANCH   1  19
TORSDOF 2
ENDMDL
MODEL 7
REMARK VINA RESULT:      -7.5      9.060     10.818
REMARK  Name = 
REMARK  4 active torsions:
REMARK  status: ('A' for Active; 'I' for Inactive)
REMARK    1  A    between atoms: C_1  and  C_2
REMARK    2  A    between atoms: N_4  and  C_5
REMARK    3  A    between atoms: C_8  and  C_9
REMARK    4  A    between atoms: N_16  and  C_17
REMARK                            x       y       z     vdW  Elec       q    Type
REMARK                         _______ _______ _______ _____ _____    ______ ____
ROOT
ATOM      1  C   UNL     1       9.466  14.110  20.594  0.00  0.00    +0.000 A 
ATOM      2  C   UNL     1       8.323  14.819  19.982  0.00  0.00    +0.000 A 
ATOM      3  C   UNL     1       6.981  14.909  20.449  0.00  0.00    +0.000 A 
ATOM      4  C   UNL     1       5.994  15.674  19.815  0.00  0.00    +0.000 A 
ATOM      5  C   UNL     1       6.297  16.394  18.674  0.00  0.00    +0.000 A 
ATOM      6  C   UNL     1       7.554  16.254  18.108  0.00  0.00    +0.000 A 
ATOM      7  C   UNL     1       8.517  15.417  18.710  0.00  0.00    +0.000 A 
ATOM      8  N   UNL     1       9.606  15.022  18.011  0.00  0.00    +0.000 N 
ATOM      9  C   UNL     1      10.466  16.015  17.336  0.00  0.00    +0.000 C 
ATOM     10  C   UNL     1      10.224  13.889  18.394  0.00  0.00    +0.000 A 
ATOM     11  C   UNL     1      10.020  12.669  17.742  0.00  0.00    +0.000 A 
ATOM     12  C   UNL     1      10.643  11.527  18.242  0.00  0.00    +0.000 A 
ATOM     13  C   UNL     1      11.587  11.687  19.253  0.00  0.00    +0.000 A 
ATOM     14  C   UNL     1      11.625  12.895  19.951  0.00  0.00    +0.000 A 
ATOM     15  C   UNL     1      10.555  13.767  19.719  0.00  0.00    +0.000 A 
ENDROOT
BRANCH   1  19
ATOM     16  C   UNL     1       7.622  12.344  23.918  0.00  0.00    +0.000 A 
ATOM     17  C   UNL     1       8.215  13.595  24.081  0.00  0.00    +0.000 A 
ATOM     18  C   UNL     1       9.103  14.088  23.115  0.00  0.00    +0.000 A 
ATOM     19  C   UNL     1       9.289  13.393  21.920  0.00  0.00    +0.000 A 
ATOM     20  C   UNL     1       8.975  12.026  21.983  0.00  0.00    +0.000 A 
ATOM     21  C   UNL     1       8.133  11.502  22.955  0.00  0.00    +0.000 A 
BRANCH  16  25
ATOM     22  C   UNL     1       5.060  11.327  26.439  0.00  0.00    +0.000 C 
ATOM     23  C   UNL     1       6.455  11.694  25.974  0.00  0.00    +0.000 C 
ATOM     24  O   UNL     1       7.390  11.747  26.772  0.00  0.00    +0.000 OA
ATOM     25  N   UNL     1       6.498  11.896  24.616  0.00  0.00    +0.000 N 
ATOM     26  H   UNL     1       5.598  11.999  24.154  0.00  0.00    +0.000 HD
ENDBRANCH  16  25
ENDBRANCH   1  19
TORSDOF 2
ENDMDL
MODEL 8
REMARK VINA RESULT:      -7.5      9.133     10.682
REMARK  Name = 
REMARK  4 active torsions:
REMARK  status: ('A' for Active; 'I' for Inactive)
REMARK    1  A    between atoms: C_1  and  C_2
REMARK    2  A    between atoms: N_4  and  C_5
REMARK    3  A    between atoms: C_8  and  C_9
REMARK    4  A    between atoms: N_16  and  C_17
REMARK                            x       y       z     vdW  Elec       q    Type
REMARK                         _______ _______ _______ _____ _____    ______ ____
ROOT
ATOM      1  C   UNL     1       8.781  13.230  20.907  0.00  0.00    +0.000 A 
ATOM      2  C   UNL     1       9.866  12.712  20.046  0.00  0.00    +0.000 A 
ATOM      3  C   UNL     1      11.172  12.289  20.422  0.00  0.00    +0.000 A 
ATOM      4  C   UNL     1      12.096  11.746  19.520  0.00  0.00    +0.000 A 
ATOM      5  C   UNL     1      11.762  11.596  18.188  0.00  0.00    +0.000 A 
ATOM      6  C   UNL     1      10.549  12.095  17.741  0.00  0.00    +0.000 A 
ATOM      7  C   UNL     1       9.658  12.714  18.642  0.00  0.00    +0.000 A 
ATOM      8  N   UNL     1       8.644  13.479  18.178  0.00  0.00    +0.000 N 
ATOM      9  C   UNL     1       7.709  12.953  17.163  0.00  0.00    +0.000 C 
ATOM     10  C   UNL     1       8.134  14.417  18.999  0.00  0.00    +0.000 A 
ATOM     11  C   UNL     1       8.491  15.766  18.905  0.00  0.00    +0.000 A 
ATOM     12  C   UNL     1       7.973  16.664  19.837  0.00  0.00    +0.000 A 
ATOM     13  C   UNL     1       6.980  16.211  20.701  0.00  0.00    +0.000 A 
ATOM     14  C   UNL     1       6.789  14.835  20.840  0.00  0.00    +0.000 A 
ATOM     15  C   UNL     1       7.768  14.021  20.260  0.00  0.00    +0.000 A 
ENDROOT
BRANCH   1  19
ATOM     16  C   UNL     1       7.952  13.721  24.985  0.00  0.00    +0.000 A 
ATOM     17  C   UNL     1       8.600  14.758  24.315  0.00  0.00    +0.000 A 
ATOM     18  C   UNL     1       9.177  14.535  23.058  0.00  0.00    +0.000 A 
ATOM     19  C   UNL     1       8.983  13.316  22.409  0.00  0.00    +0.000 A 
ATOM     20  C   UNL     1       8.665  12.245  23.258  0.00  0.00    +0.000 A 
ATOM     21  C   UNL     1       8.133  12.435  24.526  0.00  0.00    +0.000 A 
BRANCH  16  25
ATOM     22  C   UNL     1       5.031  13.990  27.299  0.00  0.00    +0.000 C 
ATOM     23  C   UNL     1       5.703  13.917  25.943  0.00  0.00    +0.000 C 
ATOM     24  O   UNL     1       5.035  13.926  24.909  0.00  0.00    +0.000 OA
ATOM     25  N   UNL     1       7.072  13.890  26.057  0.00  0.00    +0.000 N 
ATOM     26  H   UNL     1       7.434  13.694  26.987  0.00  0.00    +0.000 HD
ENDBRANCH  16  25
ENDBRANCH   1  19
TORSDOF 2
ENDMDL
MODEL 9
REMARK VINA RESULT:      -7.5      3.787     10.211
REMARK  Name = 
REMARK  4 active torsions:
REMARK  status: ('A' for Active; 'I' for Inactive)
REMARK    1  A    between atoms: C_1  and  C_2
REMARK    2  A    between atoms: N_4  and  C_5
REMARK    3  A    between atoms: C_8  and  C_9
REMARK    4  A    between atoms: N_16  and  C_17
REMARK                            x       y       z     vdW  Elec       q    Type
REMARK                         _______ _______ _______ _____ _____    ______ ____
ROOT
ATOM      1  C   UNL     1      -3.979  12.657  19.987  0.00  0.00    +0.000 A 
ATOM      2  C   UNL     1      -3.868  12.617  21.460  0.00  0.00    +0.000 A 
ATOM      3  C   UNL     1      -2.789  12.141  22.257  0.00  0.00    +0.000 A 
ATOM      4  C   UNL     1      -2.769  12.220  23.655  0.00  0.00    +0.000 A 
ATOM      5  C   UNL     1      -3.834  12.781  24.335  0.00  0.00    +0.000 A 
ATOM      6  C   UNL     1      -4.961  13.157  23.622  0.00  0.00    +0.000 A 
ATOM      7  C   UNL     1      -5.004  12.999  22.222  0.00  0.00    +0.000 A 
ATOM      8  N   UNL     1      -6.186  13.051  21.567  0.00  0.00    +0.000 N 
ATOM      9  C   UNL     1      -7.100  14.196  21.757  0.00  0.00    +0.000 C 
ATOM     10  C   UNL     1      -6.274  12.436  20.373  0.00  0.00    +0.000 A 
ATOM     11  C   UNL     1      -6.851  11.171  20.224  0.00  0.00    +0.000 A 
ATOM     12  C   UNL     1      -6.841  10.571  18.966  0.00  0.00    +0.000 A 
ATOM     13  C   UNL     1      -6.425  11.336  17.880  0.00  0.00    +0.000 A 
ATOM     14  C   UNL     1      -5.726  12.520  18.122  0.00  0.00    +0.000 A 
ATOM     15  C   UNL     1      -5.309  12.723  19.442  0.00  0.00    +0.000 A 
ENDROOT
BRANCH   1  19
ATOM     16  C   UNL     1      -0.640  10.475  18.702  0.00  0.00    +0.000 A 
ATOM     17  C   UNL     1      -0.435  11.763  19.194  0.00  0.00    +0.000 A 
ATOM     18  C   UNL     1      -1.515  12.643  19.340  0.00  0.00    +0.000 A 
ATOM     19  C   UNL     1      -2.817  12.191  19.128  0.00  0.00    +0.000 A 
ATOM     20  C   UNL     1      -2.916  11.055  18.309  0.00  0.00    +0.000 A 
ATOM     21  C   UNL     1      -1.849  10.188  18.110  0.00  0.00    +0.000 A 
BRANCH  16  25
ATOM     22  C   UNL     1       2.294   8.164  18.635  0.00  0.00    +0.000 C 
ATOM     23  C   UNL     1       1.498   9.380  18.208  0.00  0.00    +0.000 C 
ATOM     24  O   UNL     1       1.951  10.169  17.378  0.00  0.00    +0.000 OA
ATOM     25  N   UNL     1       0.269   9.421  18.821  0.00  0.00    +0.000 N 
ATOM     26  H   UNL     1       0.150   8.796  19.614  0.00  0.00    +0.000 HD
ENDBRANCH  16  25
ENDBRANCH   1  19
TORSDOF 2
ENDMDL
