MODEL 1
REMARK VINA RESULT:      -8.2      0.000      0.000
REMARK  Name = 
REMARK  10 active torsions:
REMARK  status: ('A' for Active; 'I' for Inactive)
REMARK    1  A    between atoms: C_1  and  C_2
REMARK    2  A    between atoms: C_2  and  O_3
REMARK    3  A    between atoms: O_3  and  C_4
REMARK    4  A    between atoms: C_7  and  C_8
REMARK    5  A    between atoms: C_8  and  C_10
REMARK    6  A    between atoms: C_15  and  C_16
REMARK    7  A    between atoms: C_16  and  O_18
REMARK    8  A    between atoms: C_20  and  O_21
REMARK    9  A    between atoms: O_21  and  C_22
REMARK   10  A    between atoms: C_22  and  C_23
REMARK                            x       y       z     vdW  Elec       q    Type
REMARK                         _______ _______ _______ _____ _____    ______ ____
ROOT
ATOM      1  C   UNL     1       6.143   6.227  16.685  0.00  0.00    +0.000 A 
ATOM      2  C   UNL     1       5.033   6.644  17.434  0.00  0.00    +0.000 A 
ATOM      3  C   UNL     1       3.942   5.794  17.622  0.00  0.00    +0.000 A 
ATOM      4  C   UNL     1       3.923   4.536  17.018  0.00  0.00    +0.000 A 
ATOM      5  C   UNL     1       4.944   4.191  16.132  0.00  0.00    +0.000 A 
ATOM      6  C   UNL     1       6.068   5.016  15.974  0.00  0.00    +0.000 A 
ENDROOT
BRANCH   4   7
ATOM      7  C   UNL     1       2.857   3.592  17.431  0.00  0.00    +0.000 C 
ATOM      8  O   UNL     1       2.208   3.023  16.561  0.00  0.00    +0.000 OA
BRANCH   7   9
ATOM      9  C   UNL     1       2.446   3.428  18.852  0.00  0.00    +0.000 A 
ATOM     10  C   UNL     1       1.102   3.716  19.187  0.00  0.00    +0.000 A 
ATOM     11  C   UNL     1       0.632   3.598  20.492  0.00  0.00    +0.000 A 
ATOM     12  C   UNL     1       1.480   3.132  21.483  0.00  0.00    +0.000 A 
ATOM     13  C   UNL     1       2.798   2.800  21.164  0.00  0.00    +0.000 A 
ATOM     14  C   UNL     1       3.307   2.942  19.854  0.00  0.00    +0.000 A 
BRANCH  14  15
ATOM     15  C   UNL     1       4.758   2.611  19.729  0.00  0.00    +0.000 C 
ATOM     16  O   UNL     1       5.583   3.502  19.583  0.00  0.00    +0.000 OA
BRANCH  15  17
ATOM     17  O   UNL     1       5.137   1.339  19.929  0.00  0.00    +0.000 OA
ATOM     18  H   UNL     1       4.656   0.857  20.643  0.00  0.00    +0.000 HD
ENDBRANCH  15  17
ENDBRANCH  14  15
ENDBRANCH   7   9
ENDBRANCH   4   7
BRANCH   1  19
ATOM     19  O   UNL     1       7.310   6.947  16.661  0.00  0.00    +0.000 OA
BRANCH  19  21
ATOM     20  C   UNL     1       8.023   8.938  17.801  0.00  0.00    +0.000 C 
ATOM     21  C   UNL     1       7.756   7.450  17.925  0.00  0.00    +0.000 C 
ENDBRANCH  19  21
ENDBRANCH   1  19
BRANCH   6  22
ATOM     22  O   UNL     1       7.020   4.442  15.173  0.00  0.00    +0.000 OA
BRANCH  22  23
ATOM     23  C   UNL     1       7.051   4.836  13.805  0.00  0.00    +0.000 C 
ATOM     24  C   UNL     1       6.430   3.725  12.973  0.00  0.00    +0.000 C 
ENDBRANCH  22  23
ENDBRANCH   6  22
TORSDOF 8
ENDMDL
MODEL 2
REMARK VINA RESULT:      -7.2      1.558      3.362
REMARK  Name = 
REMARK  10 active torsions:
REMARK  status: ('A' for Active; 'I' for Inactive)
REMARK    1  A    between atoms: C_1  and  C_2
REMARK    2  A    between atoms: C_2  and  O_3
REMARK    3  A    between atoms: O_3  and  C_4
REMARK    4  A    between atoms: C_7  and  C_8
REMARK    5  A    between atoms: C_8  and  C_10
REMARK    6  A    between atoms: C_15  and  C_16
REMARK    7  A    between atoms: C_16  and  O_18
REMARK    8  A    between atoms: C_20  and  O_21
REMARK    9  A    between atoms: O_21  and  C_22
REMARK   10  A    between atoms: C_22  and  C_23
REMARK                            x       y       z     vdW  Elec       q    Type
REMARK                         _______ _______ _______ _____ _____    ______ ____
ROOT
ATOM      1  C   UNL     1       6.902   5.053  15.721  0.00  0.00    +0.000 A 
ATOM      2  C   UNL     1       6.005   3.984  15.861  0.00  0.00    +0.000 A 
ATOM      3  C   UNL     1       5.113   3.939  16.933  0.00  0.00    +0.000 A 
ATOM      4  C   UNL     1       5.142   4.936  17.909  0.00  0.00    +0.000 A 
ATOM      5  C   UNL     1       6.149   5.902  17.865  0.00  0.00    +0.000 A 
ATOM      6  C   UNL     1       7.018   5.985  16.768  0.00  0.00    +0.000 A 
ENDROOT
BRANCH   4   7
ATOM      7  C   UNL     1       4.034   4.966  18.893  0.00  0.00    +0.000 C 
ATOM      8  O   UNL     1       4.092   5.769  19.818  0.00  0.00    +0.000 OA
BRANCH   7   9
ATOM      9  C   UNL     1       2.938   3.960  18.888  0.00  0.00    +0.000 A 
ATOM     10  C   UNL     1       1.681   4.357  18.374  0.00  0.00    +0.000 A 
ATOM     11  C   UNL     1       0.597   3.484  18.337  0.00  0.00    +0.000 A 
ATOM     12  C   UNL     1       0.761   2.175  18.760  0.00  0.00    +0.000 A 
ATOM     13  C   UNL     1       2.005   1.752  19.230  0.00  0.00    +0.000 A 
ATOM     14  C   UNL     1       3.111   2.627  19.306  0.00  0.00    +0.000 A 
BRANCH  14  15
ATOM     15  C   UNL     1       4.331   2.010  19.908  0.00  0.00    +0.000 C 
ATOM     16  O   UNL     1       4.794   2.450  20.951  0.00  0.00    +0.000 OA
BRANCH  15  17
ATOM     17  O   UNL     1       4.807   0.882  19.357  0.00  0.00    +0.000 OA
ATOM     18  H   UNL     1       5.421   1.005  18.595  0.00  0.00    +0.000 HD
ENDBRANCH  15  17
ENDBRANCH  14  15
ENDBRANCH   7   9
ENDBRANCH   4   7
BRANCH   1  19
ATOM     19  O   UNL     1       7.635   5.236  14.577  0.00  0.00    +0.000 OA
BRANCH  19  21
ATOM     20  C   UNL     1       7.720   5.391  12.180  0.00  0.00    +0.000 C 
ATOM     21  C   UNL     1       7.039   4.744  13.371  0.00  0.00    +0.000 C 
ENDBRANCH  19  21
ENDBRANCH   1  19
BRANCH   6  22
ATOM     22  O   UNL     1       7.840   7.079  16.842  0.00  0.00    +0.000 OA
BRANCH  22  23
ATOM     23  C   UNL     1       8.032   7.669  18.124  0.00  0.00    +0.000 C 
ATOM     24  C   UNL     1       8.214   9.167  17.938  0.00  0.00    +0.000 C 
ENDBRANCH  22  23
ENDBRANCH   6  22
TORSDOF 8
ENDMDL
MODEL 3
REMARK VINA RESULT:      -7.1      1.911      3.449
REMARK  Name = 
REMARK  10 active torsions:
REMARK  status: ('A' for Active; 'I' for Inactive)
REMARK    1  A    between atoms: C_1  and  C_2
REMARK    2  A    between atoms: C_2  and  O_3
REMARK    3  A    between atoms: O_3  and  C_4
REMARK    4  A    between atoms: C_7  and  C_8
REMARK    5  A    between atoms: C_8  and  C_10
REMARK    6  A    between atoms: C_15  and  C_16
REMARK    7  A    between atoms: C_16  and  O_18
REMARK    8  A    between atoms: C_20  and  O_21
REMARK    9  A    between atoms: O_21  and  C_22
REMARK   10  A    between atoms: C_22  and  C_23
REMARK                            x       y       z     vdW  Elec       q    Type
REMARK                         _______ _______ _______ _____ _____    ______ ____
ROOT
ATOM      1  C   UNL     1       6.746   4.701  15.272  0.00  0.00    +0.000 A 
ATOM      2  C   UNL     1       5.567   4.308  14.621  0.00  0.00    +0.000 A 
ATOM      3  C   UNL     1       4.411   4.031  15.351  0.00  0.00    +0.000 A 
ATOM      4  C   UNL     1       4.431   4.091  16.745  0.00  0.00    +0.000 A 
ATOM      5  C   UNL     1       5.645   4.309  17.398  0.00  0.00    +0.000 A 
ATOM      6  C   UNL     1       6.801   4.638  16.676  0.00  0.00    +0.000 A 
ENDROOT
BRANCH   4   7
ATOM      7  C   UNL     1       3.132   4.013  17.455  0.00  0.00    +0.000 C 
ATOM      8  O   UNL     1       2.319   3.167  17.100  0.00  0.00    +0.000 OA
BRANCH   7   9
ATOM      9  C   UNL     1       2.720   5.017  18.472  0.00  0.00    +0.000 A 
ATOM     10  C   UNL     1       2.760   6.382  18.106  0.00  0.00    +0.000 A 
ATOM     11  C   UNL     1       2.399   7.390  18.997  0.00  0.00    +0.000 A 
ATOM     12  C   UNL     1       1.932   7.052  20.256  0.00  0.00    +0.000 A 
ATOM     13  C   UNL     1       1.843   5.708  20.622  0.00  0.00    +0.000 A 
ATOM     14  C   UNL     1       2.233   4.669  19.747  0.00  0.00    +0.000 A 
BRANCH  14  15
ATOM     15  C   UNL     1       2.138   3.304  20.347  0.00  0.00    +0.000 C 
ATOM     16  O   UNL     1       1.095   2.931  20.865  0.00  0.00    +0.000 OA
BRANCH  15  17
ATOM     17  O   UNL     1       3.166   2.461  20.168  0.00  0.00    +0.000 OA
ATOM     18  H   UNL     1       4.058   2.823  20.385  0.00  0.00    +0.000 HD
ENDBRANCH  15  17
ENDBRANCH  14  15
ENDBRANCH   7   9
ENDBRANCH   4   7
BRANCH   1  19
ATOM     19  O   UNL     1       7.827   5.184  14.580  0.00  0.00    +0.000 OA
BRANCH  19  21
ATOM     20  C   UNL     1       8.649   6.111  12.521  0.00  0.00    +0.000 C 
ATOM     21  C   UNL     1       7.759   5.059  13.156  0.00  0.00    +0.000 C 
ENDBRANCH  19  21
ENDBRANCH   1  19
BRANCH   6  22
ATOM     22  O   UNL     1       7.851   4.952  17.499  0.00  0.00    +0.000 OA
BRANCH  22  23
ATOM     23  C   UNL     1       7.604   5.871  18.557  0.00  0.00    +0.000 C 
ATOM     24  C   UNL     1       7.835   7.279  18.031  0.00  0.00    +0.000 C 
ENDBRANCH  22  23
ENDBRANCH   6  22
TORSDOF 8
ENDMDL
MODEL 4
REMARK VINA RESULT:      -7.1      1.748      3.681
REMARK  Name = 
REMARK  10 active torsions:
REMARK  status: ('A' for Active; 'I' for Inactive)
REMARK    1  A    between atoms: C_1  and  C_2
REMARK    2  A    between atoms: C_2  and  O_3
REMARK    3  A    between atoms: O_3  and  C_4
REMARK    4  A    between atoms: C_7  and  C_8
REMARK    5  A    between atoms: C_8  and  C_10
REMARK    6  A    between atoms: C_15  and  C_16
REMARK    7  A    between atoms: C_16  and  O_18
REMARK    8  A    between atoms: C_20  and  O_21
REMARK    9  A    between atoms: O_21  and  C_22
REMARK   10  A    between atoms: C_22  and  C_23
REMARK                            x       y       z     vdW  Elec       q    Type
REMARK                         _______ _______ _______ _____ _____    ______ ____
ROOT
ATOM      1  C   UNL     1       6.215   5.087  15.414  0.00  0.00    +0.000 A 
ATOM      2  C   UNL     1       5.273   4.053  15.516  0.00  0.00    +0.000 A 
ATOM      3  C   UNL     1       4.795   3.647  16.762  0.00  0.00    +0.000 A 
ATOM      4  C   UNL     1       5.291   4.233  17.927  0.00  0.00    +0.000 A 
ATOM      5  C   UNL     1       6.353   5.134  17.836  0.00  0.00    +0.000 A 
ATOM      6  C   UNL     1       6.807   5.586  16.589  0.00  0.00    +0.000 A 
ENDROOT
BRANCH   4   7
ATOM      7  C   UNL     1       4.592   3.931  19.199  0.00  0.00    +0.000 C 
ATOM      8  O   UNL     1       4.885   2.904  19.801  0.00  0.00    +0.000 OA
BRANCH   7   9
ATOM      9  C   UNL     1       3.446   4.744  19.689  0.00  0.00    +0.000 A 
ATOM     10  C   UNL     1       3.436   6.124  19.380  0.00  0.00    +0.000 A 
ATOM     11  C   UNL     1       2.408   6.961  19.805  0.00  0.00    +0.000 A 
ATOM     12  C   UNL     1       1.335   6.427  20.498  0.00  0.00    +0.000 A 
ATOM     13  C   UNL     1       1.304   5.059  20.776  0.00  0.00    +0.000 A 
ATOM     14  C   UNL     1       2.351   4.195  20.382  0.00  0.00    +0.000 A 
BRANCH  14  15
ATOM     15  C   UNL     1       2.173   2.783  20.838  0.00  0.00    +0.000 C 
ATOM     16  O   UNL     1       2.127   2.522  22.032  0.00  0.00    +0.000 OA
BRANCH  15  17
ATOM     17  O   UNL     1       1.918   1.846  19.911  0.00  0.00    +0.000 OA
ATOM     18  H   UNL     1       2.143   2.092  18.983  0.00  0.00    +0.000 HD
ENDBRANCH  15  17
ENDBRANCH  14  15
ENDBRANCH   7   9
ENDBRANCH   4   7
BRANCH   1  19
ATOM     19  O   UNL     1       6.543   5.651  14.208  0.00  0.00    +0.000 OA
BRANCH  19  21
ATOM     20  C   UNL     1       6.904   4.197  12.330  0.00  0.00    +0.000 C 
ATOM     21  C   UNL     1       7.556   4.971  13.459  0.00  0.00    +0.000 C 
ENDBRANCH  19  21
ENDBRANCH   1  19
BRANCH   6  22
ATOM     22  O   UNL     1       7.755   6.568  16.710  0.00  0.00    +0.000 OA
BRANCH  22  23
ATOM     23  C   UNL     1       7.886   7.201  17.979  0.00  0.00    +0.000 C 
ATOM     24  C   UNL     1       7.943   8.704  17.759  0.00  0.00    +0.000 C 
ENDBRANCH  22  23
ENDBRANCH   6  22
TORSDOF 8
ENDMDL
MODEL 5
REMARK VINA RESULT:      -7.1      3.276      5.882
REMARK  Name = 
REMARK  10 active torsions:
REMARK  status: ('A' for Active; 'I' for Inactive)
REMARK    1  A    between atoms: C_1  and  C_2
REMARK    2  A    between atoms: C_2  and  O_3
REMARK    3  A    between atoms: O_3  and  C_4
REMARK    4  A    between atoms: C_7  and  C_8
REMARK    5  A    between atoms: C_8  and  C_10
REMARK    6  A    between atoms: C_15  and  C_16
REMARK    7  A    between atoms: C_16  and  O_18
REMARK    8  A    between atoms: C_20  and  O_21
REMARK    9  A    between atoms: O_21  and  C_22
REMARK   10  A    between atoms: C_22  and  C_23
REMARK                            x       y       z     vdW  Elec       q    Type
REMARK                         _______ _______ _______ _____ _____    ______ ____
ROOT
ATOM      1  C   UNL     1       1.910   7.304  20.134  0.00  0.00    +0.000 A 
ATOM      2  C   UNL     1       1.787   5.939  20.433  0.00  0.00    +0.000 A 
ATOM      3  C   UNL     1       2.183   4.971  19.510  0.00  0.00    +0.000 A 
ATOM      4  C   UNL     1       2.657   5.353  18.255  0.00  0.00    +0.000 A 
ATOM      5  C   UNL     1       2.613   6.700  17.892  0.00  0.00    +0.000 A 
ATOM      6  C   UNL     1       2.265   7.685  18.827  0.00  0.00    +0.000 A 
ENDROOT
BRANCH   4   7
ATOM      7  C   UNL     1       3.273   4.306  17.405  0.00  0.00    +0.000 C 
ATOM      8  O   UNL     1       2.682   3.241  17.265  0.00  0.00    +0.000 OA
BRANCH   7   9
ATOM      9  C   UNL     1       4.645   4.440  16.847  0.00  0.00    +0.000 A 
ATOM     10  C   UNL     1       4.779   4.544  15.443  0.00  0.00    +0.000 A 
ATOM     11  C   UNL     1       6.024   4.665  14.833  0.00  0.00    +0.000 A 
ATOM     12  C   UNL     1       7.163   4.744  15.618  0.00  0.00    +0.000 A 
ATOM     13  C   UNL     1       7.049   4.686  17.007  0.00  0.00    +0.000 A 
ATOM     14  C   UNL     1       5.799   4.532  17.648  0.00  0.00    +0.000 A 
BRANCH  14  15
ATOM     15  C   UNL     1       5.891   4.413  19.134  0.00  0.00    +0.000 C 
ATOM     16  O   UNL     1       5.416   3.441  19.705  0.00  0.00    +0.000 OA
BRANCH  15  17
ATOM     17  O   UNL     1       6.631   5.315  19.797  0.00  0.00    +0.000 OA
ATOM     18  H   UNL     1       6.189   5.749  20.565  0.00  0.00    +0.000 HD
ENDBRANCH  15  17
ENDBRANCH  14  15
ENDBRANCH   7   9
ENDBRANCH   4   7
BRANCH   1  19
ATOM     19  O   UNL     1       1.734   8.272  21.089  0.00  0.00    +0.000 OA
BRANCH  19  21
ATOM     20  C   UNL     1       0.366   9.365  22.735  0.00  0.00    +0.000 C 
ATOM     21  C   UNL     1       0.378   8.535  21.466  0.00  0.00    +0.000 C 
ENDBRANCH  19  21
ENDBRANCH   1  19
BRANCH   6  22
ATOM     22  O   UNL     1       2.416   8.950  18.324  0.00  0.00    +0.000 OA
BRANCH  22  23
ATOM     23  C   UNL     1       1.234   9.658  17.960  0.00  0.00    +0.000 C 
ATOM     24  C   UNL     1       1.198  10.961  18.743  0.00  0.00    +0.000 C 
ENDBRANCH  22  23
ENDBRANCH   6  22
TORSDOF 8
ENDMDL
MODEL 6
REMARK VINA RESULT:      -7.1      4.375      6.913
REMARK  Name = 
REMARK  10 active torsions:
REMARK  status: ('A' for Active; 'I' for Inactive)
REMARK    1  A    between atoms: C_1  and  C_2
REMARK    2  A    between atoms: C_2  and  O_3
REMARK    3  A    between atoms: O_3  and  C_4
REMARK    4  A    between atoms: C_7  and  C_8
REMARK    5  A    between atoms: C_8  and  C_10
REMARK    6  A    between atoms: C_15  and  C_16
REMARK    7  A    between atoms: C_16  and  O_18
REMARK    8  A    between atoms: C_20  and  O_21
REMARK    9  A    between atoms: O_21  and  C_22
REMARK   10  A    between atoms: C_22  and  C_23
REMARK                            x       y       z     vdW  Elec       q    Type
REMARK                         _______ _______ _______ _____ _____    ______ ____
ROOT
ATOM      1  C   UNL     1       0.922   9.676  18.711  0.00  0.00    +0.000 A 
ATOM      2  C   UNL     1       1.584   8.995  17.679  0.00  0.00    +0.000 A 
ATOM      3  C   UNL     1       2.260   7.801  17.934  0.00  0.00    +0.000 A 
ATOM      4  C   UNL     1       2.327   7.299  19.234  0.00  0.00    +0.000 A 
ATOM      5  C   UNL     1       1.822   8.064  20.286  0.00  0.00    +0.000 A 
ATOM      6  C   UNL     1       1.099   9.240  20.037  0.00  0.00    +0.000 A 
ENDROOT
BRANCH   4   7
ATOM      7  C   UNL     1       2.854   5.925  19.412  0.00  0.00    +0.000 C 
ATOM      8  O   UNL     1       2.627   5.341  20.466  0.00  0.00    +0.000 OA
BRANCH   7   9
ATOM      9  C   UNL     1       3.773   5.290  18.429  0.00  0.00    +0.000 A 
ATOM     10  C   UNL     1       5.091   5.794  18.337  0.00  0.00    +0.000 A 
ATOM     11  C   UNL     1       6.015   5.266  17.440  0.00  0.00    +0.000 A 
ATOM     12  C   UNL     1       5.661   4.182  16.654  0.00  0.00    +0.000 A 
ATOM     13  C   UNL     1       4.378   3.642  16.761  0.00  0.00    +0.000 A 
ATOM     14  C   UNL     1       3.413   4.180  17.641  0.00  0.00    +0.000 A 
BRANCH  14  15
ATOM     15  C   UNL     1       2.078   3.515  17.555  0.00  0.00    +0.000 C 
ATOM     16  O   UNL     1       1.081   4.169  17.279  0.00  0.00    +0.000 OA
BRANCH  15  17
ATOM     17  O   UNL     1       2.031   2.177  17.641  0.00  0.00    +0.000 OA
ATOM     18  H   UNL     1       2.890   1.710  17.513  0.00  0.00    +0.000 HD
ENDBRANCH  15  17
ENDBRANCH  14  15
ENDBRANCH   7   9
ENDBRANCH   4   7
BRANCH   1  19
ATOM     19  O   UNL     1       0.078  10.726  18.459  0.00  0.00    +0.000 OA
BRANCH  19  21
ATOM     20  C   UNL     1      -1.826  10.036  17.165  0.00  0.00    +0.000 C 
ATOM     21  C   UNL     1      -1.321  10.432  18.540  0.00  0.00    +0.000 C 
ENDBRANCH  19  21
ENDBRANCH   1  19
BRANCH   6  22
ATOM     22  O   UNL     1       0.567   9.770  21.183  0.00  0.00    +0.000 OA
BRANCH  22  23
ATOM     23  C   UNL     1      -0.240   8.917  21.989  0.00  0.00    +0.000 C 
ATOM     24  C   UNL     1      -0.489   9.611  23.318  0.00  0.00    +0.000 C 
ENDBRANCH  22  23
ENDBRANCH   6  22
TORSDOF 8
ENDMDL
MODEL 7
REMARK VINA RESULT:      -7.1      2.108      3.919
REMARK  Name = 
REMARK  10 active torsions:
REMARK  status: ('A' for Active; 'I' for Inactive)
REMARK    1  A    between atoms: C_1  and  C_2
REMARK    2  A    between atoms: C_2  and  O_3
REMARK    3  A    between atoms: O_3  and  C_4
REMARK    4  A    between atoms: C_7  and  C_8
REMARK    5  A    between atoms: C_8  and  C_10
REMARK    6  A    between atoms: C_15  and  C_16
REMARK    7  A    between atoms: C_16  and  O_18
REMARK    8  A    between atoms: C_20  and  O_21
REMARK    9  A    between atoms: O_21  and  C_22
REMARK   10  A    between atoms: C_22  and  C_23
REMARK                            x       y       z     vdW  Elec       q    Type
REMARK                         _______ _______ _______ _____ _____    ______ ____
ROOT
ATOM      1  C   UNL     1       6.373   4.654  15.791  0.00  0.00    +0.000 A 
ATOM      2  C   UNL     1       5.531   3.540  15.917  0.00  0.00    +0.000 A 
ATOM      3  C   UNL     1       4.341   3.627  16.640  0.00  0.00    +0.000 A 
ATOM      4  C   UNL     1       4.003   4.813  17.292  0.00  0.00    +0.000 A 
ATOM      5  C   UNL     1       4.922   5.863  17.315  0.00  0.00    +0.000 A 
ATOM      6  C   UNL     1       6.097   5.805  16.551  0.00  0.00    +0.000 A 
ENDROOT
BRANCH   4   7
ATOM      7  C   UNL     1       2.634   4.925  17.850  0.00  0.00    +0.000 C 
ATOM      8  O   UNL     1       1.756   4.197  17.400  0.00  0.00    +0.000 OA
BRANCH   7   9
ATOM      9  C   UNL     1       2.253   5.987  18.820  0.00  0.00    +0.000 A 
ATOM     10  C   UNL     1       2.328   7.332  18.388  0.00  0.00    +0.000 A 
ATOM     11  C   UNL     1       1.999   8.390  19.231  0.00  0.00    +0.000 A 
ATOM     12  C   UNL     1       1.530   8.125  20.507  0.00  0.00    +0.000 A 
ATOM     13  C   UNL     1       1.407   6.803  20.937  0.00  0.00    +0.000 A 
ATOM     14  C   UNL     1       1.765   5.714  20.111  0.00  0.00    +0.000 A 
BRANCH  14  15
ATOM     15  C   UNL     1       1.637   4.382  20.777  0.00  0.00    +0.000 C 
ATOM     16  O   UNL     1       2.364   4.090  21.716  0.00  0.00    +0.000 OA
BRANCH  15  17
ATOM     17  O   UNL     1       0.615   3.590  20.416  0.00  0.00    +0.000 OA
ATOM     18  H   UNL     1       0.319   2.939  21.095  0.00  0.00    +0.000 HD
ENDBRANCH  15  17
ENDBRANCH  14  15
ENDBRANCH   7   9
ENDBRANCH   4   7
BRANCH   1  19
ATOM     19  O   UNL     1       7.431   4.666  14.918  0.00  0.00    +0.000 OA
BRANCH  19  21
ATOM     20  C   UNL     1       6.949   3.991  12.663  0.00  0.00    +0.000 C 
ATOM     21  C   UNL     1       7.147   5.162  13.605  0.00  0.00    +0.000 C 
ENDBRANCH  19  21
ENDBRANCH   1  19
BRANCH   6  22
ATOM     22  O   UNL     1       6.798   6.982  16.593  0.00  0.00    +0.000 OA
BRANCH  22  23
ATOM     23  C   UNL     1       7.554   7.254  17.769  0.00  0.00    +0.000 C 
ATOM     24  C   UNL     1       7.924   8.729  17.768  0.00  0.00    +0.000 C 
ENDBRANCH  22  23
ENDBRANCH   6  22
TORSDOF 8
ENDMDL
MODEL 8
REMARK VINA RESULT:      -7.0      1.083      2.883
REMARK  Name = 
REMARK  10 active torsions:
REMARK  status: ('A' for Active; 'I' for Inactive)
REMARK    1  A    between atoms: C_1  and  C_2
REMARK    2  A    between atoms: C_2  and  O_3
REMARK    3  A    between atoms: O_3  and  C_4
REMARK    4  A    between atoms: C_7  and  C_8
REMARK    5  A    between atoms: C_8  and  C_10
REMARK    6  A    between atoms: C_15  and  C_16
REMARK    7  A    between atoms: C_16  and  O_18
REMARK    8  A    between atoms: C_20  and  O_21
REMARK    9  A    between atoms: O_21  and  C_22
REMARK   10  A    between atoms: C_22  and  C_23
REMARK                            x       y       z     vdW  Elec       q    Type
REMARK                         _______ _______ _______ _____ _____    ______ ____
ROOT
ATOM      1  C   UNL     1       6.587   5.018  15.419  0.00  0.00    +0.000 A 
ATOM      2  C   UNL     1       6.144   3.688  15.390  0.00  0.00    +0.000 A 
ATOM      3  C   UNL     1       5.000   3.304  16.090  0.00  0.00    +0.000 A 
ATOM      4  C   UNL     1       4.313   4.233  16.872  0.00  0.00    +0.000 A 
ATOM      5  C   UNL     1       4.851   5.509  17.042  0.00  0.00    +0.000 A 
ATOM      6  C   UNL     1       5.972   5.921  16.305  0.00  0.00    +0.000 A 
ENDROOT
BRANCH   4   7
ATOM      7  C   UNL     1       2.988   3.836  17.405  0.00  0.00    +0.000 C 
ATOM      8  O   UNL     1       2.068   3.654  16.616  0.00  0.00    +0.000 OA
BRANCH   7   9
ATOM      9  C   UNL     1       2.696   3.801  18.864  0.00  0.00    +0.000 A 
ATOM     10  C   UNL     1       1.856   4.808  19.393  0.00  0.00    +0.000 A 
ATOM     11  C   UNL     1       1.535   4.857  20.746  0.00  0.00    +0.000 A 
ATOM     12  C   UNL     1       1.999   3.865  21.594  0.00  0.00    +0.000 A 
ATOM     13  C   UNL     1       2.794   2.837  21.084  0.00  0.00    +0.000 A 
ATOM     14  C   UNL     1       3.159   2.783  19.720  0.00  0.00    +0.000 A 
BRANCH  14  15
ATOM     15  C   UNL     1       4.076   1.653  19.382  0.00  0.00    +0.000 C 
ATOM     16  O   UNL     1       3.815   0.905  18.450  0.00  0.00    +0.000 OA
BRANCH  15  17
ATOM     17  O   UNL     1       5.251   1.577  20.027  0.00  0.00    +0.000 OA
ATOM     18  H   UNL     1       5.710   0.706  19.977  0.00  0.00    +0.000 HD
ENDBRANCH  15  17
ENDBRANCH  14  15
ENDBRANCH   7   9
ENDBRANCH   4   7
BRANCH   1  19
ATOM     19  O   UNL     1       7.572   5.471  14.580  0.00  0.00    +0.000 OA
BRANCH  19  21
ATOM     20  C   UNL     1       8.200   5.876  12.296  0.00  0.00    +0.000 C 
ATOM     21  C   UNL     1       7.590   4.888  13.272  0.00  0.00    +0.000 C 
ENDBRANCH  19  21
ENDBRANCH   1  19
BRANCH   6  22
ATOM     22  O   UNL     1       6.262   7.245  16.505  0.00  0.00    +0.000 OA
BRANCH  22  23
ATOM     23  C   UNL     1       7.117   7.572  17.597  0.00  0.00    +0.000 C 
ATOM     24  C   UNL     1       7.666   6.278  18.177  0.00  0.00    +0.000 C 
ENDBRANCH  22  23
ENDBRANCH   6  22
TORSDOF 8
ENDMDL
MODEL 9
REMARK VINA RESULT:      -7.0      1.313      2.269
REMARK  Name = 
REMARK  10 active torsions:
REMARK  status: ('A' for Active; 'I' for Inactive)
REMARK    1  A    between atoms: C_1  and  C_2
REMARK    2  A    between atoms: C_2  and  O_3
REMARK    3  A    between atoms: O_3  and  C_4
REMARK    4  A    between atoms: C_7  and  C_8
REMARK    5  A    between atoms: C_8  and  C_10
REMARK    6  A    between atoms: C_15  and  C_16
REMARK    7  A    between atoms: C_16  and  O_18
REMARK    8  A    between atoms: C_20  and  O_21
REMARK    9  A    between atoms: O_21  and  C_22
REMARK   10  A    between atoms: C_22  and  C_23
REMARK                            x       y       z     vdW  Elec       q    Type
REMARK                         _______ _______ _______ _____ _____    ______ ____
ROOT
ATOM      1  C   UNL     1       6.746   6.292  17.147  0.00  0.00    +0.000 A 
ATOM      2  C   UNL     1       6.082   6.272  18.382  0.00  0.00    +0.000 A 
ATOM      3  C   UNL     1       5.187   5.248  18.692  0.00  0.00    +0.000 A 
ATOM      4  C   UNL     1       4.902   4.259  17.750  0.00  0.00    +0.000 A 
ATOM      5  C   UNL     1       5.426   4.376  16.461  0.00  0.00    +0.000 A 
ATOM      6  C   UNL     1       6.364   5.372  16.155  0.00  0.00    +0.000 A 
ENDROOT
BRANCH   4   7
ATOM      7  C   UNL     1       4.129   3.079  18.205  0.00  0.00    +0.000 C 
ATOM      8  O   UNL     1       4.229   2.032  17.574  0.00  0.00    +0.000 OA
BRANCH   7   9
ATOM      9  C   UNL     1       3.123   3.160  19.298  0.00  0.00    +0.000 A 
ATOM     10  C   UNL     1       3.367   2.415  20.475  0.00  0.00    +0.000 A 
ATOM     11  C   UNL     1       2.477   2.426  21.545  0.00  0.00    +0.000 A 
ATOM     12  C   UNL     1       1.350   3.229  21.487  0.00  0.00    +0.000 A 
ATOM     13  C   UNL     1       1.113   4.006  20.352  0.00  0.00    +0.000 A 
ATOM     14  C   UNL     1       1.986   3.988  19.241  0.00  0.00    +0.000 A 
BRANCH  14  15
ATOM     15  C   UNL     1       1.522   4.825  18.094  0.00  0.00    +0.000 C 
ATOM     16  O   UNL     1       1.868   5.995  18.005  0.00  0.00    +0.000 OA
BRANCH  15  17
ATOM     17  O   UNL     1       0.850   4.222  17.101  0.00  0.00    +0.000 OA
ATOM     18  H   UNL     1       1.075   3.274  16.946  0.00  0.00    +0.000 HD
ENDBRANCH  15  17
ENDBRANCH  14  15
ENDBRANCH   7   9
ENDBRANCH   4   7
BRANCH   1  19
ATOM     19  O   UNL     1       7.782   7.155  16.897  0.00  0.00    +0.000 OA
BRANCH  19  21
ATOM     20  C   UNL     1       8.103   9.370  17.772  0.00  0.00    +0.000 C 
ATOM     21  C   UNL     1       8.270   7.885  18.029  0.00  0.00    +0.000 C 
ENDBRANCH  19  21
ENDBRANCH   1  19
BRANCH   6  22
ATOM     22  O   UNL     1       6.863   5.237  14.885  0.00  0.00    +0.000 OA
BRANCH  22  23
ATOM     23  C   UNL     1       6.336   4.187  14.081  0.00  0.00    +0.000 C 
ATOM     24  C   UNL     1       6.925   4.314  12.685  0.00  0.00    +0.000 C 
ENDBRANCH  22  23
ENDBRANCH   6  22
TORSDOF 8
ENDMDL
