MODEL 1
REMARK VINA RESULT:      -7.4      0.000      0.000
REMARK  Name = 
REMARK  7 active torsions:
REMARK  status: ('A' for Active; 'I' for Inactive)
REMARK    1  A    between atoms: C_1  and  C_2
REMARK    2  A    between atoms: C_2  and  C_13
REMARK    3  A    between atoms: C_3  and  C_4
REMARK    4  A    between atoms: C_7  and  C_8
REMARK    5  A    between atoms: C_8  and  O_10
REMARK    6  A    between atoms: C_22  and  C_23
REMARK    7  A    between atoms: C_22  and  C_24
REMARK                            x       y       z     vdW  Elec       q    Type
REMARK                         _______ _______ _______ _____ _____    ______ ____
ROOT
ATOM      1  C   UNL     1       1.920   8.776  17.823  0.00  0.00    +0.000 C 
ATOM      2  C   UNL     1       1.761   8.299  19.231  0.00  0.00    +0.000 C 
ATOM      3  C   UNL     1       1.091   8.915  20.226  0.00  0.00    +0.000 C 
ENDROOT
BRANCH   2   4
ATOM      4  C   UNL     1       2.421   7.022  19.561  0.00  0.00    +0.000 A 
ATOM      5  C   UNL     1       1.833   6.124  20.452  0.00  0.00    +0.000 A 
ATOM      6  C   UNL     1       2.246   4.787  20.481  0.00  0.00    +0.000 A 
ATOM      7  C   UNL     1       3.214   4.317  19.576  0.00  0.00    +0.000 A 
ATOM      8  C   UNL     1       3.974   5.289  18.904  0.00  0.00    +0.000 A 
ATOM      9  C   UNL     1       3.560   6.625  18.865  0.00  0.00    +0.000 A 
ATOM     10  S   UNL     1       5.315   4.806  17.845  0.00  0.00    +0.000 S 
ATOM     11  C   UNL     1       4.262   3.756  16.851  0.00  0.00    +0.000 C 
ATOM     12  C   UNL     1       3.697   2.595  17.667  0.00  0.00    +0.000 C 
ATOM     13  C   UNL     1       3.308   2.824  19.184  0.00  0.00    +0.000 C 
ATOM     14  C   UNL     1       1.926   2.131  19.368  0.00  0.00    +0.000 C 
ATOM     15  C   UNL     1       4.303   2.038  20.065  0.00  0.00    +0.000 C 
ENDBRANCH   2   4
BRANCH   3  16
ATOM     16  C   UNL     1       0.427  10.220  20.134  0.00  0.00    +0.000 A 
ATOM     17  C   UNL     1      -0.809  10.376  19.508  0.00  0.00    +0.000 A 
ATOM     18  C   UNL     1      -1.429  11.636  19.485  0.00  0.00    +0.000 A 
ATOM     19  C   UNL     1      -0.817  12.738  20.089  0.00  0.00    +0.000 A 
ATOM     20  C   UNL     1       0.415  12.578  20.730  0.00  0.00    +0.000 A 
ATOM     21  C   UNL     1       1.037  11.326  20.739  0.00  0.00    +0.000 A 
BRANCH  19  22
ATOM     22  C   UNL     1      -1.542  14.033  20.077  0.00  0.00    +0.000 C 
ATOM     23  O   UNL     1      -0.970  15.109  20.105  0.00  0.00    +0.000 OA
BRANCH  22  24
ATOM     24  O   UNL     1      -2.897  13.930  20.075  0.00  0.00    +0.000 OA
ATOM     25  H   UNL     1      -3.251  13.188  19.557  0.00  0.00    +0.000 HD
ENDBRANCH  22  24
ENDBRANCH  19  22
ENDBRANCH   3  16
TORSDOF 4
ENDMDL
MODEL 2
REMARK VINA RESULT:      -7.3      0.335      1.157
REMARK  Name = 
REMARK  7 active torsions:
REMARK  status: ('A' for Active; 'I' for Inactive)
REMARK    1  A    between atoms: C_1  and  C_2
REMARK    2  A    between atoms: C_2  and  C_13
REMARK    3  A    between atoms: C_3  and  C_4
REMARK    4  A    between atoms: C_7  and  C_8
REMARK    5  A    between atoms: C_8  and  O_10
REMARK    6  A    between atoms: C_22  and  C_23
REMARK    7  A    between atoms: C_22  and  C_24
REMARK                            x       y       z     vdW  Elec       q    Type
REMARK                         _______ _______ _______ _____ _____    ______ ____
ROOT
ATOM      1  C   UNL     1       1.971   8.829  18.024  0.00  0.00    +0.000 C 
ATOM      2  C   UNL     1       1.758   8.270  19.395  0.00  0.00    +0.000 C 
ATOM      3  C   UNL     1       1.047   8.827  20.397  0.00  0.00    +0.000 C 
ENDROOT
BRANCH   2   4
ATOM      4  C   UNL     1       2.408   6.976  19.676  0.00  0.00    +0.000 A 
ATOM      5  C   UNL     1       1.826   6.061  20.554  0.00  0.00    +0.000 A 
ATOM      6  C   UNL     1       2.223   4.719  20.538  0.00  0.00    +0.000 A 
ATOM      7  C   UNL     1       3.165   4.262  19.601  0.00  0.00    +0.000 A 
ATOM      8  C   UNL     1       3.924   5.243  18.940  0.00  0.00    +0.000 A 
ATOM      9  C   UNL     1       3.527   6.585  18.945  0.00  0.00    +0.000 A 
ATOM     10  S   UNL     1       5.236   4.773  17.840  0.00  0.00    +0.000 S 
ATOM     11  C   UNL     1       4.149   3.764  16.840  0.00  0.00    +0.000 C 
ATOM     12  C   UNL     1       3.586   2.588  17.636  0.00  0.00    +0.000 C 
ATOM     13  C   UNL     1       3.232   2.780  19.166  0.00  0.00    +0.000 C 
ATOM     14  C   UNL     1       1.845   2.099  19.360  0.00  0.00    +0.000 C 
ATOM     15  C   UNL     1       4.235   1.958  20.005  0.00  0.00    +0.000 C 
ENDBRANCH   2   4
BRANCH   3  16
ATOM     16  C   UNL     1       0.384  10.135  20.355  0.00  0.00    +0.000 A 
ATOM     17  C   UNL     1       0.917  11.253  20.996  0.00  0.00    +0.000 A 
ATOM     18  C   UNL     1       0.274  12.496  20.889  0.00  0.00    +0.000 A 
ATOM     19  C   UNL     1      -0.901  12.624  20.142  0.00  0.00    +0.000 A 
ATOM     20  C   UNL     1      -1.428  11.506  19.488  0.00  0.00    +0.000 A 
ATOM     21  C   UNL     1      -0.792  10.266  19.607  0.00  0.00    +0.000 A 
BRANCH  19  22
ATOM     22  C   UNL     1      -1.511  13.972  20.024  0.00  0.00    +0.000 C 
ATOM     23  O   UNL     1      -2.413  14.353  20.749  0.00  0.00    +0.000 OA
BRANCH  22  24
ATOM     24  O   UNL     1      -1.016  14.737  19.016  0.00  0.00    +0.000 OA
ATOM     25  H   UNL     1      -1.653  14.954  18.315  0.00  0.00    +0.000 HD
ENDBRANCH  22  24
ENDBRANCH  19  22
ENDBRANCH   3  16
TORSDOF 4
ENDMDL
MODEL 3
REMARK VINA RESULT:      -7.3      2.175      3.045
REMARK  Name = 
REMARK  7 active torsions:
REMARK  status: ('A' for Active; 'I' for Inactive)
REMARK    1  A    between atoms: C_1  and  C_2
REMARK    2  A    between atoms: C_2  and  C_13
REMARK    3  A    between atoms: C_3  and  C_4
REMARK    4  A    between atoms: C_7  and  C_8
REMARK    5  A    between atoms: C_8  and  O_10
REMARK    6  A    between atoms: C_22  and  C_23
REMARK    7  A    between atoms: C_22  and  C_24
REMARK                            x       y       z     vdW  Elec       q    Type
REMARK                         _______ _______ _______ _____ _____    ______ ____
ROOT
ATOM      1  C   UNL     1       1.746  10.235  18.159  0.00  0.00    +0.000 C 
ATOM      2  C   UNL     1       1.635   8.891  18.806  0.00  0.00    +0.000 C 
ATOM      3  C   UNL     1       0.957   8.585  19.931  0.00  0.00    +0.000 C 
ENDROOT
BRANCH   2   4
ATOM      4  C   UNL     1       2.356   7.789  18.141  0.00  0.00    +0.000 A 
ATOM      5  C   UNL     1       3.571   8.020  17.495  0.00  0.00    +0.000 A 
ATOM      6  C   UNL     1       4.426   6.952  17.200  0.00  0.00    +0.000 A 
ATOM      7  C   UNL     1       4.102   5.644  17.600  0.00  0.00    +0.000 A 
ATOM      8  C   UNL     1       2.770   5.413  17.983  0.00  0.00    +0.000 A 
ATOM      9  C   UNL     1       1.914   6.477  18.288  0.00  0.00    +0.000 A 
ATOM     10  S   UNL     1       2.220   3.771  18.374  0.00  0.00    +0.000 S 
ATOM     11  C   UNL     1       3.483   3.555  19.623  0.00  0.00    +0.000 C 
ATOM     12  C   UNL     1       4.884   3.588  19.015  0.00  0.00    +0.000 C 
ATOM     13  C   UNL     1       5.187   4.561  17.805  0.00  0.00    +0.000 C 
ATOM     14  C   UNL     1       6.555   5.226  18.139  0.00  0.00    +0.000 C 
ATOM     15  C   UNL     1       5.422   3.707  16.541  0.00  0.00    +0.000 C 
ENDBRANCH   2   4
BRANCH   3  16
ATOM     16  C   UNL     1       0.235   9.536  20.783  0.00  0.00    +0.000 A 
ATOM     17  C   UNL     1      -0.417  10.651  20.256  0.00  0.00    +0.000 A 
ATOM     18  C   UNL     1      -1.136  11.508  21.104  0.00  0.00    +0.000 A 
ATOM     19  C   UNL     1      -1.206  11.253  22.477  0.00  0.00    +0.000 A 
ATOM     20  C   UNL     1      -0.565  10.128  23.003  0.00  0.00    +0.000 A 
ATOM     21  C   UNL     1       0.162   9.283  22.159  0.00  0.00    +0.000 A 
BRANCH  19  22
ATOM     22  C   UNL     1      -2.021  12.166  23.317  0.00  0.00    +0.000 C 
ATOM     23  O   UNL     1      -3.135  11.875  23.716  0.00  0.00    +0.000 OA
BRANCH  22  24
ATOM     24  O   UNL     1      -1.448  13.371  23.574  0.00  0.00    +0.000 OA
ATOM     25  H   UNL     1      -0.629  13.333  24.096  0.00  0.00    +0.000 HD
ENDBRANCH  22  24
ENDBRANCH  19  22
ENDBRANCH   3  16
TORSDOF 4
ENDMDL
MODEL 4
REMARK VINA RESULT:      -7.2      0.946      1.074
REMARK  Name = 
REMARK  7 active torsions:
REMARK  status: ('A' for Active; 'I' for Inactive)
REMARK    1  A    between atoms: C_1  and  C_2
REMARK    2  A    between atoms: C_2  and  C_13
REMARK    3  A    between atoms: C_3  and  C_4
REMARK    4  A    between atoms: C_7  and  C_8
REMARK    5  A    between atoms: C_8  and  O_10
REMARK    6  A    between atoms: C_22  and  C_23
REMARK    7  A    between atoms: C_22  and  C_24
REMARK                            x       y       z     vdW  Elec       q    Type
REMARK                         _______ _______ _______ _____ _____    ______ ____
ROOT
ATOM      1  C   UNL     1       1.718   9.297  17.809  0.00  0.00    +0.000 C 
ATOM      2  C   UNL     1       1.537   8.824  19.216  0.00  0.00    +0.000 C 
ATOM      3  C   UNL     1       0.906   9.473  20.216  0.00  0.00    +0.000 C 
ENDROOT
BRANCH   2   4
ATOM      4  C   UNL     1       2.124   7.510  19.539  0.00  0.00    +0.000 A 
ATOM      5  C   UNL     1       1.755   6.829  20.699  0.00  0.00    +0.000 A 
ATOM      6  C   UNL     1       2.008   5.458  20.822  0.00  0.00    +0.000 A 
ATOM      7  C   UNL     1       2.581   4.737  19.760  0.00  0.00    +0.000 A 
ATOM      8  C   UNL     1       3.190   5.491  18.742  0.00  0.00    +0.000 A 
ATOM      9  C   UNL     1       2.933   6.860  18.609  0.00  0.00    +0.000 A 
ATOM     10  S   UNL     1       4.064   4.682  17.426  0.00  0.00    +0.000 S 
ATOM     11  C   UNL     1       2.642   3.694  16.977  0.00  0.00    +0.000 C 
ATOM     12  C   UNL     1       2.242   2.742  18.103  0.00  0.00    +0.000 C 
ATOM     13  C   UNL     1       2.382   3.212  19.607  0.00  0.00    +0.000 C 
ATOM     14  C   UNL     1       1.063   2.768  20.306  0.00  0.00    +0.000 C 
ATOM     15  C   UNL     1       3.514   2.395  20.269  0.00  0.00    +0.000 C 
ENDBRANCH   2   4
BRANCH   3  16
ATOM     16  C   UNL     1       0.317  10.814  20.131  0.00  0.00    +0.000 A 
ATOM     17  C   UNL     1      -1.000  11.017  19.718  0.00  0.00    +0.000 A 
ATOM     18  C   UNL     1      -1.536  12.314  19.699  0.00  0.00    +0.000 A 
ATOM     19  C   UNL     1      -0.760  13.409  20.091  0.00  0.00    +0.000 A 
ATOM     20  C   UNL     1       0.555  13.204  20.518  0.00  0.00    +0.000 A 
ATOM     21  C   UNL     1       1.092  11.912  20.525  0.00  0.00    +0.000 A 
BRANCH  19  22
ATOM     22  C   UNL     1      -1.395  14.750  20.096  0.00  0.00    +0.000 C 
ATOM     23  O   UNL     1      -2.221  15.085  20.928  0.00  0.00    +0.000 OA
BRANCH  22  24
ATOM     24  O   UNL     1      -1.017  15.566  19.078  0.00  0.00    +0.000 OA
ATOM     25  H   UNL     1      -1.577  15.519  18.285  0.00  0.00    +0.000 HD
ENDBRANCH  22  24
ENDBRANCH  19  22
ENDBRANCH   3  16
TORSDOF 4
ENDMDL
MODEL 5
REMARK VINA RESULT:      -7.2      4.724      9.220
REMARK  Name = 
REMARK  7 active torsions:
REMARK  status: ('A' for Active; 'I' for Inactive)
REMARK    1  A    between atoms: C_1  and  C_2
REMARK    2  A    between atoms: C_2  and  C_13
REMARK    3  A    between atoms: C_3  and  C_4
REMARK    4  A    between atoms: C_7  and  C_8
REMARK    5  A    between atoms: C_8  and  O_10
REMARK    6  A    between atoms: C_22  and  C_23
REMARK    7  A    between atoms: C_22  and  C_24
REMARK                            x       y       z     vdW  Elec       q    Type
REMARK                         _______ _______ _______ _____ _____    ______ ____
ROOT
ATOM      1  C   UNL     1       1.459   8.189  20.575  0.00  0.00    +0.000 C 
ATOM      2  C   UNL     1       1.558   8.624  19.148  0.00  0.00    +0.000 C 
ATOM      3  C   UNL     1       2.015   7.897  18.107  0.00  0.00    +0.000 C 
ENDROOT
BRANCH   2   4
ATOM      4  C   UNL     1       1.118  10.001  18.858  0.00  0.00    +0.000 A 
ATOM      5  C   UNL     1      -0.197  10.398  19.106  0.00  0.00    +0.000 A 
ATOM      6  C   UNL     1      -0.519  11.757  19.191  0.00  0.00    +0.000 A 
ATOM      7  C   UNL     1       0.483  12.738  19.087  0.00  0.00    +0.000 A 
ATOM      8  C   UNL     1       1.719  12.324  18.562  0.00  0.00    +0.000 A 
ATOM      9  C   UNL     1       2.049  10.967  18.483  0.00  0.00    +0.000 A 
ATOM     10  S   UNL     1       3.007  13.508  18.258  0.00  0.00    +0.000 S 
ATOM     11  C   UNL     1       2.986  14.088  19.950  0.00  0.00    +0.000 C 
ATOM     12  C   UNL     1       1.650  14.737  20.305  0.00  0.00    +0.000 C 
ATOM     13  C   UNL     1       0.312  14.147  19.700  0.00  0.00    +0.000 C 
ATOM     14  C   UNL     1      -0.695  14.100  20.887  0.00  0.00    +0.000 C 
ATOM     15  C   UNL     1      -0.259  15.169  18.693  0.00  0.00    +0.000 C 
ENDBRANCH   2   4
BRANCH   3  16
ATOM     16  C   UNL     1       2.565   6.539  18.185  0.00  0.00    +0.000 A 
ATOM     17  C   UNL     1       3.888   6.299  18.555  0.00  0.00    +0.000 A 
ATOM     18  C   UNL     1       4.358   4.981  18.662  0.00  0.00    +0.000 A 
ATOM     19  C   UNL     1       3.508   3.902  18.401  0.00  0.00    +0.000 A 
ATOM     20  C   UNL     1       2.178   4.142  18.045  0.00  0.00    +0.000 A 
ATOM     21  C   UNL     1       1.715   5.456  17.925  0.00  0.00    +0.000 A 
BRANCH  19  22
ATOM     22  C   UNL     1       4.046   2.530  18.579  0.00  0.00    +0.000 C 
ATOM     23  O   UNL     1       3.537   1.550  18.061  0.00  0.00    +0.000 OA
BRANCH  22  24
ATOM     24  O   UNL     1       5.127   2.441  19.397  0.00  0.00    +0.000 OA
ATOM     25  H   UNL     1       5.107   1.697  20.023  0.00  0.00    +0.000 HD
ENDBRANCH  22  24
ENDBRANCH  19  22
ENDBRANCH   3  16
TORSDOF 4
ENDMDL
MODEL 6
REMARK VINA RESULT:      -7.1      2.121      2.992
REMARK  Name = 
REMARK  7 active torsions:
REMARK  status: ('A' for Active; 'I' for Inactive)
REMARK    1  A    between atoms: C_1  and  C_2
REMARK    2  A    between atoms: C_2  and  C_13
REMARK    3  A    between atoms: C_3  and  C_4
REMARK    4  A    between atoms: C_7  and  C_8
REMARK    5  A    between atoms: C_8  and  O_10
REMARK    6  A    between atoms: C_22  and  C_23
REMARK    7  A    between atoms: C_22  and  C_24
REMARK                            x       y       z     vdW  Elec       q    Type
REMARK                         _______ _______ _______ _____ _____    ______ ____
ROOT
ATOM      1  C   UNL     1       1.837  10.195  18.185  0.00  0.00    +0.000 C 
ATOM      2  C   UNL     1       1.672   8.836  18.788  0.00  0.00    +0.000 C 
ATOM      3  C   UNL     1       0.951   8.515  19.881  0.00  0.00    +0.000 C 
ENDROOT
BRANCH   2   4
ATOM      4  C   UNL     1       2.388   7.736  18.114  0.00  0.00    +0.000 A 
ATOM      5  C   UNL     1       3.604   7.965  17.471  0.00  0.00    +0.000 A 
ATOM      6  C   UNL     1       4.453   6.895  17.166  0.00  0.00    +0.000 A 
ATOM      7  C   UNL     1       4.122   5.585  17.556  0.00  0.00    +0.000 A 
ATOM      8  C   UNL     1       2.788   5.359  17.936  0.00  0.00    +0.000 A 
ATOM      9  C   UNL     1       1.938   6.425  18.250  0.00  0.00    +0.000 A 
ATOM     10  S   UNL     1       2.229   3.717  18.312  0.00  0.00    +0.000 S 
ATOM     11  C   UNL     1       3.489   3.483  19.560  0.00  0.00    +0.000 C 
ATOM     12  C   UNL     1       4.890   3.513  18.954  0.00  0.00    +0.000 C 
ATOM     13  C   UNL     1       5.200   4.494  17.752  0.00  0.00    +0.000 C 
ATOM     14  C   UNL     1       6.572   5.148  18.092  0.00  0.00    +0.000 C 
ATOM     15  C   UNL     1       5.431   3.649  16.480  0.00  0.00    +0.000 C 
ENDBRANCH   2   4
BRANCH   3  16
ATOM     16  C   UNL     1       0.225   9.460  20.738  0.00  0.00    +0.000 A 
ATOM     17  C   UNL     1       0.225   9.345  22.128  0.00  0.00    +0.000 A 
ATOM     18  C   UNL     1      -0.444  10.300  22.910  0.00  0.00    +0.000 A 
ATOM     19  C   UNL     1      -1.112  11.369  22.306  0.00  0.00    +0.000 A 
ATOM     20  C   UNL     1      -1.100  11.492  20.914  0.00  0.00    +0.000 A 
ATOM     21  C   UNL     1      -0.444  10.533  20.136  0.00  0.00    +0.000 A 
BRANCH  19  22
ATOM     22  C   UNL     1      -1.760  12.374  23.185  0.00  0.00    +0.000 C 
ATOM     23  O   UNL     1      -1.219  13.420  23.500  0.00  0.00    +0.000 OA
BRANCH  22  24
ATOM     24  O   UNL     1      -2.988  12.023  23.647  0.00  0.00    +0.000 OA
ATOM     25  H   UNL     1      -3.052  11.119  23.998  0.00  0.00    +0.000 HD
ENDBRANCH  22  24
ENDBRANCH  19  22
ENDBRANCH   3  16
TORSDOF 4
ENDMDL
MODEL 7
REMARK VINA RESULT:      -7.1      1.077      1.478
REMARK  Name = 
REMARK  7 active torsions:
REMARK  status: ('A' for Active; 'I' for Inactive)
REMARK    1  A    between atoms: C_1  and  C_2
REMARK    2  A    between atoms: C_2  and  C_13
REMARK    3  A    between atoms: C_3  and  C_4
REMARK    4  A    between atoms: C_7  and  C_8
REMARK    5  A    between atoms: C_8  and  O_10
REMARK    6  A    between atoms: C_22  and  C_23
REMARK    7  A    between atoms: C_22  and  C_24
REMARK                            x       y       z     vdW  Elec       q    Type
REMARK                         _______ _______ _______ _____ _____    ______ ____
ROOT
ATOM      1  C   UNL     1       1.499   9.267  17.706  0.00  0.00    +0.000 C 
ATOM      2  C   UNL     1       1.507   8.920  19.161  0.00  0.00    +0.000 C 
ATOM      3  C   UNL     1       1.063   9.684  20.180  0.00  0.00    +0.000 C 
ENDROOT
BRANCH   2   4
ATOM      4  C   UNL     1       2.073   7.604  19.510  0.00  0.00    +0.000 A 
ATOM      5  C   UNL     1       1.685   6.948  20.679  0.00  0.00    +0.000 A 
ATOM      6  C   UNL     1       1.919   5.576  20.827  0.00  0.00    +0.000 A 
ATOM      7  C   UNL     1       2.491   4.830  19.782  0.00  0.00    +0.000 A 
ATOM      8  C   UNL     1       3.118   5.558  18.757  0.00  0.00    +0.000 A 
ATOM      9  C   UNL     1       2.881   6.928  18.599  0.00  0.00    +0.000 A 
ATOM     10  S   UNL     1       3.992   4.715  17.462  0.00  0.00    +0.000 S 
ATOM     11  C   UNL     1       2.560   3.739  17.018  0.00  0.00    +0.000 C 
ATOM     12  C   UNL     1       2.138   2.812  18.156  0.00  0.00    +0.000 C 
ATOM     13  C   UNL     1       2.272   3.305  19.653  0.00  0.00    +0.000 C 
ATOM     14  C   UNL     1       0.942   2.890  20.348  0.00  0.00    +0.000 C 
ATOM     15  C   UNL     1       3.387   2.484  20.338  0.00  0.00    +0.000 C 
ENDBRANCH   2   4
BRANCH   3  16
ATOM     16  C   UNL     1       0.531  11.047  20.063  0.00  0.00    +0.000 A 
ATOM     17  C   UNL     1       1.332  12.170  20.264  0.00  0.00    +0.000 A 
ATOM     18  C   UNL     1       0.793  13.455  20.094  0.00  0.00    +0.000 A 
ATOM     19  C   UNL     1      -0.545  13.619  19.723  0.00  0.00    +0.000 A 
ATOM     20  C   UNL     1      -1.344  12.493  19.508  0.00  0.00    +0.000 A 
ATOM     21  C   UNL     1      -0.808  11.214  19.690  0.00  0.00    +0.000 A 
BRANCH  19  22
ATOM     22  C   UNL     1      -1.047  15.000  19.510  0.00  0.00    +0.000 C 
ATOM     23  O   UNL     1      -0.438  15.829  18.857  0.00  0.00    +0.000 OA
BRANCH  22  24
ATOM     24  O   UNL     1      -2.220  15.284  20.134  0.00  0.00    +0.000 OA
ATOM     25  H   UNL     1      -2.219  15.142  21.095  0.00  0.00    +0.000 HD
ENDBRANCH  22  24
ENDBRANCH  19  22
ENDBRANCH   3  16
TORSDOF 4
ENDMDL
MODEL 8
REMARK VINA RESULT:      -7.1      2.181      3.555
REMARK  Name = 
REMARK  7 active torsions:
REMARK  status: ('A' for Active; 'I' for Inactive)
REMARK    1  A    between atoms: C_1  and  C_2
REMARK    2  A    between atoms: C_2  and  C_13
REMARK    3  A    between atoms: C_3  and  C_4
REMARK    4  A    between atoms: C_7  and  C_8
REMARK    5  A    between atoms: C_8  and  O_10
REMARK    6  A    between atoms: C_22  and  C_23
REMARK    7  A    between atoms: C_22  and  C_24
REMARK                            x       y       z     vdW  Elec       q    Type
REMARK                         _______ _______ _______ _____ _____    ______ ____
ROOT
ATOM      1  C   UNL     1       1.294   5.636  20.831  0.00  0.00    +0.000 C 
ATOM      2  C   UNL     1       2.176   6.442  19.932  0.00  0.00    +0.000 C 
ATOM      3  C   UNL     1       2.172   7.783  19.780  0.00  0.00    +0.000 C 
ENDROOT
BRANCH   2   4
ATOM      4  C   UNL     1       3.144   5.681  19.120  0.00  0.00    +0.000 A 
ATOM      5  C   UNL     1       2.763   5.109  17.906  0.00  0.00    +0.000 A 
ATOM      6  C   UNL     1       3.732   4.722  16.974  0.00  0.00    +0.000 A 
ATOM      7  C   UNL     1       5.096   4.958  17.220  0.00  0.00    +0.000 A 
ATOM      8  C   UNL     1       5.455   5.264  18.544  0.00  0.00    +0.000 A 
ATOM      9  C   UNL     1       4.490   5.660  19.477  0.00  0.00    +0.000 A 
ATOM     10  S   UNL     1       7.163   5.444  18.992  0.00  0.00    +0.000 S 
ATOM     11  C   UNL     1       7.443   6.703  17.753  0.00  0.00    +0.000 C 
ATOM     12  C   UNL     1       7.250   6.153  16.341  0.00  0.00    +0.000 C 
ATOM     13  C   UNL     1       6.124   5.075  16.071  0.00  0.00    +0.000 C 
ATOM     14  C   UNL     1       5.418   5.531  14.760  0.00  0.00    +0.000 C 
ATOM     15  C   UNL     1       6.808   3.729  15.744  0.00  0.00    +0.000 C 
ENDBRANCH   2   4
BRANCH   3  16
ATOM     16  C   UNL     1       1.249   8.718  20.432  0.00  0.00    +0.000 A 
ATOM     17  C   UNL     1       1.147   8.805  21.821  0.00  0.00    +0.000 A 
ATOM     18  C   UNL     1       0.285   9.748  22.402  0.00  0.00    +0.000 A 
ATOM     19  C   UNL     1      -0.474  10.604  21.599  0.00  0.00    +0.000 A 
ATOM     20  C   UNL     1      -0.361  10.527  20.209  0.00  0.00    +0.000 A 
ATOM     21  C   UNL     1       0.489   9.578  19.631  0.00  0.00    +0.000 A 
BRANCH  19  22
ATOM     22  C   UNL     1      -1.331  11.614  22.270  0.00  0.00    +0.000 C 
ATOM     23  O   UNL     1      -2.417  11.952  21.832  0.00  0.00    +0.000 OA
BRANCH  22  24
ATOM     24  O   UNL     1      -0.795  12.167  23.389  0.00  0.00    +0.000 OA
ATOM     25  H   UNL     1      -0.379  13.036  23.259  0.00  0.00    +0.000 HD
ENDBRANCH  22  24
ENDBRANCH  19  22
ENDBRANCH   3  16
TORSDOF 4
ENDMDL
MODEL 9
REMARK VINA RESULT:      -7.0      1.612      1.893
REMARK  Name = 
REMARK  7 active torsions:
REMARK  status: ('A' for Active; 'I' for Inactive)
REMARK    1  A    between atoms: C_1  and  C_2
REMARK    2  A    between atoms: C_2  and  C_13
REMARK    3  A    between atoms: C_3  and  C_4
REMARK    4  A    between atoms: C_7  and  C_8
REMARK    5  A    between atoms: C_8  and  O_10
REMARK    6  A    between atoms: C_22  and  C_23
REMARK    7  A    between atoms: C_22  and  C_24
REMARK                            x       y       z     vdW  Elec       q    Type
REMARK                         _______ _______ _______ _____ _____    ______ ____
ROOT
ATOM      1  C   UNL     1       1.396   8.797  19.066  0.00  0.00    +0.000 C 
ATOM      2  C   UNL     1       1.493   8.038  20.350  0.00  0.00    +0.000 C 
ATOM      3  C   UNL     1       1.065   8.439  21.565  0.00  0.00    +0.000 C 
ENDROOT
BRANCH   2   4
ATOM      4  C   UNL     1       2.137   6.713  20.274  0.00  0.00    +0.000 A 
ATOM      5  C   UNL     1       1.482   5.573  20.740  0.00  0.00    +0.000 A 
ATOM      6  C   UNL     1       1.909   4.302  20.339  0.00  0.00    +0.000 A 
ATOM      7  C   UNL     1       2.961   4.157  19.419  0.00  0.00    +0.000 A 
ATOM      8  C   UNL     1       3.767   5.288  19.198  0.00  0.00    +0.000 A 
ATOM      9  C   UNL     1       3.340   6.562  19.589  0.00  0.00    +0.000 A 
ATOM     10  S   UNL     1       5.204   5.177  18.163  0.00  0.00    +0.000 S 
ATOM     11  C   UNL     1       4.260   4.558  16.775  0.00  0.00    +0.000 C 
ATOM     12  C   UNL     1       3.639   3.197  17.082  0.00  0.00    +0.000 C 
ATOM     13  C   UNL     1       3.111   2.892  18.542  0.00  0.00    +0.000 C 
ATOM     14  C   UNL     1       1.727   2.205  18.348  0.00  0.00    +0.000 C 
ATOM     15  C   UNL     1       4.032   1.830  19.181  0.00  0.00    +0.000 C 
ENDBRANCH   2   4
BRANCH   3  16
ATOM     16  C   UNL     1       0.465   9.742  21.876  0.00  0.00    +0.000 A 
ATOM     17  C   UNL     1       0.865  10.911  21.229  0.00  0.00    +0.000 A 
ATOM     18  C   UNL     1       0.230  12.128  21.525  0.00  0.00    +0.000 A 
ATOM     19  C   UNL     1      -0.804  12.178  22.465  0.00  0.00    +0.000 A 
ATOM     20  C   UNL     1      -1.213  11.004  23.103  0.00  0.00    +0.000 A 
ATOM     21  C   UNL     1      -0.571   9.795  22.817  0.00  0.00    +0.000 A 
BRANCH  19  22
ATOM     22  C   UNL     1      -1.471  13.482  22.701  0.00  0.00    +0.000 C 
ATOM     23  O   UNL     1      -2.481  13.822  22.110  0.00  0.00    +0.000 OA
BRANCH  22  24
ATOM     24  O   UNL     1      -0.848  14.290  23.598  0.00  0.00    +0.000 OA
ATOM     25  H   UNL     1       0.105  14.410  23.450  0.00  0.00    +0.000 HD
ENDBRANCH  22  24
ENDBRANCH  19  22
ENDBRANCH   3  16
TORSDOF 4
ENDMDL
