MODEL 1
REMARK VINA RESULT:      -6.3      0.000      0.000
REMARK  Name = 
REMARK  5 active torsions:
REMARK  status: ('A' for Active; 'I' for Inactive)
REMARK    1  A    between atoms: C_1  and  N_2
REMARK    2  A    between atoms: C_5  and  C_6
REMARK    3  A    between atoms: C_7  and  C_8
REMARK    4  A    between atoms: C_8  and  C_10
REMARK    5  A    between atoms: C_11  and  C_12
REMARK                            x       y       z     vdW  Elec       q    Type
REMARK                         _______ _______ _______ _____ _____    ______ ____
ROOT
ATOM      1  C   UNL     1       7.559   4.730  12.943  0.00  0.00    +0.000 C 
ATOM      2  N   UNL     1       6.522   4.332  13.871  0.00  0.00    +0.000 N 
ATOM      3  C   UNL     1       6.583   4.839  15.122  0.00  0.00    +0.000 A 
ATOM      4  N   UNL     1       7.151   5.973  15.452  0.00  0.00    +0.000 NA
ATOM      5  C   UNL     1       7.082   6.183  16.821  0.00  0.00    +0.000 A 
ATOM      6  C   UNL     1       7.672   7.440  17.353  0.00  0.00    +0.000 C 
ATOM      7  C   UNL     1       6.441   5.178  17.532  0.00  0.00    +0.000 A 
ATOM      8  S   UNL     1       5.917   3.965  16.436  0.00  0.00    +0.000 S 
ATOM      9  H   UNL     1       6.251   3.358  13.806  0.00  0.00    +0.000 HD
ENDROOT
BRANCH   7  10
ATOM     10  C   UNL     1       6.239   5.065  18.971  0.00  0.00    +0.000 C 
ATOM     11  O   UNL     1       7.040   5.510  19.792  0.00  0.00    +0.000 OA
BRANCH  10  12
ATOM     12  C   UNL     1       4.990   4.408  19.461  0.00  0.00    +0.000 C 
ATOM     13  C   UNL     1       3.768   4.907  19.217  0.00  0.00    +0.000 C 
BRANCH  13  14
ATOM     14  C   UNL     1       2.627   4.199  19.697  0.00  0.00    +0.000 A 
ATOM     15  N   UNL     1       2.356   3.928  20.962  0.00  0.00    +0.000 NA
ATOM     16  C   UNL     1       1.186   3.213  21.073  0.00  0.00    +0.000 A 
ATOM     17  C   UNL     1       0.549   2.934  19.886  0.00  0.00    +0.000 A 
ATOM     18  S   UNL     1       1.444   3.597  18.583  0.00  0.00    +0.000 S 
ENDBRANCH  13  14
ENDBRANCH  10  12
ENDBRANCH   7  10
TORSDOF 3
ENDMDL
MODEL 2
REMARK VINA RESULT:      -6.0      4.131      5.010
REMARK  Name = 
REMARK  5 active torsions:
REMARK  status: ('A' for Active; 'I' for Inactive)
REMARK    1  A    between atoms: C_1  and  N_2
REMARK    2  A    between atoms: C_5  and  C_6
REMARK    3  A    between atoms: C_7  and  C_8
REMARK    4  A    between atoms: C_8  and  C_10
REMARK    5  A    between atoms: C_11  and  C_12
REMARK                            x       y       z     vdW  Elec       q    Type
REMARK                         _______ _______ _______ _____ _____    ______ ____
ROOT
ATOM      1  C   UNL     1       6.818   4.106  15.728  0.00  0.00    +0.000 C 
ATOM      2  N   UNL     1       6.710   4.220  17.167  0.00  0.00    +0.000 N 
ATOM      3  C   UNL     1       5.470   4.368  17.684  0.00  0.00    +0.000 A 
ATOM      4  N   UNL     1       4.362   3.951  17.123  0.00  0.00    +0.000 NA
ATOM      5  C   UNL     1       3.257   4.299  17.887  0.00  0.00    +0.000 A 
ATOM      6  C   UNL     1       1.920   3.882  17.388  0.00  0.00    +0.000 C 
ATOM      7  C   UNL     1       3.551   4.991  19.053  0.00  0.00    +0.000 A 
ATOM      8  S   UNL     1       5.253   5.187  19.172  0.00  0.00    +0.000 S 
ATOM      9  H   UNL     1       7.435   4.779  17.601  0.00  0.00    +0.000 HD
ENDROOT
BRANCH   7  10
ATOM     10  C   UNL     1       2.634   5.538  20.045  0.00  0.00    +0.000 C 
ATOM     11  O   UNL     1       2.203   4.875  20.988  0.00  0.00    +0.000 OA
BRANCH  10  12
ATOM     12  C   UNL     1       2.231   6.971  19.922  0.00  0.00    +0.000 C 
ATOM     13  C   UNL     1       1.465   7.587  20.836  0.00  0.00    +0.000 C 
BRANCH  13  14
ATOM     14  C   UNL     1       1.153   8.966  20.656  0.00  0.00    +0.000 A 
ATOM     15  N   UNL     1       0.884   9.834  21.617  0.00  0.00    +0.000 NA
ATOM     16  C   UNL     1       0.607  11.076  21.094  0.00  0.00    +0.000 A 
ATOM     17  C   UNL     1       0.664  11.168  19.723  0.00  0.00    +0.000 A 
ATOM     18  S   UNL     1       1.088   9.644  19.063  0.00  0.00    +0.000 S 
ENDBRANCH  13  14
ENDBRANCH  10  12
ENDBRANCH   7  10
TORSDOF 3
ENDMDL
MODEL 3
REMARK VINA RESULT:      -6.0      3.839      5.030
REMARK  Name = 
REMARK  5 active torsions:
REMARK  status: ('A' for Active; 'I' for Inactive)
REMARK    1  A    between atoms: C_1  and  N_2
REMARK    2  A    between atoms: C_5  and  C_6
REMARK    3  A    between atoms: C_7  and  C_8
REMARK    4  A    between atoms: C_8  and  C_10
REMARK    5  A    between atoms: C_11  and  C_12
REMARK                            x       y       z     vdW  Elec       q    Type
REMARK                         _______ _______ _______ _____ _____    ______ ____
ROOT
ATOM      1  C   UNL     1       5.923   3.913  15.643  0.00  0.00    +0.000 C 
ATOM      2  N   UNL     1       6.051   4.142  17.066  0.00  0.00    +0.000 N 
ATOM      3  C   UNL     1       4.936   4.008  17.817  0.00  0.00    +0.000 A 
ATOM      4  N   UNL     1       3.907   3.256  17.515  0.00  0.00    +0.000 NA
ATOM      5  C   UNL     1       2.908   3.375  18.471  0.00  0.00    +0.000 A 
ATOM      6  C   UNL     1       1.674   2.568  18.277  0.00  0.00    +0.000 C 
ATOM      7  C   UNL     1       3.203   4.237  19.517  0.00  0.00    +0.000 A 
ATOM      8  S   UNL     1       4.774   4.890  19.277  0.00  0.00    +0.000 S 
ATOM      9  H   UNL     1       6.657   4.916  17.315  0.00  0.00    +0.000 HD
ENDROOT
BRANCH   7  10
ATOM     10  C   UNL     1       2.367   4.620  20.647  0.00  0.00    +0.000 C 
ATOM     11  O   UNL     1       2.181   3.885  21.616  0.00  0.00    +0.000 OA
BRANCH  10  12
ATOM     12  C   UNL     1       1.739   5.976  20.635  0.00  0.00    +0.000 C 
ATOM     13  C   UNL     1       2.293   7.024  20.007  0.00  0.00    +0.000 C 
BRANCH  13  14
ATOM     14  C   UNL     1       1.610   8.275  20.020  0.00  0.00    +0.000 A 
ATOM     15  N   UNL     1       1.375   9.044  18.970  0.00  0.00    +0.000 NA
ATOM     16  C   UNL     1       0.710  10.190  19.338  0.00  0.00    +0.000 A 
ATOM     17  C   UNL     1       0.427  10.305  20.680  0.00  0.00    +0.000 A 
ATOM     18  S   UNL     1       1.010   8.924  21.510  0.00  0.00    +0.000 S 
ENDBRANCH  13  14
ENDBRANCH  10  12
ENDBRANCH   7  10
TORSDOF 3
ENDMDL
MODEL 4
REMARK VINA RESULT:      -6.0      2.640      2.940
REMARK  Name = 
REMARK  5 active torsions:
REMARK  status: ('A' for Active; 'I' for Inactive)
REMARK    1  A    between atoms: C_1  and  N_2
REMARK    2  A    between atoms: C_5  and  C_6
REMARK    3  A    between atoms: C_7  and  C_8
REMARK    4  A    between atoms: C_8  and  C_10
REMARK    5  A    between atoms: C_11  and  C_12
REMARK                            x       y       z     vdW  Elec       q    Type
REMARK                         _______ _______ _______ _____ _____    ______ ____
ROOT
ATOM      1  C   UNL     1       6.909   4.026  12.804  0.00  0.00    +0.000 C 
ATOM      2  N   UNL     1       5.713   3.944  13.615  0.00  0.00    +0.000 N 
ATOM      3  C   UNL     1       5.782   4.441  14.870  0.00  0.00    +0.000 A 
ATOM      4  N   UNL     1       6.600   5.384  15.266  0.00  0.00    +0.000 NA
ATOM      5  C   UNL     1       6.450   5.634  16.623  0.00  0.00    +0.000 A 
ATOM      6  C   UNL     1       7.303   6.693  17.223  0.00  0.00    +0.000 C 
ATOM      7  C   UNL     1       5.490   4.856  17.255  0.00  0.00    +0.000 A 
ATOM      8  S   UNL     1       4.771   3.809  16.099  0.00  0.00    +0.000 S 
ATOM      9  H   UNL     1       5.195   3.079  13.514  0.00  0.00    +0.000 HD
ENDROOT
BRANCH   7  10
ATOM     10  C   UNL     1       5.119   4.832  18.663  0.00  0.00    +0.000 C 
ATOM     11  O   UNL     1       5.580   4.015  19.459  0.00  0.00    +0.000 OA
BRANCH  10  12
ATOM     12  C   UNL     1       4.161   5.866  19.160  0.00  0.00    +0.000 C 
ATOM     13  C   UNL     1       3.437   6.637  18.334  0.00  0.00    +0.000 C 
BRANCH  13  14
ATOM     14  C   UNL     1       2.524   7.578  18.893  0.00  0.00    +0.000 A 
ATOM     15  N   UNL     1       2.074   7.579  20.137  0.00  0.00    +0.000 NA
ATOM     16  C   UNL     1       1.193   8.615  20.340  0.00  0.00    +0.000 A 
ATOM     17  C   UNL     1       0.963   9.420  19.248  0.00  0.00    +0.000 A 
ATOM     18  S   UNL     1       1.892   8.864  17.919  0.00  0.00    +0.000 S 
ENDBRANCH  13  14
ENDBRANCH  10  12
ENDBRANCH   7  10
TORSDOF 3
ENDMDL
MODEL 5
REMARK VINA RESULT:      -6.0      1.746      6.284
REMARK  Name = 
REMARK  5 active torsions:
REMARK  status: ('A' for Active; 'I' for Inactive)
REMARK    1  A    between atoms: C_1  and  N_2
REMARK    2  A    between atoms: C_5  and  C_6
REMARK    3  A    between atoms: C_7  and  C_8
REMARK    4  A    between atoms: C_8  and  C_10
REMARK    5  A    between atoms: C_11  and  C_12
REMARK                            x       y       z     vdW  Elec       q    Type
REMARK                         _______ _______ _______ _____ _____    ______ ____
ROOT
ATOM      1  C   UNL     1       0.574   2.054  18.610  0.00  0.00    +0.000 C 
ATOM      2  N   UNL     1       1.940   1.880  19.053  0.00  0.00    +0.000 N 
ATOM      3  C   UNL     1       2.765   2.945  18.947  0.00  0.00    +0.000 A 
ATOM      4  N   UNL     1       2.386   4.199  18.952  0.00  0.00    +0.000 NA
ATOM      5  C   UNL     1       3.470   5.047  18.780  0.00  0.00    +0.000 A 
ATOM      6  C   UNL     1       3.204   6.510  18.779  0.00  0.00    +0.000 C 
ATOM      7  C   UNL     1       4.694   4.406  18.646  0.00  0.00    +0.000 A 
ATOM      8  S   UNL     1       4.450   2.709  18.751  0.00  0.00    +0.000 S 
ATOM      9  H   UNL     1       2.349   0.984  18.814  0.00  0.00    +0.000 HD
ENDROOT
BRANCH   7  10
ATOM     10  C   UNL     1       6.008   4.989  18.408  0.00  0.00    +0.000 C 
ATOM     11  O   UNL     1       6.650   5.563  19.287  0.00  0.00    +0.000 OA
BRANCH  10  12
ATOM     12  C   UNL     1       6.606   4.854  17.045  0.00  0.00    +0.000 C 
ATOM     13  C   UNL     1       5.874   4.942  15.923  0.00  0.00    +0.000 C 
BRANCH  13  14
ATOM     14  C   UNL     1       6.531   4.830  14.663  0.00  0.00    +0.000 A 
ATOM     15  N   UNL     1       7.612   5.493  14.289  0.00  0.00    +0.000 NA
ATOM     16  C   UNL     1       7.972   5.163  13.003  0.00  0.00    +0.000 A 
ATOM     17  C   UNL     1       7.165   4.237  12.382  0.00  0.00    +0.000 A 
ATOM     18  S   UNL     1       5.914   3.757  13.450  0.00  0.00    +0.000 S 
ENDBRANCH  13  14
ENDBRANCH  10  12
ENDBRANCH   7  10
TORSDOF 3
ENDMDL
MODEL 6
REMARK VINA RESULT:      -5.9      1.022      1.070
REMARK  Name = 
REMARK  5 active torsions:
REMARK  status: ('A' for Active; 'I' for Inactive)
REMARK    1  A    between atoms: C_1  and  N_2
REMARK    2  A    between atoms: C_5  and  C_6
REMARK    3  A    between atoms: C_7  and  C_8
REMARK    4  A    between atoms: C_8  and  C_10
REMARK    5  A    between atoms: C_11  and  C_12
REMARK                            x       y       z     vdW  Elec       q    Type
REMARK                         _______ _______ _______ _____ _____    ______ ____
ROOT
ATOM      1  C   UNL     1       7.065   4.138  12.425  0.00  0.00    +0.000 C 
ATOM      2  N   UNL     1       6.165   3.714  13.476  0.00  0.00    +0.000 N 
ATOM      3  C   UNL     1       6.322   4.285  14.691  0.00  0.00    +0.000 A 
ATOM      4  N   UNL     1       6.835   5.470  14.909  0.00  0.00    +0.000 NA
ATOM      5  C   UNL     1       6.896   5.742  16.268  0.00  0.00    +0.000 A 
ATOM      6  C   UNL     1       7.444   7.061  16.680  0.00  0.00    +0.000 C 
ATOM      7  C   UNL     1       6.411   4.731  17.086  0.00  0.00    +0.000 A 
ATOM      8  S   UNL     1       5.866   3.431  16.105  0.00  0.00    +0.000 S 
ATOM      9  H   UNL     1       5.962   2.721  13.481  0.00  0.00    +0.000 HD
ENDROOT
BRANCH   7  10
ATOM     10  C   UNL     1       6.373   4.675  18.542  0.00  0.00    +0.000 C 
ATOM     11  O   UNL     1       7.305   5.060  19.247  0.00  0.00    +0.000 OA
BRANCH  10  12
ATOM     12  C   UNL     1       5.135   4.156  19.197  0.00  0.00    +0.000 C 
ATOM     13  C   UNL     1       3.955   4.792  19.121  0.00  0.00    +0.000 C 
BRANCH  13  14
ATOM     14  C   UNL     1       2.817   4.210  19.751  0.00  0.00    +0.000 A 
ATOM     15  N   UNL     1       1.574   4.654  19.673  0.00  0.00    +0.000 NA
ATOM     16  C   UNL     1       0.724   3.870  20.417  0.00  0.00    +0.000 A 
ATOM     17  C   UNL     1       1.313   2.813  21.071  0.00  0.00    +0.000 A 
ATOM     18  S   UNL     1       2.994   2.796  20.736  0.00  0.00    +0.000 S 
ENDBRANCH  13  14
ENDBRANCH  10  12
ENDBRANCH   7  10
TORSDOF 3
ENDMDL
MODEL 7
REMARK VINA RESULT:      -5.7      2.351      3.223
REMARK  Name = 
REMARK  5 active torsions:
REMARK  status: ('A' for Active; 'I' for Inactive)
REMARK    1  A    between atoms: C_1  and  N_2
REMARK    2  A    between atoms: C_5  and  C_6
REMARK    3  A    between atoms: C_7  and  C_8
REMARK    4  A    between atoms: C_8  and  C_10
REMARK    5  A    between atoms: C_11  and  C_12
REMARK                            x       y       z     vdW  Elec       q    Type
REMARK                         _______ _______ _______ _____ _____    ______ ____
ROOT
ATOM      1  C   UNL     1       8.368   9.205  18.607  0.00  0.00    +0.000 C 
ATOM      2  N   UNL     1       8.601   7.780  18.518  0.00  0.00    +0.000 N 
ATOM      3  C   UNL     1       7.688   7.045  17.844  0.00  0.00    +0.000 A 
ATOM      4  N   UNL     1       6.913   7.494  16.888  0.00  0.00    +0.000 NA
ATOM      5  C   UNL     1       6.058   6.500  16.434  0.00  0.00    +0.000 A 
ATOM      6  C   UNL     1       5.120   6.851  15.334  0.00  0.00    +0.000 C 
ATOM      7  C   UNL     1       6.202   5.274  17.068  0.00  0.00    +0.000 A 
ATOM      8  S   UNL     1       7.448   5.397  18.244  0.00  0.00    +0.000 S 
ATOM      9  H   UNL     1       8.962   7.358  19.365  0.00  0.00    +0.000 HD
ENDROOT
BRANCH   7  10
ATOM     10  C   UNL     1       5.441   4.049  16.868  0.00  0.00    +0.000 C 
ATOM     11  O   UNL     1       5.776   3.181  16.062  0.00  0.00    +0.000 OA
BRANCH  10  12
ATOM     12  C   UNL     1       4.220   3.829  17.702  0.00  0.00    +0.000 C 
ATOM     13  C   UNL     1       4.227   3.952  19.039  0.00  0.00    +0.000 C 
BRANCH  13  14
ATOM     14  C   UNL     1       3.010   3.754  19.754  0.00  0.00    +0.000 A 
ATOM     15  N   UNL     1       1.874   4.399  19.548  0.00  0.00    +0.000 NA
ATOM     16  C   UNL     1       0.903   3.978  20.426  0.00  0.00    +0.000 A 
ATOM     17  C   UNL     1       1.291   3.000  21.314  0.00  0.00    +0.000 A 
ATOM     18  S   UNL     1       2.931   2.588  21.033  0.00  0.00    +0.000 S 
ENDBRANCH  13  14
ENDBRANCH  10  12
ENDBRANCH   7  10
TORSDOF 3
ENDMDL
MODEL 8
REMARK VINA RESULT:      -5.7      1.845      6.380
REMARK  Name = 
REMARK  5 active torsions:
REMARK  status: ('A' for Active; 'I' for Inactive)
REMARK    1  A    between atoms: C_1  and  N_2
REMARK    2  A    between atoms: C_5  and  C_6
REMARK    3  A    between atoms: C_7  and  C_8
REMARK    4  A    between atoms: C_8  and  C_10
REMARK    5  A    between atoms: C_11  and  C_12
REMARK                            x       y       z     vdW  Elec       q    Type
REMARK                         _______ _______ _______ _____ _____    ______ ____
ROOT
ATOM      1  C   UNL     1       0.725   3.060  19.956  0.00  0.00    +0.000 C 
ATOM      2  N   UNL     1       2.138   2.932  20.241  0.00  0.00    +0.000 N 
ATOM      3  C   UNL     1       2.976   3.781  19.606  0.00  0.00    +0.000 A 
ATOM      4  N   UNL     1       2.654   4.971  19.162  0.00  0.00    +0.000 NA
ATOM      5  C   UNL     1       3.728   5.568  18.518  0.00  0.00    +0.000 A 
ATOM      6  C   UNL     1       3.524   6.935  17.968  0.00  0.00    +0.000 C 
ATOM      7  C   UNL     1       4.885   4.804  18.485  0.00  0.00    +0.000 A 
ATOM      8  S   UNL     1       4.595   3.316  19.293  0.00  0.00    +0.000 S 
ATOM      9  H   UNL     1       2.465   1.977  20.327  0.00  0.00    +0.000 HD
ENDROOT
BRANCH   7  10
ATOM     10  C   UNL     1       6.163   5.110  17.857  0.00  0.00    +0.000 C 
ATOM     11  O   UNL     1       7.045   5.756  18.423  0.00  0.00    +0.000 OA
BRANCH  10  12
ATOM     12  C   UNL     1       6.418   4.588  16.480  0.00  0.00    +0.000 C 
ATOM     13  C   UNL     1       5.754   5.036  15.404  0.00  0.00    +0.000 C 
BRANCH  13  14
ATOM     14  C   UNL     1       6.081   4.505  14.122  0.00  0.00    +0.000 A 
ATOM     15  N   UNL     1       5.357   3.641  13.431  0.00  0.00    +0.000 NA
ATOM     16  C   UNL     1       5.972   3.322  12.243  0.00  0.00    +0.000 A 
ATOM     17  C   UNL     1       7.177   3.945  12.015  0.00  0.00    +0.000 A 
ATOM     18  S   UNL     1       7.550   4.975  13.333  0.00  0.00    +0.000 S 
ENDBRANCH  13  14
ENDBRANCH  10  12
ENDBRANCH   7  10
TORSDOF 3
ENDMDL
MODEL 9
REMARK VINA RESULT:      -5.7      4.030      5.533
REMARK  Name = 
REMARK  5 active torsions:
REMARK  status: ('A' for Active; 'I' for Inactive)
REMARK    1  A    between atoms: C_1  and  N_2
REMARK    2  A    between atoms: C_5  and  C_6
REMARK    3  A    between atoms: C_7  and  C_8
REMARK    4  A    between atoms: C_8  and  C_10
REMARK    5  A    between atoms: C_11  and  C_12
REMARK                            x       y       z     vdW  Elec       q    Type
REMARK                         _______ _______ _______ _____ _____    ______ ____
ROOT
ATOM      1  C   UNL     1       4.664   0.940  19.649  0.00  0.00    +0.000 C 
ATOM      2  N   UNL     1       5.016   2.303  19.981  0.00  0.00    +0.000 N 
ATOM      3  C   UNL     1       4.355   3.289  19.334  0.00  0.00    +0.000 A 
ATOM      4  N   UNL     1       3.152   3.185  18.826  0.00  0.00    +0.000 NA
ATOM      5  C   UNL     1       2.780   4.359  18.189  0.00  0.00    +0.000 A 
ATOM      6  C   UNL     1       1.428   4.405  17.570  0.00  0.00    +0.000 C 
ATOM      7  C   UNL     1       3.731   5.369  18.226  0.00  0.00    +0.000 A 
ATOM      8  S   UNL     1       5.105   4.810  19.092  0.00  0.00    +0.000 S 
ATOM      9  H   UNL     1       6.008   2.460  20.121  0.00  0.00    +0.000 HD
ENDROOT
BRANCH   7  10
ATOM     10  C   UNL     1       3.679   6.694  17.623  0.00  0.00    +0.000 C 
ATOM     11  O   UNL     1       4.402   7.026  16.684  0.00  0.00    +0.000 OA
BRANCH  10  12
ATOM     12  C   UNL     1       2.683   7.674  18.153  0.00  0.00    +0.000 C 
ATOM     13  C   UNL     1       2.285   7.679  19.435  0.00  0.00    +0.000 C 
BRANCH  13  14
ATOM     14  C   UNL     1       1.353   8.669  19.863  0.00  0.00    +0.000 A 
ATOM     15  N   UNL     1       0.807   9.602  19.102  0.00  0.00    +0.000 NA
ATOM     16  C   UNL     1      -0.034  10.405  19.836  0.00  0.00    +0.000 A 
ATOM     17  C   UNL     1      -0.140  10.088  21.171  0.00  0.00    +0.000 A 
ATOM     18  S   UNL     1       0.845   8.729  21.518  0.00  0.00    +0.000 S 
ENDBRANCH  13  14
ENDBRANCH  10  12
ENDBRANCH   7  10
TORSDOF 3
ENDMDL
