MODEL 1
REMARK VINA RESULT:      -8.7      0.000      0.000
REMARK  Name = 
REMARK  4 active torsions:
REMARK  status: ('A' for Active; 'I' for Inactive)
REMARK    1  A    between atoms: C_2  and  C_4
REMARK    2  A    between atoms: C_10  and  N_11
REMARK    3  A    between atoms: C_12  and  C_14
REMARK    4  A    between atoms: C_15  and  C_16
REMARK                            x       y       z     vdW  Elec       q    Type
REMARK                         _______ _______ _______ _____ _____    ______ ____
ROOT
ATOM      1  N   UNL     1       7.033   6.339  18.562  0.00  0.00    +0.000 N 
ATOM      2  C   UNL     1       7.354   7.453  17.811  0.00  0.00    +0.000 C 
ATOM      3  O   UNL     1       6.754   7.861  16.822  0.00  0.00    +0.000 OA
ATOM      4  H   UNL     1       7.510   6.207  19.455  0.00  0.00    +0.000 HD
ENDROOT
BRANCH   1  11
ATOM      5  C   UNL     1       5.869   4.626  17.217  0.00  0.00    +0.000 A 
ATOM      6  C   UNL     1       4.806   3.712  17.070  0.00  0.00    +0.000 A 
ATOM      7  C   UNL     1       3.770   3.686  17.999  0.00  0.00    +0.000 A 
ATOM      8 BR   UNL     1       2.355   2.450  17.801  0.00  0.00    +0.000 Br
ATOM      9  C   UNL     1       3.772   4.562  19.074  0.00  0.00    +0.000 A 
ATOM     10  C   UNL     1       4.833   5.452  19.237  0.00  0.00    +0.000 A 
ATOM     11  C   UNL     1       5.916   5.484  18.342  0.00  0.00    +0.000 A 
BRANCH   5  13
ATOM     12  N   UNL     1       6.682   5.185  14.975  0.00  0.00    +0.000 N 
ATOM     13  C   UNL     1       6.957   4.629  16.197  0.00  0.00    +0.000 C 
ATOM     14  O   UNL     1       8.075   4.191  16.447  0.00  0.00    +0.000 OA
ATOM     15  H   UNL     1       7.437   5.229  14.303  0.00  0.00    +0.000 HD
ATOM     16  H   UNL     1       5.875   5.769  14.800  0.00  0.00    +0.000 HD
ENDBRANCH   5  13
ENDBRANCH   1  11
BRANCH   2  17
ATOM     17  C   UNL     1       8.508   8.228  18.347  0.00  0.00    +0.000 C 
ATOM     18  C   UNL     1       8.442   9.569  18.269  0.00  0.00    +0.000 C 
BRANCH  18  19
ATOM     19  C   UNL     1       9.422  10.527  18.798  0.00  0.00    +0.000 A 
ATOM     20  C   UNL     1       9.531  10.798  20.166  0.00  0.00    +0.000 A 
ATOM     21  C   UNL     1      10.388  11.803  20.626  0.00  0.00    +0.000 A 
ATOM     22  C   UNL     1      11.136  12.551  19.719  0.00  0.00    +0.000 A 
ATOM     23  C   UNL     1      11.033  12.288  18.357  0.00  0.00    +0.000 A 
ATOM     24 BR   UNL     1      12.031  13.317  17.125  0.00  0.00    +0.000 Br
ATOM     25  C   UNL     1      10.180  11.284  17.892  0.00  0.00    +0.000 A 
ENDBRANCH  18  19
ENDBRANCH   2  17
TORSDOF 4
ENDMDL
MODEL 2
REMARK VINA RESULT:      -8.2      1.532      1.640
REMARK  Name = 
REMARK  4 active torsions:
REMARK  status: ('A' for Active; 'I' for Inactive)
REMARK    1  A    between atoms: C_2  and  C_4
REMARK    2  A    between atoms: C_10  and  N_11
REMARK    3  A    between atoms: C_12  and  C_14
REMARK    4  A    between atoms: C_15  and  C_16
REMARK                            x       y       z     vdW  Elec       q    Type
REMARK                         _______ _______ _______ _____ _____    ______ ____
ROOT
ATOM      1  N   UNL     1       6.296   7.405  17.044  0.00  0.00    +0.000 N 
ATOM      2  C   UNL     1       7.449   7.533  17.792  0.00  0.00    +0.000 C 
ATOM      3  O   UNL     1       7.841   6.764  18.665  0.00  0.00    +0.000 OA
ATOM      4  H   UNL     1       6.174   8.019  16.238  0.00  0.00    +0.000 HD
ENDROOT
BRANCH   1  11
ATOM      5  C   UNL     1       5.650   5.080  16.513  0.00  0.00    +0.000 A 
ATOM      6  C   UNL     1       4.772   3.992  16.693  0.00  0.00    +0.000 A 
ATOM      7  C   UNL     1       3.600   4.151  17.425  0.00  0.00    +0.000 A 
ATOM      8 BR   UNL     1       2.435   2.684  17.671  0.00  0.00    +0.000 Br
ATOM      9  C   UNL     1       3.283   5.381  17.981  0.00  0.00    +0.000 A 
ATOM     10  C   UNL     1       4.159   6.454  17.827  0.00  0.00    +0.000 A 
ATOM     11  C   UNL     1       5.370   6.325  17.126  0.00  0.00    +0.000 A 
BRANCH   5  13
ATOM     12  N   UNL     1       6.855   5.197  14.384  0.00  0.00    +0.000 N 
ATOM     13  C   UNL     1       6.893   4.874  15.716  0.00  0.00    +0.000 C 
ATOM     14  O   UNL     1       7.930   4.472  16.232  0.00  0.00    +0.000 OA
ATOM     15  H   UNL     1       7.714   5.102  13.857  0.00  0.00    +0.000 HD
ATOM     16  H   UNL     1       6.119   5.752  13.968  0.00  0.00    +0.000 HD
ENDBRANCH   5  13
ENDBRANCH   1  11
BRANCH   2  17
ATOM     17  C   UNL     1       8.289   8.703  17.407  0.00  0.00    +0.000 C 
ATOM     18  C   UNL     1       8.433   9.686  18.314  0.00  0.00    +0.000 C 
BRANCH  18  19
ATOM     19  C   UNL     1       9.269  10.885  18.180  0.00  0.00    +0.000 A 
ATOM     20  C   UNL     1      10.665  10.831  18.263  0.00  0.00    +0.000 A 
ATOM     21  C   UNL     1      11.425  12.004  18.253  0.00  0.00    +0.000 A 
ATOM     22  C   UNL     1      10.793  13.243  18.170  0.00  0.00    +0.000 A 
ATOM     23  C   UNL     1       9.407  13.307  18.087  0.00  0.00    +0.000 A 
ATOM     24 BR   UNL     1       8.548  14.989  17.996  0.00  0.00    +0.000 Br
ATOM     25  C   UNL     1       8.642  12.137  18.094  0.00  0.00    +0.000 A 
ENDBRANCH  18  19
ENDBRANCH   2  17
TORSDOF 4
ENDMDL
MODEL 3
REMARK VINA RESULT:      -8.2      1.332      1.495
REMARK  Name = 
REMARK  4 active torsions:
REMARK  status: ('A' for Active; 'I' for Inactive)
REMARK    1  A    between atoms: C_2  and  C_4
REMARK    2  A    between atoms: C_10  and  N_11
REMARK    3  A    between atoms: C_12  and  C_14
REMARK    4  A    between atoms: C_15  and  C_16
REMARK                            x       y       z     vdW  Elec       q    Type
REMARK                         _______ _______ _______ _____ _____    ______ ____
ROOT
ATOM      1  N   UNL     1       6.211   7.385  18.086  0.00  0.00    +0.000 N 
ATOM      2  C   UNL     1       7.321   7.652  17.310  0.00  0.00    +0.000 C 
ATOM      3  O   UNL     1       7.793   6.926  16.440  0.00  0.00    +0.000 OA
ATOM      4  H   UNL     1       5.825   8.142  18.652  0.00  0.00    +0.000 HD
ENDROOT
BRANCH   1  11
ATOM      5  C   UNL     1       5.892   4.946  18.314  0.00  0.00    +0.000 A 
ATOM      6  C   UNL     1       5.035   3.827  18.309  0.00  0.00    +0.000 A 
ATOM      7  C   UNL     1       3.704   3.965  17.928  0.00  0.00    +0.000 A 
ATOM      8 BR   UNL     1       2.559   2.462  17.936  0.00  0.00    +0.000 Br
ATOM      9  C   UNL     1       3.210   5.203  17.546  0.00  0.00    +0.000 A 
ATOM     10  C   UNL     1       4.047   6.317  17.572  0.00  0.00    +0.000 A 
ATOM     11  C   UNL     1       5.387   6.227  17.986  0.00  0.00    +0.000 A 
BRANCH   5  13
ATOM     12  N   UNL     1       8.166   4.185  17.813  0.00  0.00    +0.000 N 
ATOM     13  C   UNL     1       7.314   4.757  18.721  0.00  0.00    +0.000 C 
ATOM     14  O   UNL     1       7.728   5.137  19.812  0.00  0.00    +0.000 OA
ATOM     15  H   UNL     1       9.140   4.104  18.074  0.00  0.00    +0.000 HD
ATOM     16  H   UNL     1       7.942   4.081  16.831  0.00  0.00    +0.000 HD
ENDBRANCH   5  13
ENDBRANCH   1  11
BRANCH   2  17
ATOM     17  C   UNL     1       7.916   8.997  17.553  0.00  0.00    +0.000 C 
ATOM     18  C   UNL     1       8.683   9.144  18.647  0.00  0.00    +0.000 C 
BRANCH  18  19
ATOM     19  C   UNL     1       9.426  10.348  19.041  0.00  0.00    +0.000 A 
ATOM     20  C   UNL     1       9.510  10.767  20.373  0.00  0.00    +0.000 A 
ATOM     21  C   UNL     1      10.120  11.982  20.699  0.00  0.00    +0.000 A 
ATOM     22  C   UNL     1      10.644  12.792  19.694  0.00  0.00    +0.000 A 
ATOM     23  C   UNL     1      10.566  12.383  18.368  0.00  0.00    +0.000 A 
ATOM     24 BR   UNL     1      11.257  13.491  17.001  0.00  0.00    +0.000 Br
ATOM     25  C   UNL     1       9.958  11.169  18.035  0.00  0.00    +0.000 A 
ENDBRANCH  18  19
ENDBRANCH   2  17
TORSDOF 4
ENDMDL
MODEL 4
REMARK VINA RESULT:      -8.1      1.575      1.846
REMARK  Name = 
REMARK  4 active torsions:
REMARK  status: ('A' for Active; 'I' for Inactive)
REMARK    1  A    between atoms: C_2  and  C_4
REMARK    2  A    between atoms: C_10  and  N_11
REMARK    3  A    between atoms: C_12  and  C_14
REMARK    4  A    between atoms: C_15  and  C_16
REMARK                            x       y       z     vdW  Elec       q    Type
REMARK                         _______ _______ _______ _____ _____    ______ ____
ROOT
ATOM      1  N   UNL     1       6.110   7.439  17.346  0.00  0.00    +0.000 N 
ATOM      2  C   UNL     1       7.356   7.493  17.940  0.00  0.00    +0.000 C 
ATOM      3  O   UNL     1       7.889   6.603  18.596  0.00  0.00    +0.000 OA
ATOM      4  H   UNL     1       5.857   8.179  16.690  0.00  0.00    +0.000 HD
ENDROOT
BRANCH   1  11
ATOM      5  C   UNL     1       5.530   5.157  16.598  0.00  0.00    +0.000 A 
ATOM      6  C   UNL     1       4.707   4.018  16.702  0.00  0.00    +0.000 A 
ATOM      7  C   UNL     1       3.572   4.043  17.505  0.00  0.00    +0.000 A 
ATOM      8 BR   UNL     1       2.482   2.506  17.647  0.00  0.00    +0.000 Br
ATOM      9  C   UNL     1       3.237   5.190  18.207  0.00  0.00    +0.000 A 
ATOM     10  C   UNL     1       4.059   6.313  18.128  0.00  0.00    +0.000 A 
ATOM     11  C   UNL     1       5.234   6.315  17.357  0.00  0.00    +0.000 A 
BRANCH   5  13
ATOM     12  N   UNL     1       7.833   4.427  16.195  0.00  0.00    +0.000 N 
ATOM     13  C   UNL     1       6.734   5.095  15.721  0.00  0.00    +0.000 C 
ATOM     14  O   UNL     1       6.737   5.583  14.596  0.00  0.00    +0.000 OA
ATOM     15  H   UNL     1       8.630   4.345  15.578  0.00  0.00    +0.000 HD
ATOM     16  H   UNL     1       7.804   3.808  16.995  0.00  0.00    +0.000 HD
ENDBRANCH   5  13
ENDBRANCH   1  11
BRANCH   2  17
ATOM     17  C   UNL     1       8.101   8.753  17.663  0.00  0.00    +0.000 C 
ATOM     18  C   UNL     1       8.571   9.438  18.720  0.00  0.00    +0.000 C 
BRANCH  18  19
ATOM     19  C   UNL     1       9.391  10.656  18.681  0.00  0.00    +0.000 A 
ATOM     20  C   UNL     1      10.326  10.889  17.666  0.00  0.00    +0.000 A 
ATOM     21  C   UNL     1      11.177  11.997  17.723  0.00  0.00    +0.000 A 
ATOM     22  C   UNL     1      11.105  12.877  18.801  0.00  0.00    +0.000 A 
ATOM     23  C   UNL     1      10.179  12.653  19.813  0.00  0.00    +0.000 A 
ATOM     24 BR   UNL     1      10.096  13.834  21.287  0.00  0.00    +0.000 Br
ATOM     25  C   UNL     1       9.325  11.548  19.761  0.00  0.00    +0.000 A 
ENDBRANCH  18  19
ENDBRANCH   2  17
TORSDOF 4
ENDMDL
MODEL 5
REMARK VINA RESULT:      -7.9      1.134      1.134
REMARK  Name = 
REMARK  4 active torsions:
REMARK  status: ('A' for Active; 'I' for Inactive)
REMARK    1  A    between atoms: C_2  and  C_4
REMARK    2  A    between atoms: C_10  and  N_11
REMARK    3  A    between atoms: C_12  and  C_14
REMARK    4  A    between atoms: C_15  and  C_16
REMARK                            x       y       z     vdW  Elec       q    Type
REMARK                         _______ _______ _______ _____ _____    ______ ____
ROOT
ATOM      1  N   UNL     1       6.529   7.532  17.386  0.00  0.00    +0.000 N 
ATOM      2  C   UNL     1       7.649   7.502  18.193  0.00  0.00    +0.000 C 
ATOM      3  O   UNL     1       7.959   6.609  18.976  0.00  0.00    +0.000 OA
ATOM      4  H   UNL     1       6.476   8.249  16.661  0.00  0.00    +0.000 HD
ENDROOT
BRANCH   1  11
ATOM      5  C   UNL     1       5.850   5.270  16.663  0.00  0.00    +0.000 A 
ATOM      6  C   UNL     1       4.903   4.226  16.669  0.00  0.00    +0.000 A 
ATOM      7  C   UNL     1       3.649   4.419  17.240  0.00  0.00    +0.000 A 
ATOM      8 BR   UNL     1       2.391   3.011  17.255  0.00  0.00    +0.000 Br
ATOM      9  C   UNL     1       3.318   5.642  17.805  0.00  0.00    +0.000 A 
ATOM     10  C   UNL     1       4.259   6.670  17.823  0.00  0.00    +0.000 A 
ATOM     11  C   UNL     1       5.548   6.503  17.290  0.00  0.00    +0.000 A 
BRANCH   5  13
ATOM     12  N   UNL     1       7.404   5.560  14.792  0.00  0.00    +0.000 N 
ATOM     13  C   UNL     1       7.180   5.027  16.035  0.00  0.00    +0.000 C 
ATOM     14  O   UNL     1       8.065   4.411  16.618  0.00  0.00    +0.000 OA
ATOM     15  H   UNL     1       8.323   5.435  14.390  0.00  0.00    +0.000 HD
ATOM     16  H   UNL     1       6.812   6.269  14.378  0.00  0.00    +0.000 HD
ENDBRANCH   5  13
ENDBRANCH   1  11
BRANCH   2  17
ATOM     17  C   UNL     1       8.563   8.663  17.997  0.00  0.00    +0.000 C 
ATOM     18  C   UNL     1       8.797   9.452  19.061  0.00  0.00    +0.000 C 
BRANCH  18  19
ATOM     19  C   UNL     1       9.715  10.596  19.118  0.00  0.00    +0.000 A 
ATOM     20  C   UNL     1      10.156  11.135  20.331  0.00  0.00    +0.000 A 
ATOM     21  C   UNL     1      10.931  12.299  20.353  0.00  0.00    +0.000 A 
ATOM     22  C   UNL     1      11.263  12.939  19.160  0.00  0.00    +0.000 A 
ATOM     23  C   UNL     1      10.829  12.410  17.950  0.00  0.00    +0.000 A 
ATOM     24 BR   UNL     1      11.261  13.289  16.333  0.00  0.00    +0.000 Br
ATOM     25  C   UNL     1      10.056  11.246  17.922  0.00  0.00    +0.000 A 
ENDBRANCH  18  19
ENDBRANCH   2  17
TORSDOF 4
ENDMDL
MODEL 6
REMARK VINA RESULT:      -7.9      1.731      1.930
REMARK  Name = 
REMARK  4 active torsions:
REMARK  status: ('A' for Active; 'I' for Inactive)
REMARK    1  A    between atoms: C_2  and  C_4
REMARK    2  A    between atoms: C_10  and  N_11
REMARK    3  A    between atoms: C_12  and  C_14
REMARK    4  A    between atoms: C_15  and  C_16
REMARK                            x       y       z     vdW  Elec       q    Type
REMARK                         _______ _______ _______ _____ _____    ______ ____
ROOT
ATOM      1  N   UNL     1       6.119   7.177  17.577  0.00  0.00    +0.000 N 
ATOM      2  C   UNL     1       7.411   7.462  17.975  0.00  0.00    +0.000 C 
ATOM      3  O   UNL     1       8.168   6.712  18.583  0.00  0.00    +0.000 OA
ATOM      4  H   UNL     1       5.660   7.822  16.933  0.00  0.00    +0.000 HD
ENDROOT
BRANCH   1  11
ATOM      5  C   UNL     1       5.157   5.090  16.671  0.00  0.00    +0.000 A 
ATOM      6  C   UNL     1       4.586   3.820  16.891  0.00  0.00    +0.000 A 
ATOM      7  C   UNL     1       4.255   3.413  18.179  0.00  0.00    +0.000 A 
ATOM      8 BR   UNL     1       3.501   1.705  18.465  0.00  0.00    +0.000 Br
ATOM      9  C   UNL     1       4.479   4.255  19.258  0.00  0.00    +0.000 A 
ATOM     10  C   UNL     1       5.065   5.502  19.050  0.00  0.00    +0.000 A 
ATOM     11  C   UNL     1       5.448   5.935  17.768  0.00  0.00    +0.000 A 
BRANCH   5  13
ATOM     12  N   UNL     1       5.892   4.512  14.407  0.00  0.00    +0.000 N 
ATOM     13  C   UNL     1       5.491   5.494  15.275  0.00  0.00    +0.000 C 
ATOM     14  O   UNL     1       5.374   6.654  14.894  0.00  0.00    +0.000 OA
ATOM     15  H   UNL     1       6.071   4.781  13.448  0.00  0.00    +0.000 HD
ATOM     16  H   UNL     1       5.772   3.524  14.593  0.00  0.00    +0.000 HD
ENDBRANCH   5  13
ENDBRANCH   1  11
BRANCH   2  17
ATOM     17  C   UNL     1       7.895   8.801  17.533  0.00  0.00    +0.000 C 
ATOM     18  C   UNL     1       8.639   9.506  18.402  0.00  0.00    +0.000 C 
BRANCH  18  19
ATOM     19  C   UNL     1       9.281  10.804  18.154  0.00  0.00    +0.000 A 
ATOM     20  C   UNL     1      10.672  10.955  18.141  0.00  0.00    +0.000 A 
ATOM     21  C   UNL     1      11.249  12.223  18.024  0.00  0.00    +0.000 A 
ATOM     22  C   UNL     1      10.439  13.352  17.928  0.00  0.00    +0.000 A 
ATOM     23  C   UNL     1       9.055  13.211  17.939  0.00  0.00    +0.000 A 
ATOM     24 BR   UNL     1       7.955  14.745  17.831  0.00  0.00    +0.000 Br
ATOM     25  C   UNL     1       8.473  11.947  18.055  0.00  0.00    +0.000 A 
ENDBRANCH  18  19
ENDBRANCH   2  17
TORSDOF 4
ENDMDL
MODEL 7
REMARK VINA RESULT:      -7.7      1.005      1.005
REMARK  Name = 
REMARK  4 active torsions:
REMARK  status: ('A' for Active; 'I' for Inactive)
REMARK    1  A    between atoms: C_2  and  C_4
REMARK    2  A    between atoms: C_10  and  N_11
REMARK    3  A    between atoms: C_12  and  C_14
REMARK    4  A    between atoms: C_15  and  C_16
REMARK                            x       y       z     vdW  Elec       q    Type
REMARK                         _______ _______ _______ _____ _____    ______ ____
ROOT
ATOM      1  N   UNL     1       7.378   6.443  17.989  0.00  0.00    +0.000 N 
ATOM      2  C   UNL     1       7.237   7.790  17.719  0.00  0.00    +0.000 C 
ATOM      3  O   UNL     1       6.199   8.365  17.405  0.00  0.00    +0.000 OA
ATOM      4  H   UNL     1       8.255   6.124  18.401  0.00  0.00    +0.000 HD
ENDROOT
BRANCH   1  11
ATOM      5  C   UNL     1       5.801   4.978  16.777  0.00  0.00    +0.000 A 
ATOM      6  C   UNL     1       4.833   3.954  16.799  0.00  0.00    +0.000 A 
ATOM      7  C   UNL     1       4.348   3.472  18.010  0.00  0.00    +0.000 A 
ATOM      8 BR   UNL     1       3.061   2.090  18.030  0.00  0.00    +0.000 Br
ATOM      9  C   UNL     1       4.809   3.999  19.207  0.00  0.00    +0.000 A 
ATOM     10  C   UNL     1       5.783   4.996  19.193  0.00  0.00    +0.000 A 
ATOM     11  C   UNL     1       6.325   5.483  17.991  0.00  0.00    +0.000 A 
BRANCH   5  13
ATOM     12  N   UNL     1       7.463   4.951  14.978  0.00  0.00    +0.000 N 
ATOM     13  C   UNL     1       6.291   5.474  15.459  0.00  0.00    +0.000 C 
ATOM     14  O   UNL     1       5.653   6.288  14.799  0.00  0.00    +0.000 OA
ATOM     15  H   UNL     1       7.767   5.253  14.061  0.00  0.00    +0.000 HD
ATOM     16  H   UNL     1       7.893   4.116  15.353  0.00  0.00    +0.000 HD
ENDBRANCH   5  13
ENDBRANCH   1  11
BRANCH   2  17
ATOM     17  C   UNL     1       8.488   8.576  17.910  0.00  0.00    +0.000 C 
ATOM     18  C   UNL     1       8.380   9.771  18.519  0.00  0.00    +0.000 C 
BRANCH  18  19
ATOM     19  C   UNL     1       9.482  10.674  18.878  0.00  0.00    +0.000 A 
ATOM     20  C   UNL     1       9.819  10.942  20.209  0.00  0.00    +0.000 A 
ATOM     21  C   UNL     1      10.791  11.899  20.518  0.00  0.00    +0.000 A 
ATOM     22  C   UNL     1      11.428  12.601  19.497  0.00  0.00    +0.000 A 
ATOM     23  C   UNL     1      11.099  12.340  18.171  0.00  0.00    +0.000 A 
ATOM     24 BR   UNL     1      11.948  13.308  16.786  0.00  0.00    +0.000 Br
ATOM     25  C   UNL     1      10.130  11.384  17.856  0.00  0.00    +0.000 A 
ENDBRANCH  18  19
ENDBRANCH   2  17
TORSDOF 4
ENDMDL
MODEL 8
REMARK VINA RESULT:      -7.7      6.863      9.409
REMARK  Name = 
REMARK  4 active torsions:
REMARK  status: ('A' for Active; 'I' for Inactive)
REMARK    1  A    between atoms: C_2  and  C_4
REMARK    2  A    between atoms: C_10  and  N_11
REMARK    3  A    between atoms: C_12  and  C_14
REMARK    4  A    between atoms: C_15  and  C_16
REMARK                            x       y       z     vdW  Elec       q    Type
REMARK                         _______ _______ _______ _____ _____    ______ ____
ROOT
ATOM      1  N   UNL     1       0.623   9.522  19.137  0.00  0.00    +0.000 N 
ATOM      2  C   UNL     1       1.689   9.848  18.321  0.00  0.00    +0.000 C 
ATOM      3  O   UNL     1       2.170  10.965  18.163  0.00  0.00    +0.000 OA
ATOM      4  H   UNL     1       0.431   8.535  19.308  0.00  0.00    +0.000 HD
ENDROOT
BRANCH   1  11
ATOM      5  C   UNL     1      -1.144  11.217  19.464  0.00  0.00    +0.000 A 
ATOM      6  C   UNL     1      -1.901  12.031  20.331  0.00  0.00    +0.000 A 
ATOM      7  C   UNL     1      -1.579  12.107  21.682  0.00  0.00    +0.000 A 
ATOM      8 BR   UNL     1      -2.607  13.190  22.838  0.00  0.00    +0.000 Br
ATOM      9  C   UNL     1      -0.507  11.386  22.187  0.00  0.00    +0.000 A 
ATOM     10  C   UNL     1       0.231  10.562  21.339  0.00  0.00    +0.000 A 
ATOM     11  C   UNL     1      -0.086  10.429  19.976  0.00  0.00    +0.000 A 
BRANCH   5  13
ATOM     12  N   UNL     1      -1.477  12.340  17.313  0.00  0.00    +0.000 N 
ATOM     13  C   UNL     1      -1.516  11.167  18.021  0.00  0.00    +0.000 C 
ATOM     14  O   UNL     1      -1.805  10.113  17.466  0.00  0.00    +0.000 OA
ATOM     15  H   UNL     1      -1.682  12.294  16.323  0.00  0.00    +0.000 HD
ATOM     16  H   UNL     1      -1.019  13.177  17.649  0.00  0.00    +0.000 HD
ENDBRANCH   5  13
ENDBRANCH   1  11
BRANCH   2  17
ATOM     17  C   UNL     1       2.313   8.673  17.649  0.00  0.00    +0.000 C 
ATOM     18  C   UNL     1       2.390   7.528  18.351  0.00  0.00    +0.000 C 
BRANCH  18  19
ATOM     19  C   UNL     1       2.891   6.236  17.867  0.00  0.00    +0.000 A 
ATOM     20  C   UNL     1       2.148   5.057  17.991  0.00  0.00    +0.000 A 
ATOM     21  C   UNL     1       2.703   3.825  17.631  0.00  0.00    +0.000 A 
ATOM     22  C   UNL     1       4.010   3.761  17.153  0.00  0.00    +0.000 A 
ATOM     23  C   UNL     1       4.755   4.928  17.026  0.00  0.00    +0.000 A 
ATOM     24 BR   UNL     1       6.536   4.840  16.397  0.00  0.00    +0.000 Br
ATOM     25  C   UNL     1       4.206   6.162  17.382  0.00  0.00    +0.000 A 
ENDBRANCH  18  19
ENDBRANCH   2  17
TORSDOF 4
ENDMDL
MODEL 9
REMARK VINA RESULT:      -7.7      5.710      7.919
REMARK  Name = 
REMARK  4 active torsions:
REMARK  status: ('A' for Active; 'I' for Inactive)
REMARK    1  A    between atoms: C_2  and  C_4
REMARK    2  A    between atoms: C_10  and  N_11
REMARK    3  A    between atoms: C_12  and  C_14
REMARK    4  A    between atoms: C_15  and  C_16
REMARK                            x       y       z     vdW  Elec       q    Type
REMARK                         _______ _______ _______ _____ _____    ______ ____
ROOT
ATOM      1  N   UNL     1       2.222   7.576  20.051  0.00  0.00    +0.000 N 
ATOM      2  C   UNL     1       2.044   6.210  20.145  0.00  0.00    +0.000 C 
ATOM      3  O   UNL     1       1.183   5.632  20.802  0.00  0.00    +0.000 OA
ATOM      4  H   UNL     1       2.865   7.930  19.341  0.00  0.00    +0.000 HD
ENDROOT
BRANCH   1  11
ATOM      5  C   UNL     1       0.737   9.544  19.899  0.00  0.00    +0.000 A 
ATOM      6  C   UNL     1      -0.148  10.448  20.520  0.00  0.00    +0.000 A 
ATOM      7  C   UNL     1      -0.327  10.420  21.900  0.00  0.00    +0.000 A 
ATOM      8 BR   UNL     1      -1.524  11.627  22.722  0.00  0.00    +0.000 Br
ATOM      9  C   UNL     1       0.368   9.505  22.676  0.00  0.00    +0.000 A 
ATOM     10  C   UNL     1       1.226   8.592  22.066  0.00  0.00    +0.000 A 
ATOM     11  C   UNL     1       1.406   8.564  20.672  0.00  0.00    +0.000 A 
BRANCH   5  13
ATOM     12  N   UNL     1      -0.172  10.000  17.671  0.00  0.00    +0.000 N 
ATOM     13  C   UNL     1       0.908   9.610  18.420  0.00  0.00    +0.000 C 
ATOM     14  O   UNL     1       1.984   9.368  17.884  0.00  0.00    +0.000 OA
ATOM     15  H   UNL     1      -0.038  10.090  16.672  0.00  0.00    +0.000 HD
ATOM     16  H   UNL     1      -0.992  10.439  18.067  0.00  0.00    +0.000 HD
ENDBRANCH   5  13
ENDBRANCH   1  11
BRANCH   2  17
ATOM     17  C   UNL     1       2.975   5.420  19.291  0.00  0.00    +0.000 C 
ATOM     18  C   UNL     1       4.119   6.016  18.910  0.00  0.00    +0.000 C 
BRANCH  18  19
ATOM     19  C   UNL     1       5.209   5.406  18.137  0.00  0.00    +0.000 A 
ATOM     20  C   UNL     1       6.496   5.249  18.664  0.00  0.00    +0.000 A 
ATOM     21  C   UNL     1       7.540   4.778  17.862  0.00  0.00    +0.000 A 
ATOM     22  C   UNL     1       7.307   4.468  16.524  0.00  0.00    +0.000 A 
ATOM     23  C   UNL     1       6.031   4.620  15.993  0.00  0.00    +0.000 A 
ATOM     24 BR   UNL     1       5.719   4.220  14.171  0.00  0.00    +0.000 Br
ATOM     25  C   UNL     1       4.983   5.089  16.789  0.00  0.00    +0.000 A 
ENDBRANCH  18  19
ENDBRANCH   2  17
TORSDOF 4
ENDMDL
