MODEL 1
REMARK VINA RESULT:      -8.7      0.000      0.000
REMARK  Name = 
REMARK  8 active torsions:
REMARK  status: ('A' for Active; 'I' for Inactive)
REMARK    1  A    between atoms: C_1  and  O_2
REMARK    2  A    between atoms: O_2  and  C_3
REMARK    3  A    between atoms: C_3  and  C_5
REMARK    4  A    between atoms: C_8  and  C_9
REMARK    5  A    between atoms: C_10  and  S_11
REMARK    6  A    between atoms: S_11  and  N_14
REMARK    7  A    between atoms: C_17  and  C_18
REMARK    8  A    between atoms: C_24  and  C_25
REMARK                            x       y       z     vdW  Elec       q    Type
REMARK                         _______ _______ _______ _____ _____    ______ ____
ROOT
ATOM      1  N   UNL     1       3.678   2.476  19.985  0.00  0.00    +0.000 N 
ATOM      2  C   UNL     1       4.278   3.232  18.949  0.00  0.00    +0.000 A 
ATOM      3  N   UNL     1       4.957   4.318  19.205  0.00  0.00    +0.000 NA
ATOM      4  C   UNL     1       5.548   4.794  18.031  0.00  0.00    +0.000 A 
ATOM      5  C   UNL     1       5.287   4.037  16.884  0.00  0.00    +0.000 A 
ATOM      6  S   UNL     1       4.311   2.680  17.344  0.00  0.00    +0.000 S 
ATOM      7  H   UNL     1       3.492   1.529  19.661  0.00  0.00    +0.000 HD
ENDROOT
BRANCH   4   8
ATOM      8  C   UNL     1       6.408   5.978  18.095  0.00  0.00    +0.000 A 
ATOM      9  C   UNL     1       7.542   5.966  18.923  0.00  0.00    +0.000 A 
ATOM     10  C   UNL     1       8.419   7.056  18.948  0.00  0.00    +0.000 A 
ATOM     11  C   UNL     1       8.179   8.164  18.138  0.00  0.00    +0.000 A 
ATOM     12  C   UNL     1       7.049   8.195  17.325  0.00  0.00    +0.000 A 
ATOM     13  C   UNL     1       6.155   7.122  17.326  0.00  0.00    +0.000 A 
ENDBRANCH   4   8
BRANCH   5  14
ATOM     14  C   UNL     1       5.725   4.153  15.476  0.00  0.00    +0.000 A 
ATOM     15  C   UNL     1       4.912   3.690  14.428  0.00  0.00    +0.000 A 
ATOM     16  C   UNL     1       5.348   3.725  13.100  0.00  0.00    +0.000 A 
ATOM     17  C   UNL     1       6.582   4.283  12.787  0.00  0.00    +0.000 A 
ATOM     18  C   UNL     1       7.387   4.789  13.803  0.00  0.00    +0.000 A 
ATOM     19  C   UNL     1       6.970   4.709  15.136  0.00  0.00    +0.000 A 
ENDBRANCH   5  14
BRANCH   1  20
ATOM     20  S   UNL     1       2.172   3.102  20.449  0.00  0.00    +0.000 S 
ATOM     21  O   UNL     1       2.261   3.231  21.894  0.00  0.00    +0.000 OA
ATOM     22  O   UNL     1       1.172   2.214  19.893  0.00  0.00    +0.000 OA
BRANCH  20  24
ATOM     23  C   UNL     1       1.962   5.749  20.614  0.00  0.00    +0.000 C 
ATOM     24  C   UNL     1       2.023   4.692  19.791  0.00  0.00    +0.000 C 
BRANCH  23  28
ATOM     25  C   UNL     1       1.397   9.752  19.191  0.00  0.00    +0.000 A 
ATOM     26  C   UNL     1       2.007   8.779  18.391  0.00  0.00    +0.000 A 
ATOM     27  C   UNL     1       2.180   7.478  18.871  0.00  0.00    +0.000 A 
ATOM     28  C   UNL     1       1.754   7.130  20.159  0.00  0.00    +0.000 A 
ATOM     29  C   UNL     1       1.126   8.100  20.949  0.00  0.00    +0.000 A 
ATOM     30  C   UNL     1       0.955   9.404  20.474  0.00  0.00    +0.000 A 
BRANCH  25  31
ATOM     31  C   UNL     1       1.234  11.123  18.638  0.00  0.00    +0.000 C 
ATOM     32  O   UNL     1       0.203  11.769  18.728  0.00  0.00    +0.000 OA
BRANCH  31  34
ATOM     33  C   UNL     1       2.664  12.920  18.196  0.00  0.00    +0.000 C 
ATOM     34  O   UNL     1       2.379  11.530  18.034  0.00  0.00    +0.000 OA
ENDBRANCH  31  34
ENDBRANCH  25  31
ENDBRANCH  23  28
ENDBRANCH  20  24
ENDBRANCH   1  20
TORSDOF 7
ENDMDL
MODEL 2
REMARK VINA RESULT:      -8.6      0.558      1.460
REMARK  Name = 
REMARK  8 active torsions:
REMARK  status: ('A' for Active; 'I' for Inactive)
REMARK    1  A    between atoms: C_1  and  O_2
REMARK    2  A    between atoms: O_2  and  C_3
REMARK    3  A    between atoms: C_3  and  C_5
REMARK    4  A    between atoms: C_8  and  C_9
REMARK    5  A    between atoms: C_10  and  S_11
REMARK    6  A    between atoms: S_11  and  N_14
REMARK    7  A    between atoms: C_17  and  C_18
REMARK    8  A    between atoms: C_24  and  C_25
REMARK                            x       y       z     vdW  Elec       q    Type
REMARK                         _______ _______ _______ _____ _____    ______ ____
ROOT
ATOM      1  N   UNL     1       3.755   2.614  20.145  0.00  0.00    +0.000 N 
ATOM      2  C   UNL     1       4.341   3.335  19.076  0.00  0.00    +0.000 A 
ATOM      3  N   UNL     1       5.001   4.443  19.284  0.00  0.00    +0.000 NA
ATOM      4  C   UNL     1       5.583   4.877  18.090  0.00  0.00    +0.000 A 
ATOM      5  C   UNL     1       5.334   4.066  16.977  0.00  0.00    +0.000 A 
ATOM      6  S   UNL     1       4.383   2.714  17.497  0.00  0.00    +0.000 S 
ATOM      7  H   UNL     1       3.587   1.650  19.863  0.00  0.00    +0.000 HD
ENDROOT
BRANCH   4   8
ATOM      8  C   UNL     1       6.421   6.078  18.101  0.00  0.00    +0.000 A 
ATOM      9  C   UNL     1       7.598   6.093  18.866  0.00  0.00    +0.000 A 
ATOM     10  C   UNL     1       8.453   7.201  18.838  0.00  0.00    +0.000 A 
ATOM     11  C   UNL     1       8.148   8.299  18.036  0.00  0.00    +0.000 A 
ATOM     12  C   UNL     1       6.976   8.303  17.285  0.00  0.00    +0.000 A 
ATOM     13  C   UNL     1       6.104   7.212  17.341  0.00  0.00    +0.000 A 
ENDBRANCH   4   8
BRANCH   5  14
ATOM     14  C   UNL     1       5.769   4.128  15.565  0.00  0.00    +0.000 A 
ATOM     15  C   UNL     1       7.044   4.610  15.224  0.00  0.00    +0.000 A 
ATOM     16  C   UNL     1       7.437   4.744  13.889  0.00  0.00    +0.000 A 
ATOM     17  C   UNL     1       6.585   4.339  12.868  0.00  0.00    +0.000 A 
ATOM     18  C   UNL     1       5.334   3.818  13.181  0.00  0.00    +0.000 A 
ATOM     19  C   UNL     1       4.923   3.728  14.516  0.00  0.00    +0.000 A 
ENDBRANCH   5  14
BRANCH   1  20
ATOM     20  S   UNL     1       2.238   3.233  20.583  0.00  0.00    +0.000 S 
ATOM     21  O   UNL     1       2.319   3.406  22.024  0.00  0.00    +0.000 OA
ATOM     22  O   UNL     1       1.254   2.314  20.050  0.00  0.00    +0.000 OA
BRANCH  20  24
ATOM     23  C   UNL     1       1.952   5.877  20.667  0.00  0.00    +0.000 C 
ATOM     24  C   UNL     1       2.070   4.799  19.876  0.00  0.00    +0.000 C 
BRANCH  23  28
ATOM     25  C   UNL     1       1.248   9.878  19.304  0.00  0.00    +0.000 A 
ATOM     26  C   UNL     1       0.877   9.477  20.592  0.00  0.00    +0.000 A 
ATOM     27  C   UNL     1       1.117   8.168  21.020  0.00  0.00    +0.000 A 
ATOM     28  C   UNL     1       1.724   7.238  20.167  0.00  0.00    +0.000 A 
ATOM     29  C   UNL     1       2.113   7.648  18.886  0.00  0.00    +0.000 A 
ATOM     30  C   UNL     1       1.870   8.955  18.452  0.00  0.00    +0.000 A 
BRANCH  25  31
ATOM     31  C   UNL     1       0.973  11.280  18.892  0.00  0.00    +0.000 C 
ATOM     32  O   UNL     1       1.748  12.204  19.080  0.00  0.00    +0.000 OA
BRANCH  31  34
ATOM     33  C   UNL     1      -0.965  12.559  18.607  0.00  0.00    +0.000 C 
ATOM     34  O   UNL     1      -0.241  11.369  18.291  0.00  0.00    +0.000 OA
ENDBRANCH  31  34
ENDBRANCH  25  31
ENDBRANCH  23  28
ENDBRANCH  20  24
ENDBRANCH   1  20
TORSDOF 7
ENDMDL
MODEL 3
REMARK VINA RESULT:      -8.4      0.455      1.137
REMARK  Name = 
REMARK  8 active torsions:
REMARK  status: ('A' for Active; 'I' for Inactive)
REMARK    1  A    between atoms: C_1  and  O_2
REMARK    2  A    between atoms: O_2  and  C_3
REMARK    3  A    between atoms: C_3  and  C_5
REMARK    4  A    between atoms: C_8  and  C_9
REMARK    5  A    between atoms: C_10  and  S_11
REMARK    6  A    between atoms: S_11  and  N_14
REMARK    7  A    between atoms: C_17  and  C_18
REMARK    8  A    between atoms: C_24  and  C_25
REMARK                            x       y       z     vdW  Elec       q    Type
REMARK                         _______ _______ _______ _____ _____    ______ ____
ROOT
ATOM      1  N   UNL     1       3.775   2.527  19.814  0.00  0.00    +0.000 N 
ATOM      2  C   UNL     1       4.387   3.276  18.778  0.00  0.00    +0.000 A 
ATOM      3  N   UNL     1       5.064   4.363  19.034  0.00  0.00    +0.000 NA
ATOM      4  C   UNL     1       5.668   4.829  17.863  0.00  0.00    +0.000 A 
ATOM      5  C   UNL     1       5.419   4.064  16.719  0.00  0.00    +0.000 A 
ATOM      6  S   UNL     1       4.438   2.711  17.178  0.00  0.00    +0.000 S 
ATOM      7  H   UNL     1       3.593   1.578  19.495  0.00  0.00    +0.000 HD
ENDROOT
BRANCH   4   8
ATOM      8  C   UNL     1       6.528   6.014  17.927  0.00  0.00    +0.000 A 
ATOM      9  C   UNL     1       6.171   7.167  17.210  0.00  0.00    +0.000 A 
ATOM     10  C   UNL     1       6.936   8.334  17.310  0.00  0.00    +0.000 A 
ATOM     11  C   UNL     1       8.058   8.366  18.137  0.00  0.00    +0.000 A 
ATOM     12  C   UNL     1       8.431   7.224  18.841  0.00  0.00    +0.000 A 
ATOM     13  C   UNL     1       7.688   6.048  18.713  0.00  0.00    +0.000 A 
ENDBRANCH   4   8
BRANCH   5  14
ATOM     14  C   UNL     1       5.873   4.168  15.315  0.00  0.00    +0.000 A 
ATOM     15  C   UNL     1       5.120   3.607  14.270  0.00  0.00    +0.000 A 
ATOM     16  C   UNL     1       5.577   3.634  12.949  0.00  0.00    +0.000 A 
ATOM     17  C   UNL     1       6.768   4.280  12.637  0.00  0.00    +0.000 A 
ATOM     18  C   UNL     1       7.510   4.882  13.648  0.00  0.00    +0.000 A 
ATOM     19  C   UNL     1       7.075   4.813  14.977  0.00  0.00    +0.000 A 
ENDBRANCH   5  14
BRANCH   1  20
ATOM     20  S   UNL     1       2.264   3.158  20.256  0.00  0.00    +0.000 S 
ATOM     21  O   UNL     1       2.319   3.251  21.705  0.00  0.00    +0.000 OA
ATOM     22  O   UNL     1       1.270   2.293  19.654  0.00  0.00    +0.000 OA
BRANCH  20  24
ATOM     23  C   UNL     1       2.035   5.799  20.478  0.00  0.00    +0.000 C 
ATOM     24  C   UNL     1       2.146   4.764  19.632  0.00  0.00    +0.000 C 
BRANCH  23  28
ATOM     25  C   UNL     1       1.535   9.836  19.131  0.00  0.00    +0.000 A 
ATOM     26  C   UNL     1       2.187   8.885  18.339  0.00  0.00    +0.000 A 
ATOM     27  C   UNL     1       2.338   7.572  18.794  0.00  0.00    +0.000 A 
ATOM     28  C   UNL     1       1.848   7.190  20.049  0.00  0.00    +0.000 A 
ATOM     29  C   UNL     1       1.178   8.139  20.830  0.00  0.00    +0.000 A 
ATOM     30  C   UNL     1       1.030   9.455  20.381  0.00  0.00    +0.000 A 
BRANCH  25  31
ATOM     31  C   UNL     1       1.398  11.221  18.606  0.00  0.00    +0.000 C 
ATOM     32  O   UNL     1       2.292  11.816  18.027  0.00  0.00    +0.000 OA
BRANCH  31  34
ATOM     33  C   UNL     1      -0.098  12.994  18.303  0.00  0.00    +0.000 C 
ATOM     34  O   UNL     1       0.156  11.705  18.863  0.00  0.00    +0.000 OA
ENDBRANCH  31  34
ENDBRANCH  25  31
ENDBRANCH  23  28
ENDBRANCH  20  24
ENDBRANCH   1  20
TORSDOF 7
ENDMDL
MODEL 4
REMARK VINA RESULT:      -8.1      0.684      1.504
REMARK  Name = 
REMARK  8 active torsions:
REMARK  status: ('A' for Active; 'I' for Inactive)
REMARK    1  A    between atoms: C_1  and  O_2
REMARK    2  A    between atoms: O_2  and  C_3
REMARK    3  A    between atoms: C_3  and  C_5
REMARK    4  A    between atoms: C_8  and  C_9
REMARK    5  A    between atoms: C_10  and  S_11
REMARK    6  A    between atoms: S_11  and  N_14
REMARK    7  A    between atoms: C_17  and  C_18
REMARK    8  A    between atoms: C_24  and  C_25
REMARK                            x       y       z     vdW  Elec       q    Type
REMARK                         _______ _______ _______ _____ _____    ______ ____
ROOT
ATOM      1  N   UNL     1       3.860   2.594  19.969  0.00  0.00    +0.000 N 
ATOM      2  C   UNL     1       4.456   3.335  18.919  0.00  0.00    +0.000 A 
ATOM      3  N   UNL     1       5.160   4.409  19.158  0.00  0.00    +0.000 NA
ATOM      4  C   UNL     1       5.739   4.868  17.972  0.00  0.00    +0.000 A 
ATOM      5  C   UNL     1       5.442   4.113  16.833  0.00  0.00    +0.000 A 
ATOM      6  S   UNL     1       4.449   2.777  17.316  0.00  0.00    +0.000 S 
ATOM      7  H   UNL     1       3.651   1.650  19.652  0.00  0.00    +0.000 HD
ENDROOT
BRANCH   4   8
ATOM      8  C   UNL     1       6.622   6.036  18.016  0.00  0.00    +0.000 A 
ATOM      9  C   UNL     1       6.336   7.151  17.211  0.00  0.00    +0.000 A 
ATOM     10  C   UNL     1       7.122   8.306  17.287  0.00  0.00    +0.000 A 
ATOM     11  C   UNL     1       8.195   8.364  18.173  0.00  0.00    +0.000 A 
ATOM     12  C   UNL     1       8.500   7.260  18.964  0.00  0.00    +0.000 A 
ATOM     13  C   UNL     1       7.736   6.094  18.864  0.00  0.00    +0.000 A 
ENDBRANCH   4   8
BRANCH   5  14
ATOM     14  C   UNL     1       5.857   4.215  15.417  0.00  0.00    +0.000 A 
ATOM     15  C   UNL     1       5.039   3.717  14.389  0.00  0.00    +0.000 A 
ATOM     16  C   UNL     1       5.455   3.740  13.054  0.00  0.00    +0.000 A 
ATOM     17  C   UNL     1       6.671   4.320  12.713  0.00  0.00    +0.000 A 
ATOM     18  C   UNL     1       7.480   4.859  13.709  0.00  0.00    +0.000 A 
ATOM     19  C   UNL     1       7.084   4.793  15.050  0.00  0.00    +0.000 A 
ENDBRANCH   5  14
BRANCH   1  20
ATOM     20  S   UNL     1       2.375   3.251  20.457  0.00  0.00    +0.000 S 
ATOM     21  O   UNL     1       2.425   3.225  21.909  0.00  0.00    +0.000 OA
ATOM     22  O   UNL     1       1.348   2.481  19.785  0.00  0.00    +0.000 OA
BRANCH  20  24
ATOM     23  C   UNL     1       1.668   5.804  20.712  0.00  0.00    +0.000 C 
ATOM     24  C   UNL     1       2.329   4.906  19.966  0.00  0.00    +0.000 C 
BRANCH  23  28
ATOM     25  C   UNL     1       1.148   9.942  19.726  0.00  0.00    +0.000 A 
ATOM     26  C   UNL     1       0.782   9.446  20.982  0.00  0.00    +0.000 A 
ATOM     27  C   UNL     1       0.962   8.094  21.287  0.00  0.00    +0.000 A 
ATOM     28  C   UNL     1       1.502   7.214  20.340  0.00  0.00    +0.000 A 
ATOM     29  C   UNL     1       1.886   7.717  19.092  0.00  0.00    +0.000 A 
ATOM     30  C   UNL     1       1.704   9.069  18.782  0.00  0.00    +0.000 A 
BRANCH  25  31
ATOM     31  C   UNL     1       0.940  11.387  19.448  0.00  0.00    +0.000 C 
ATOM     32  O   UNL     1       1.408  12.282  20.132  0.00  0.00    +0.000 OA
BRANCH  31  34
ATOM     33  C   UNL     1      -1.199  11.855  18.623  0.00  0.00    +0.000 C 
ATOM     34  O   UNL     1       0.168  11.551  18.343  0.00  0.00    +0.000 OA
ENDBRANCH  31  34
ENDBRANCH  25  31
ENDBRANCH  23  28
ENDBRANCH  20  24
ENDBRANCH   1  20
TORSDOF 7
ENDMDL
MODEL 5
REMARK VINA RESULT:      -8.1      4.557      6.688
REMARK  Name = 
REMARK  8 active torsions:
REMARK  status: ('A' for Active; 'I' for Inactive)
REMARK    1  A    between atoms: C_1  and  O_2
REMARK    2  A    between atoms: O_2  and  C_3
REMARK    3  A    between atoms: C_3  and  C_5
REMARK    4  A    between atoms: C_8  and  C_9
REMARK    5  A    between atoms: C_10  and  S_11
REMARK    6  A    between atoms: S_11  and  N_14
REMARK    7  A    between atoms: C_17  and  C_18
REMARK    8  A    between atoms: C_24  and  C_25
REMARK                            x       y       z     vdW  Elec       q    Type
REMARK                         _______ _______ _______ _____ _____    ______ ____
ROOT
ATOM      1  N   UNL     1       1.172   9.284  17.596  0.00  0.00    +0.000 N 
ATOM      2  C   UNL     1       2.029   8.187  17.855  0.00  0.00    +0.000 A 
ATOM      3  N   UNL     1       1.572   7.067  18.348  0.00  0.00    +0.000 NA
ATOM      4  C   UNL     1       2.593   6.114  18.383  0.00  0.00    +0.000 A 
ATOM      5  C   UNL     1       3.833   6.553  17.908  0.00  0.00    +0.000 A 
ATOM      6  S   UNL     1       3.657   8.192  17.373  0.00  0.00    +0.000 S 
ATOM      7  H   UNL     1       1.609   9.917  16.929  0.00  0.00    +0.000 HD
ENDROOT
BRANCH   4   8
ATOM      8  C   UNL     1       2.288   4.759  18.849  0.00  0.00    +0.000 A 
ATOM      9  C   UNL     1       1.670   3.850  17.976  0.00  0.00    +0.000 A 
ATOM     10  C   UNL     1       1.433   2.529  18.373  0.00  0.00    +0.000 A 
ATOM     11  C   UNL     1       1.821   2.099  19.640  0.00  0.00    +0.000 A 
ATOM     12  C   UNL     1       2.420   2.996  20.521  0.00  0.00    +0.000 A 
ATOM     13  C   UNL     1       2.625   4.324  20.138  0.00  0.00    +0.000 A 
ENDBRANCH   4   8
BRANCH   5  14
ATOM     14  C   UNL     1       5.142   5.887  17.737  0.00  0.00    +0.000 A 
ATOM     15  C   UNL     1       5.458   5.215  16.544  0.00  0.00    +0.000 A 
ATOM     16  C   UNL     1       6.662   4.517  16.400  0.00  0.00    +0.000 A 
ATOM     17  C   UNL     1       7.602   4.531  17.424  0.00  0.00    +0.000 A 
ATOM     18  C   UNL     1       7.331   5.226  18.598  0.00  0.00    +0.000 A 
ATOM     19  C   UNL     1       6.106   5.884  18.759  0.00  0.00    +0.000 A 
ENDBRANCH   5  14
BRANCH   1  20
ATOM     20  S   UNL     1       0.880  10.214  18.984  0.00  0.00    +0.000 S 
ATOM     21  O   UNL     1       1.424  11.524  18.664  0.00  0.00    +0.000 OA
ATOM     22  O   UNL     1       1.450   9.479  20.094  0.00  0.00    +0.000 OA
BRANCH  20  24
ATOM     23  C   UNL     1      -1.438  11.490  18.704  0.00  0.00    +0.000 C 
ATOM     24  C   UNL     1      -0.829  10.388  19.167  0.00  0.00    +0.000 C 
BRANCH  23  28
ATOM     25  C   UNL     1      -5.635  12.242  19.139  0.00  0.00    +0.000 A 
ATOM     26  C   UNL     1      -5.147  11.450  18.094  0.00  0.00    +0.000 A 
ATOM     27  C   UNL     1      -3.775  11.213  17.970  0.00  0.00    +0.000 A 
ATOM     28  C   UNL     1      -2.869  11.769  18.882  0.00  0.00    +0.000 A 
ATOM     29  C   UNL     1      -3.362  12.544  19.938  0.00  0.00    +0.000 A 
ATOM     30  C   UNL     1      -4.734  12.787  20.063  0.00  0.00    +0.000 A 
BRANCH  25  31
ATOM     31  C   UNL     1      -7.102  12.466  19.231  0.00  0.00    +0.000 C 
ATOM     32  O   UNL     1      -7.783  12.874  18.305  0.00  0.00    +0.000 OA
BRANCH  31  34
ATOM     33  C   UNL     1      -7.757  10.757  20.689  0.00  0.00    +0.000 C 
ATOM     34  O   UNL     1      -7.552  12.154  20.473  0.00  0.00    +0.000 OA
ENDBRANCH  31  34
ENDBRANCH  25  31
ENDBRANCH  23  28
ENDBRANCH  20  24
ENDBRANCH   1  20
TORSDOF 7
ENDMDL
MODEL 6
REMARK VINA RESULT:      -8.0      4.522      6.707
REMARK  Name = 
REMARK  8 active torsions:
REMARK  status: ('A' for Active; 'I' for Inactive)
REMARK    1  A    between atoms: C_1  and  O_2
REMARK    2  A    between atoms: O_2  and  C_3
REMARK    3  A    between atoms: C_3  and  C_5
REMARK    4  A    between atoms: C_8  and  C_9
REMARK    5  A    between atoms: C_10  and  S_11
REMARK    6  A    between atoms: S_11  and  N_14
REMARK    7  A    between atoms: C_17  and  C_18
REMARK    8  A    between atoms: C_24  and  C_25
REMARK                            x       y       z     vdW  Elec       q    Type
REMARK                         _______ _______ _______ _____ _____    ______ ____
ROOT
ATOM      1  N   UNL     1       1.177   9.592  17.758  0.00  0.00    +0.000 N 
ATOM      2  C   UNL     1       1.970   8.430  17.928  0.00  0.00    +0.000 A 
ATOM      3  N   UNL     1       1.473   7.338  18.442  0.00  0.00    +0.000 NA
ATOM      4  C   UNL     1       2.420   6.312  18.377  0.00  0.00    +0.000 A 
ATOM      5  C   UNL     1       3.645   6.669  17.804  0.00  0.00    +0.000 A 
ATOM      6  S   UNL     1       3.547   8.326  17.308  0.00  0.00    +0.000 S 
ATOM      7  H   UNL     1       1.603  10.205  17.064  0.00  0.00    +0.000 HD
ENDROOT
BRANCH   4   8
ATOM      8  C   UNL     1       2.056   4.974  18.849  0.00  0.00    +0.000 A 
ATOM      9  C   UNL     1       1.835   4.760  20.219  0.00  0.00    +0.000 A 
ATOM     10  C   UNL     1       1.416   3.510  20.687  0.00  0.00    +0.000 A 
ATOM     11  C   UNL     1       1.203   2.463  19.792  0.00  0.00    +0.000 A 
ATOM     12  C   UNL     1       1.435   2.658  18.433  0.00  0.00    +0.000 A 
ATOM     13  C   UNL     1       1.886   3.896  17.969  0.00  0.00    +0.000 A 
ENDBRANCH   4   8
BRANCH   5  14
ATOM     14  C   UNL     1       4.882   5.912  17.512  0.00  0.00    +0.000 A 
ATOM     15  C   UNL     1       5.745   5.515  18.547  0.00  0.00    +0.000 A 
ATOM     16  C   UNL     1       6.954   4.866  18.277  0.00  0.00    +0.000 A 
ATOM     17  C   UNL     1       7.294   4.545  16.968  0.00  0.00    +0.000 A 
ATOM     18  C   UNL     1       6.435   4.888  15.929  0.00  0.00    +0.000 A 
ATOM     19  C   UNL     1       5.249   5.580  16.197  0.00  0.00    +0.000 A 
ENDBRANCH   5  14
BRANCH   1  20
ATOM     20  S   UNL     1       1.073  10.513  19.178  0.00  0.00    +0.000 S 
ATOM     21  O   UNL     1       1.799  11.735  18.872  0.00  0.00    +0.000 OA
ATOM     22  O   UNL     1       1.559   9.668  20.248  0.00  0.00    +0.000 OA
BRANCH  20  24
ATOM     23  C   UNL     1      -1.456  10.827  18.413  0.00  0.00    +0.000 C 
ATOM     24  C   UNL     1      -0.582  10.937  19.425  0.00  0.00    +0.000 C 
BRANCH  23  28
ATOM     25  C   UNL     1      -5.537  12.094  18.737  0.00  0.00    +0.000 A 
ATOM     26  C   UNL     1      -4.550  12.610  19.584  0.00  0.00    +0.000 A 
ATOM     27  C   UNL     1      -3.223  12.188  19.461  0.00  0.00    +0.000 A 
ATOM     28  C   UNL     1      -2.863  11.237  18.498  0.00  0.00    +0.000 A 
ATOM     29  C   UNL     1      -3.849  10.738  17.639  0.00  0.00    +0.000 A 
ATOM     30  C   UNL     1      -5.178  11.155  17.761  0.00  0.00    +0.000 A 
BRANCH  25  31
ATOM     31  C   UNL     1      -6.934  12.574  18.904  0.00  0.00    +0.000 C 
ATOM     32  O   UNL     1      -7.306  13.693  18.593  0.00  0.00    +0.000 OA
BRANCH  31  34
ATOM     33  C   UNL     1      -7.597  11.474  20.859  0.00  0.00    +0.000 C 
ATOM     34  O   UNL     1      -7.710  11.598  19.441  0.00  0.00    +0.000 OA
ENDBRANCH  31  34
ENDBRANCH  25  31
ENDBRANCH  23  28
ENDBRANCH  20  24
ENDBRANCH   1  20
TORSDOF 7
ENDMDL
MODEL 7
REMARK VINA RESULT:      -8.0      4.564      6.626
REMARK  Name = 
REMARK  8 active torsions:
REMARK  status: ('A' for Active; 'I' for Inactive)
REMARK    1  A    between atoms: C_1  and  O_2
REMARK    2  A    between atoms: O_2  and  C_3
REMARK    3  A    between atoms: C_3  and  C_5
REMARK    4  A    between atoms: C_8  and  C_9
REMARK    5  A    between atoms: C_10  and  S_11
REMARK    6  A    between atoms: S_11  and  N_14
REMARK    7  A    between atoms: C_17  and  C_18
REMARK    8  A    between atoms: C_24  and  C_25
REMARK                            x       y       z     vdW  Elec       q    Type
REMARK                         _______ _______ _______ _____ _____    ______ ____
ROOT
ATOM      1  N   UNL     1       1.176   9.520  17.571  0.00  0.00    +0.000 N 
ATOM      2  C   UNL     1       2.007   8.401  17.823  0.00  0.00    +0.000 A 
ATOM      3  N   UNL     1       1.536   7.316  18.379  0.00  0.00    +0.000 NA
ATOM      4  C   UNL     1       2.523   6.327  18.393  0.00  0.00    +0.000 A 
ATOM      5  C   UNL     1       3.751   6.703  17.839  0.00  0.00    +0.000 A 
ATOM      6  S   UNL     1       3.605   8.329  17.256  0.00  0.00    +0.000 S 
ATOM      7  H   UNL     1       1.599  10.113  16.860  0.00  0.00    +0.000 HD
ENDROOT
BRANCH   4   8
ATOM      8  C   UNL     1       2.196   5.001  18.923  0.00  0.00    +0.000 A 
ATOM      9  C   UNL     1       1.477   4.096  18.126  0.00  0.00    +0.000 A 
ATOM     10  C   UNL     1       1.213   2.799  18.580  0.00  0.00    +0.000 A 
ATOM     11  C   UNL     1       1.675   2.388  19.829  0.00  0.00    +0.000 A 
ATOM     12  C   UNL     1       2.375   3.281  20.635  0.00  0.00    +0.000 A 
ATOM     13  C   UNL     1       2.608   4.587  20.197  0.00  0.00    +0.000 A 
ENDBRANCH   4   8
BRANCH   5  14
ATOM     14  C   UNL     1       5.025   5.982  17.623  0.00  0.00    +0.000 A 
ATOM     15  C   UNL     1       5.150   5.032  16.596  0.00  0.00    +0.000 A 
ATOM     16  C   UNL     1       6.324   4.291  16.431  0.00  0.00    +0.000 A 
ATOM     17  C   UNL     1       7.420   4.531  17.250  0.00  0.00    +0.000 A 
ATOM     18  C   UNL     1       7.337   5.499  18.247  0.00  0.00    +0.000 A 
ATOM     19  C   UNL     1       6.145   6.206  18.442  0.00  0.00    +0.000 A 
ENDBRANCH   5  14
BRANCH   1  20
ATOM     20  S   UNL     1       0.993  10.506  18.938  0.00  0.00    +0.000 S 
ATOM     21  O   UNL     1       2.047  11.499  18.814  0.00  0.00    +0.000 OA
ATOM     22  O   UNL     1       1.006   9.621  20.084  0.00  0.00    +0.000 OA
BRANCH  20  24
ATOM     23  C   UNL     1      -1.645  10.628  18.612  0.00  0.00    +0.000 C 
ATOM     24  C   UNL     1      -0.520  11.331  18.810  0.00  0.00    +0.000 C 
BRANCH  23  28
ATOM     25  C   UNL     1      -5.499  12.369  17.919  0.00  0.00    +0.000 A 
ATOM     26  C   UNL     1      -4.812  11.705  16.898  0.00  0.00    +0.000 A 
ATOM     27  C   UNL     1      -3.557  11.141  17.143  0.00  0.00    +0.000 A 
ATOM     28  C   UNL     1      -2.965  11.237  18.409  0.00  0.00    +0.000 A 
ATOM     29  C   UNL     1      -3.665  11.885  19.434  0.00  0.00    +0.000 A 
ATOM     30  C   UNL     1      -4.919  12.455  19.191  0.00  0.00    +0.000 A 
BRANCH  25  31
ATOM     31  C   UNL     1      -6.832  12.953  17.612  0.00  0.00    +0.000 C 
ATOM     32  O   UNL     1      -7.801  12.848  18.345  0.00  0.00    +0.000 OA
BRANCH  31  34
ATOM     33  C   UNL     1      -7.139  14.989  16.501  0.00  0.00    +0.000 C 
ATOM     34  O   UNL     1      -6.802  13.603  16.421  0.00  0.00    +0.000 OA
ENDBRANCH  31  34
ENDBRANCH  25  31
ENDBRANCH  23  28
ENDBRANCH  20  24
ENDBRANCH   1  20
TORSDOF 7
ENDMDL
MODEL 8
REMARK VINA RESULT:      -7.9      4.627      6.763
REMARK  Name = 
REMARK  8 active torsions:
REMARK  status: ('A' for Active; 'I' for Inactive)
REMARK    1  A    between atoms: C_1  and  O_2
REMARK    2  A    between atoms: O_2  and  C_3
REMARK    3  A    between atoms: C_3  and  C_5
REMARK    4  A    between atoms: C_8  and  C_9
REMARK    5  A    between atoms: C_10  and  S_11
REMARK    6  A    between atoms: S_11  and  N_14
REMARK    7  A    between atoms: C_17  and  C_18
REMARK    8  A    between atoms: C_24  and  C_25
REMARK                            x       y       z     vdW  Elec       q    Type
REMARK                         _______ _______ _______ _____ _____    ______ ____
ROOT
ATOM      1  N   UNL     1       1.186   9.291  17.555  0.00  0.00    +0.000 N 
ATOM      2  C   UNL     1       2.013   8.171  17.818  0.00  0.00    +0.000 A 
ATOM      3  N   UNL     1       1.515   7.045  18.253  0.00  0.00    +0.000 NA
ATOM      4  C   UNL     1       2.517   6.073  18.304  0.00  0.00    +0.000 A 
ATOM      5  C   UNL     1       3.785   6.504  17.900  0.00  0.00    +0.000 A 
ATOM      6  S   UNL     1       3.661   8.162  17.410  0.00  0.00    +0.000 S 
ATOM      7  H   UNL     1       1.664   9.936  16.929  0.00  0.00    +0.000 HD
ENDROOT
BRANCH   4   8
ATOM      8  C   UNL     1       2.169   4.709  18.712  0.00  0.00    +0.000 A 
ATOM      9  C   UNL     1       2.293   3.658  17.790  0.00  0.00    +0.000 A 
ATOM     10  C   UNL     1       2.036   2.337  18.175  0.00  0.00    +0.000 A 
ATOM     11  C   UNL     1       1.664   2.052  19.487  0.00  0.00    +0.000 A 
ATOM     12  C   UNL     1       1.521   3.088  20.407  0.00  0.00    +0.000 A 
ATOM     13  C   UNL     1       1.744   4.410  20.014  0.00  0.00    +0.000 A 
ENDBRANCH   4   8
BRANCH   5  14
ATOM     14  C   UNL     1       5.090   5.820  17.767  0.00  0.00    +0.000 A 
ATOM     15  C   UNL     1       5.847   5.485  18.902  0.00  0.00    +0.000 A 
ATOM     16  C   UNL     1       7.115   4.907  18.785  0.00  0.00    +0.000 A 
ATOM     17  C   UNL     1       7.625   4.594  17.530  0.00  0.00    +0.000 A 
ATOM     18  C   UNL     1       6.875   4.875  16.393  0.00  0.00    +0.000 A 
ATOM     19  C   UNL     1       5.627   5.497  16.509  0.00  0.00    +0.000 A 
ENDBRANCH   5  14
BRANCH   1  20
ATOM     20  S   UNL     1       0.846  10.182  18.957  0.00  0.00    +0.000 S 
ATOM     21  O   UNL     1       1.411  11.496  18.698  0.00  0.00    +0.000 OA
ATOM     22  O   UNL     1       1.366   9.410  20.066  0.00  0.00    +0.000 OA
BRANCH  20  24
ATOM     23  C   UNL     1      -1.465  11.423  18.511  0.00  0.00    +0.000 C 
ATOM     24  C   UNL     1      -0.867  10.364  19.078  0.00  0.00    +0.000 C 
BRANCH  23  28
ATOM     25  C   UNL     1      -5.635  12.313  18.939  0.00  0.00    +0.000 A 
ATOM     26  C   UNL     1      -4.717  12.653  19.938  0.00  0.00    +0.000 A 
ATOM     27  C   UNL     1      -3.360  12.358  19.780  0.00  0.00    +0.000 A 
ATOM     28  C   UNL     1      -2.900  11.711  18.625  0.00  0.00    +0.000 A 
ATOM     29  C   UNL     1      -3.818  11.391  17.619  0.00  0.00    +0.000 A 
ATOM     30  C   UNL     1      -5.177  11.681  17.775  0.00  0.00    +0.000 A 
BRANCH  25  31
ATOM     31  C   UNL     1      -7.068  12.648  19.151  0.00  0.00    +0.000 C 
ATOM     32  O   UNL     1      -7.863  11.901  19.697  0.00  0.00    +0.000 OA
BRANCH  31  34
ATOM     33  C   UNL     1      -7.898  14.787  19.611  0.00  0.00    +0.000 C 
ATOM     34  O   UNL     1      -7.346  13.881  18.654  0.00  0.00    +0.000 OA
ENDBRANCH  31  34
ENDBRANCH  25  31
ENDBRANCH  23  28
ENDBRANCH  20  24
ENDBRANCH   1  20
TORSDOF 7
ENDMDL
MODEL 9
REMARK VINA RESULT:      -7.8      0.834      1.500
REMARK  Name = 
REMARK  8 active torsions:
REMARK  status: ('A' for Active; 'I' for Inactive)
REMARK    1  A    between atoms: C_1  and  O_2
REMARK    2  A    between atoms: O_2  and  C_3
REMARK    3  A    between atoms: C_3  and  C_5
REMARK    4  A    between atoms: C_8  and  C_9
REMARK    5  A    between atoms: C_10  and  S_11
REMARK    6  A    between atoms: S_11  and  N_14
REMARK    7  A    between atoms: C_17  and  C_18
REMARK    8  A    between atoms: C_24  and  C_25
REMARK                            x       y       z     vdW  Elec       q    Type
REMARK                         _______ _______ _______ _____ _____    ______ ____
ROOT
ATOM      1  N   UNL     1       3.800   2.778  20.138  0.00  0.00    +0.000 N 
ATOM      2  C   UNL     1       4.404   3.469  19.059  0.00  0.00    +0.000 A 
ATOM      3  N   UNL     1       5.110   4.551  19.254  0.00  0.00    +0.000 NA
ATOM      4  C   UNL     1       5.696   4.955  18.052  0.00  0.00    +0.000 A 
ATOM      5  C   UNL     1       5.403   4.150  16.946  0.00  0.00    +0.000 A 
ATOM      6  S   UNL     1       4.404   2.840  17.483  0.00  0.00    +0.000 S 
ATOM      7  H   UNL     1       3.590   1.820  19.863  0.00  0.00    +0.000 HD
ENDROOT
BRANCH   4   8
ATOM      8  C   UNL     1       6.583   6.121  18.048  0.00  0.00    +0.000 A 
ATOM      9  C   UNL     1       6.250   7.241  17.270  0.00  0.00    +0.000 A 
ATOM     10  C   UNL     1       7.042   8.395  17.304  0.00  0.00    +0.000 A 
ATOM     11  C   UNL     1       8.168   8.445  18.123  0.00  0.00    +0.000 A 
ATOM     12  C   UNL     1       8.519   7.335  18.886  0.00  0.00    +0.000 A 
ATOM     13  C   UNL     1       7.748   6.171  18.826  0.00  0.00    +0.000 A 
ENDBRANCH   4   8
BRANCH   5  14
ATOM     14  C   UNL     1       5.825   4.188  15.529  0.00  0.00    +0.000 A 
ATOM     15  C   UNL     1       7.072   4.720  15.162  0.00  0.00    +0.000 A 
ATOM     16  C   UNL     1       7.449   4.830  13.820  0.00  0.00    +0.000 A 
ATOM     17  C   UNL     1       6.611   4.351  12.820  0.00  0.00    +0.000 A 
ATOM     18  C   UNL     1       5.389   3.780  13.160  0.00  0.00    +0.000 A 
ATOM     19  C   UNL     1       4.993   3.713  14.501  0.00  0.00    +0.000 A 
ENDBRANCH   5  14
BRANCH   1  20
ATOM     20  S   UNL     1       2.315   3.460  20.589  0.00  0.00    +0.000 S 
ATOM     21  O   UNL     1       2.260   3.291  22.032  0.00  0.00    +0.000 OA
ATOM     22  O   UNL     1       1.306   2.812  19.777  0.00  0.00    +0.000 OA
BRANCH  20  24
ATOM     23  C   UNL     1       1.478   5.974  20.825  0.00  0.00    +0.000 C 
ATOM     24  C   UNL     1       2.378   5.155  20.263  0.00  0.00    +0.000 C 
BRANCH  23  28
ATOM     25  C   UNL     1       1.273  10.158  19.918  0.00  0.00    +0.000 A 
ATOM     26  C   UNL     1       1.733   9.235  18.973  0.00  0.00    +0.000 A 
ATOM     27  C   UNL     1       1.790   7.874  19.286  0.00  0.00    +0.000 A 
ATOM     28  C   UNL     1       1.396   7.414  20.549  0.00  0.00    +0.000 A 
ATOM     29  C   UNL     1       0.917   8.337  21.485  0.00  0.00    +0.000 A 
ATOM     30  C   UNL     1       0.863   9.701  21.178  0.00  0.00    +0.000 A 
BRANCH  25  31
ATOM     31  C   UNL     1       1.229  11.595  19.541  0.00  0.00    +0.000 C 
ATOM     32  O   UNL     1       1.137  11.989  18.390  0.00  0.00    +0.000 OA
BRANCH  31  34
ATOM     33  C   UNL     1       0.361  13.451  20.671  0.00  0.00    +0.000 C 
ATOM     34  O   UNL     1       1.305  12.379  20.646  0.00  0.00    +0.000 OA
ENDBRANCH  31  34
ENDBRANCH  25  31
ENDBRANCH  23  28
ENDBRANCH  20  24
ENDBRANCH   1  20
TORSDOF 7
ENDMDL
