MODEL 1
REMARK VINA RESULT:      -8.9      0.000      0.000
REMARK  Name = 
REMARK  9 active torsions:
REMARK  status: ('A' for Active; 'I' for Inactive)
REMARK    1  A    between atoms: C_1  and  C_2
REMARK    2  A    between atoms: C_4  and  C_5
REMARK    3  A    between atoms: C_6  and  C_7
REMARK    4  A    between atoms: N_9  and  C_10
REMARK    5  A    between atoms: C_14  and  C_15
REMARK    6  A    between atoms: C_15  and  C_16
REMARK    7  A    between atoms: C_15  and  N_17
REMARK    8  A    between atoms: N_17  and  C_18
REMARK    9  A    between atoms: C_23  and  C_24
REMARK                            x       y       z     vdW  Elec       q    Type
REMARK                         _______ _______ _______ _____ _____    ______ ____
ROOT
ATOM      1  C   UNL     1       2.310   6.325  19.522  0.00  0.00    +0.000 C 
ATOM      2  C   UNL     1       1.613   5.925  20.844  0.00  0.00    +0.000 C 
ENDROOT
BRANCH   1   7
ATOM      3  C   UNL     1       0.594   9.805  19.507  0.00  0.00    +0.000 A 
ATOM      4  C   UNL     1       1.140  10.398  18.372  0.00  0.00    +0.000 A 
ATOM      5  C   UNL     1       2.146   9.732  17.670  0.00  0.00    +0.000 A 
ATOM      6  C   UNL     1       2.579   8.456  18.071  0.00  0.00    +0.000 A 
ATOM      7  C   UNL     1       2.006   7.799  19.173  0.00  0.00    +0.000 A 
ATOM      8  C   UNL     1       1.004   8.504  19.876  0.00  0.00    +0.000 A 
BRANCH   3  11
ATOM      9  C   UNL     1       0.091  11.426  21.272  0.00  0.00    +0.000 C 
ATOM     10  O   UNL     1       1.276  11.573  21.542  0.00  0.00    +0.000 OA
ATOM     11  N   UNL     1      -0.338  10.553  20.275  0.00  0.00    +0.000 N 
ATOM     12  H   UNL     1      -1.255  10.722  19.882  0.00  0.00    +0.000 HD
BRANCH   9  18
ATOM     13  C   UNL     1      -3.469  13.784  24.422  0.00  0.00    +0.000 C 
ATOM     14  C   UNL     1      -2.528  13.392  23.338  0.00  0.00    +0.000 A 
ATOM     15  N   UNL     1      -2.090  14.230  22.426  0.00  0.00    +0.000 NA
ATOM     16  C   UNL     1      -1.162  13.607  21.613  0.00  0.00    +0.000 A 
ATOM     17  C   UNL     1      -0.525  14.413  20.537  0.00  0.00    +0.000 C 
ATOM     18  C   UNL     1      -0.917  12.271  21.909  0.00  0.00    +0.000 A 
ATOM     19  S   UNL     1      -1.921  11.784  23.209  0.00  0.00    +0.000 S 
ENDBRANCH   9  18
ENDBRANCH   3  11
ENDBRANCH   1   7
BRANCH   1  20
ATOM     20  N   UNL     1       2.257   5.322  18.375  0.00  0.00    +0.000 N 
ATOM     21  H   UNL     1       1.406   4.772  18.459  0.00  0.00    +0.000 HD
BRANCH  20  22
ATOM     22  C   UNL     1       3.354   4.456  18.182  0.00  0.00    +0.000 A 
ATOM     23  N   UNL     1       3.365   3.402  18.992  0.00  0.00    +0.000 NA
ATOM     24  C   UNL     1       4.558   3.088  19.479  0.00  0.00    +0.000 A 
ATOM     25  N   UNL     1       5.676   3.776  19.298  0.00  0.00    +0.000 NA
ATOM     26  C   UNL     1       5.667   4.661  18.296  0.00  0.00    +0.000 A 
ATOM     27  C   UNL     1       6.868   5.298  17.972  0.00  0.00    +0.000 A 
ATOM     28  C   UNL     1       7.175   5.647  16.661  0.00  0.00    +0.000 A 
ATOM     29  C   UNL     1       6.179   5.510  15.697  0.00  0.00    +0.000 A 
ATOM     30  C   UNL     1       4.856   5.236  16.118  0.00  0.00    +0.000 A 
ATOM     31  C   UNL     1       4.552   4.842  17.483  0.00  0.00    +0.000 A 
BRANCH  27  32
ATOM     32  C   UNL     1       7.632   5.839  19.121  0.00  0.00    +0.000 C 
ATOM     33  N   UNL     1       8.357   6.985  18.954  0.00  0.00    +0.000 N 
ATOM     34  O   UNL     1       7.563   5.331  20.236  0.00  0.00    +0.000 OA
ATOM     35  H   UNL     1       8.610   7.333  18.044  0.00  0.00    +0.000 HD
ATOM     36  H   UNL     1       8.919   7.245  19.750  0.00  0.00    +0.000 HD
ENDBRANCH  27  32
ENDBRANCH  20  22
ENDBRANCH   1  20
TORSDOF 6
ENDMDL
MODEL 2
REMARK VINA RESULT:      -8.8      3.434      4.725
REMARK  Name = 
REMARK  9 active torsions:
REMARK  status: ('A' for Active; 'I' for Inactive)
REMARK    1  A    between atoms: C_1  and  C_2
REMARK    2  A    between atoms: C_4  and  C_5
REMARK    3  A    between atoms: C_6  and  C_7
REMARK    4  A    between atoms: N_9  and  C_10
REMARK    5  A    between atoms: C_14  and  C_15
REMARK    6  A    between atoms: C_15  and  C_16
REMARK    7  A    between atoms: C_15  and  N_17
REMARK    8  A    between atoms: N_17  and  C_18
REMARK    9  A    between atoms: C_23  and  C_24
REMARK                            x       y       z     vdW  Elec       q    Type
REMARK                         _______ _______ _______ _____ _____    ______ ____
ROOT
ATOM      1  C   UNL     1       0.700   9.107  21.526  0.00  0.00    +0.000 C 
ATOM      2  C   UNL     1      -0.631   8.500  22.028  0.00  0.00    +0.000 C 
ENDROOT
BRANCH   1   7
ATOM      3  C   UNL     1       1.036  12.157  19.151  0.00  0.00    +0.000 A 
ATOM      4  C   UNL     1      -0.142  12.088  18.414  0.00  0.00    +0.000 A 
ATOM      5  C   UNL     1      -0.996  10.999  18.592  0.00  0.00    +0.000 A 
ATOM      6  C   UNL     1      -0.701  10.001  19.537  0.00  0.00    +0.000 A 
ATOM      7  C   UNL     1       0.446  10.070  20.345  0.00  0.00    +0.000 A 
ATOM      8  C   UNL     1       1.302  11.172  20.130  0.00  0.00    +0.000 A 
BRANCH   3  11
ATOM      9  C   UNL     1       1.970  14.369  19.631  0.00  0.00    +0.000 C 
ATOM     10  O   UNL     1       1.198  14.546  20.566  0.00  0.00    +0.000 OA
ATOM     11  N   UNL     1       1.949  13.207  18.865  0.00  0.00    +0.000 N 
ATOM     12  H   UNL     1       2.793  12.981  18.354  0.00  0.00    +0.000 HD
BRANCH   9  18
ATOM     13  C   UNL     1       6.511  17.001  18.851  0.00  0.00    +0.000 C 
ATOM     14  C   UNL     1       5.096  16.559  18.978  0.00  0.00    +0.000 A 
ATOM     15  N   UNL     1       4.088  17.203  18.433  0.00  0.00    +0.000 NA
ATOM     16  C   UNL     1       2.911  16.508  18.640  0.00  0.00    +0.000 A 
ATOM     17  C   UNL     1       1.660  17.069  18.062  0.00  0.00    +0.000 C 
ATOM     18  C   UNL     1       3.038  15.332  19.371  0.00  0.00    +0.000 A 
ATOM     19  S   UNL     1       4.671  15.134  19.848  0.00  0.00    +0.000 S 
ENDBRANCH   9  18
ENDBRANCH   3  11
ENDBRANCH   1   7
BRANCH   1  20
ATOM     20  N   UNL     1       1.892   8.166  21.402  0.00  0.00    +0.000 N 
ATOM     21  H   UNL     1       2.727   8.714  21.215  0.00  0.00    +0.000 HD
BRANCH  20  22
ATOM     22  C   UNL     1       1.820   7.099  20.480  0.00  0.00    +0.000 A 
ATOM     23  N   UNL     1       1.165   6.034  20.930  0.00  0.00    +0.000 NA
ATOM     24  C   UNL     1       1.719   4.870  20.619  0.00  0.00    +0.000 A 
ATOM     25  N   UNL     1       2.879   4.703  19.998  0.00  0.00    +0.000 NA
ATOM     26  C   UNL     1       3.361   5.772  19.357  0.00  0.00    +0.000 A 
ATOM     27  C   UNL     1       4.500   5.602  18.563  0.00  0.00    +0.000 A 
ATOM     28  C   UNL     1       4.686   6.331  17.394  0.00  0.00    +0.000 A 
ATOM     29  C   UNL     1       3.797   7.368  17.121  0.00  0.00    +0.000 A 
ATOM     30  C   UNL     1       2.892   7.773  18.130  0.00  0.00    +0.000 A 
ATOM     31  C   UNL     1       2.683   6.986  19.333  0.00  0.00    +0.000 A 
BRANCH  27  32
ATOM     32  C   UNL     1       5.607   4.843  19.193  0.00  0.00    +0.000 C 
ATOM     33  N   UNL     1       5.585   3.477  19.144  0.00  0.00    +0.000 N 
ATOM     34  O   UNL     1       6.579   5.410  19.683  0.00  0.00    +0.000 OA
ATOM     35  H   UNL     1       4.746   2.960  18.940  0.00  0.00    +0.000 HD
ATOM     36  H   UNL     1       6.321   3.028  19.666  0.00  0.00    +0.000 HD
ENDBRANCH  27  32
ENDBRANCH  20  22
ENDBRANCH   1  20
TORSDOF 6
ENDMDL
MODEL 3
REMARK VINA RESULT:      -8.7      3.298     10.120
REMARK  Name = 
REMARK  9 active torsions:
REMARK  status: ('A' for Active; 'I' for Inactive)
REMARK    1  A    between atoms: C_1  and  C_2
REMARK    2  A    between atoms: C_4  and  C_5
REMARK    3  A    between atoms: C_6  and  C_7
REMARK    4  A    between atoms: N_9  and  C_10
REMARK    5  A    between atoms: C_14  and  C_15
REMARK    6  A    between atoms: C_15  and  C_16
REMARK    7  A    between atoms: C_15  and  N_17
REMARK    8  A    between atoms: N_17  and  C_18
REMARK    9  A    between atoms: C_23  and  C_24
REMARK                            x       y       z     vdW  Elec       q    Type
REMARK                         _______ _______ _______ _____ _____    ______ ____
ROOT
ATOM      1  C   UNL     1       0.705   9.505  20.508  0.00  0.00    +0.000 C 
ATOM      2  C   UNL     1       0.252   9.709  21.973  0.00  0.00    +0.000 C 
ENDROOT
BRANCH   1   7
ATOM      3  C   UNL     1       2.683   6.565  18.929  0.00  0.00    +0.000 A 
ATOM      4  C   UNL     1       2.309   5.493  19.733  0.00  0.00    +0.000 A 
ATOM      5  C   UNL     1       1.512   5.726  20.855  0.00  0.00    +0.000 A 
ATOM      6  C   UNL     1       1.050   7.019  21.153  0.00  0.00    +0.000 A 
ATOM      7  C   UNL     1       1.354   8.115  20.329  0.00  0.00    +0.000 A 
ATOM      8  C   UNL     1       2.178   7.855  19.211  0.00  0.00    +0.000 A 
BRANCH   3  11
ATOM      9  C   UNL     1       4.851   5.777  18.108  0.00  0.00    +0.000 C 
ATOM     10  O   UNL     1       5.232   5.498  19.239  0.00  0.00    +0.000 OA
ATOM     11  N   UNL     1       3.594   6.324  17.866  0.00  0.00    +0.000 N 
ATOM     12  H   UNL     1       3.221   6.217  16.931  0.00  0.00    +0.000 HD
BRANCH   9  18
ATOM     13  C   UNL     1       6.860   4.097  13.494  0.00  0.00    +0.000 C 
ATOM     14  C   UNL     1       6.612   4.686  14.837  0.00  0.00    +0.000 A 
ATOM     15  N   UNL     1       7.407   5.573  15.392  0.00  0.00    +0.000 NA
ATOM     16  C   UNL     1       6.873   6.006  16.591  0.00  0.00    +0.000 A 
ATOM     17  C   UNL     1       7.620   7.044  17.352  0.00  0.00    +0.000 C 
ATOM     18  C   UNL     1       5.667   5.417  16.951  0.00  0.00    +0.000 A 
ATOM     19  S   UNL     1       5.230   4.255  15.770  0.00  0.00    +0.000 S 
ENDBRANCH   9  18
ENDBRANCH   3  11
ENDBRANCH   1   7
BRANCH   1  20
ATOM     20  N   UNL     1       1.392  10.680  19.821  0.00  0.00    +0.000 N 
ATOM     21  H   UNL     1       1.872  11.236  20.523  0.00  0.00    +0.000 HD
BRANCH  20  22
ATOM     22  C   UNL     1       0.620  11.531  19.001  0.00  0.00    +0.000 A 
ATOM     23  N   UNL     1       1.136  12.744  18.838  0.00  0.00    +0.000 NA
ATOM     24  C   UNL     1       0.252  13.733  18.880  0.00  0.00    +0.000 A 
ATOM     25  N   UNL     1      -1.038  13.609  19.155  0.00  0.00    +0.000 NA
ATOM     26  C   UNL     1      -1.544  12.376  19.062  0.00  0.00    +0.000 A 
ATOM     27  C   UNL     1      -2.927  12.222  19.192  0.00  0.00    +0.000 A 
ATOM     28  C   UNL     1      -3.620  11.247  18.483  0.00  0.00    +0.000 A 
ATOM     29  C   UNL     1      -2.881  10.305  17.772  0.00  0.00    +0.000 A 
ATOM     30  C   UNL     1      -1.481  10.245  17.973  0.00  0.00    +0.000 A 
ATOM     31  C   UNL     1      -0.764  11.285  18.690  0.00  0.00    +0.000 A 
BRANCH  27  32
ATOM     32  C   UNL     1      -3.542  12.939  20.334  0.00  0.00    +0.000 C 
ATOM     33  N   UNL     1      -3.771  14.282  20.227  0.00  0.00    +0.000 N 
ATOM     34  O   UNL     1      -3.925  12.345  21.337  0.00  0.00    +0.000 OA
ATOM     35  H   UNL     1      -3.315  14.851  19.533  0.00  0.00    +0.000 HD
ATOM     36  H   UNL     1      -4.109  14.718  21.071  0.00  0.00    +0.000 HD
ENDBRANCH  27  32
ENDBRANCH  20  22
ENDBRANCH   1  20
TORSDOF 6
ENDMDL
MODEL 4
REMARK VINA RESULT:      -8.6      2.019      2.953
REMARK  Name = 
REMARK  9 active torsions:
REMARK  status: ('A' for Active; 'I' for Inactive)
REMARK    1  A    between atoms: C_1  and  C_2
REMARK    2  A    between atoms: C_4  and  C_5
REMARK    3  A    between atoms: C_6  and  C_7
REMARK    4  A    between atoms: N_9  and  C_10
REMARK    5  A    between atoms: C_14  and  C_15
REMARK    6  A    between atoms: C_15  and  C_16
REMARK    7  A    between atoms: C_15  and  N_17
REMARK    8  A    between atoms: N_17  and  C_18
REMARK    9  A    between atoms: C_23  and  C_24
REMARK                            x       y       z     vdW  Elec       q    Type
REMARK                         _______ _______ _______ _____ _____    ______ ____
ROOT
ATOM      1  C   UNL     1       1.897   7.811  19.287  0.00  0.00    +0.000 C 
ATOM      2  C   UNL     1       2.255   8.608  18.010  0.00  0.00    +0.000 C 
ENDROOT
BRANCH   1   7
ATOM      3  C   UNL     1       0.463  10.966  21.032  0.00  0.00    +0.000 A 
ATOM      4  C   UNL     1      -0.013  10.448  22.233  0.00  0.00    +0.000 A 
ATOM      5  C   UNL     1       0.018   9.068  22.441  0.00  0.00    +0.000 A 
ATOM      6  C   UNL     1       0.563   8.207  21.474  0.00  0.00    +0.000 A 
ATOM      7  C   UNL     1       1.111   8.699  20.278  0.00  0.00    +0.000 A 
ATOM      8  C   UNL     1       1.050  10.096  20.084  0.00  0.00    +0.000 A 
BRANCH   3  11
ATOM      9  C   UNL     1      -0.800  12.848  20.105  0.00  0.00    +0.000 C 
ATOM     10  O   UNL     1      -1.673  12.108  19.666  0.00  0.00    +0.000 OA
ATOM     11  N   UNL     1       0.308  12.357  20.791  0.00  0.00    +0.000 N 
ATOM     12  H   UNL     1       0.793  13.005  21.398  0.00  0.00    +0.000 HD
BRANCH   9  18
ATOM     13  C   UNL     1      -0.972  17.996  18.832  0.00  0.00    +0.000 C 
ATOM     14  C   UNL     1      -1.084  16.657  19.471  0.00  0.00    +0.000 A 
ATOM     15  N   UNL     1      -1.913  16.396  20.456  0.00  0.00    +0.000 NA
ATOM     16  C   UNL     1      -1.862  15.052  20.778  0.00  0.00    +0.000 A 
ATOM     17  C   UNL     1      -2.764  14.559  21.854  0.00  0.00    +0.000 C 
ATOM     18  C   UNL     1      -0.963  14.298  20.033  0.00  0.00    +0.000 A 
ATOM     19  S   UNL     1      -0.131  15.323  18.941  0.00  0.00    +0.000 S 
ENDBRANCH   9  18
ENDBRANCH   3  11
ENDBRANCH   1   7
BRANCH   1  20
ATOM     20  N   UNL     1       2.980   6.915  19.876  0.00  0.00    +0.000 N 
ATOM     21  H   UNL     1       3.802   7.479  20.073  0.00  0.00    +0.000 HD
BRANCH  20  22
ATOM     22  C   UNL     1       3.368   5.762  19.159  0.00  0.00    +0.000 A 
ATOM     23  N   UNL     1       3.093   4.619  19.779  0.00  0.00    +0.000 NA
ATOM     24  C   UNL     1       4.047   3.700  19.696  0.00  0.00    +0.000 A 
ATOM     25  N   UNL     1       5.240   3.867  19.145  0.00  0.00    +0.000 NA
ATOM     26  C   UNL     1       5.371   4.921  18.333  0.00  0.00    +0.000 A 
ATOM     27  C   UNL     1       6.561   5.050  17.611  0.00  0.00    +0.000 A 
ATOM     28  C   UNL     1       6.581   5.600  16.335  0.00  0.00    +0.000 A 
ATOM     29  C   UNL     1       5.412   6.187  15.857  0.00  0.00    +0.000 A 
ATOM     30  C   UNL     1       4.337   6.393  16.754  0.00  0.00    +0.000 A 
ATOM     31  C   UNL     1       4.314   5.787  18.074  0.00  0.00    +0.000 A 
BRANCH  27  32
ATOM     32  C   UNL     1       7.804   4.853  18.394  0.00  0.00    +0.000 C 
ATOM     33  N   UNL     1       7.933   5.482  19.601  0.00  0.00    +0.000 N 
ATOM     34  O   UNL     1       8.681   4.078  18.026  0.00  0.00    +0.000 OA
ATOM     35  H   UNL     1       7.357   6.264  19.864  0.00  0.00    +0.000 HD
ATOM     36  H   UNL     1       8.836   5.373  20.035  0.00  0.00    +0.000 HD
ENDBRANCH  27  32
ENDBRANCH  20  22
ENDBRANCH   1  20
TORSDOF 6
ENDMDL
MODEL 5
REMARK VINA RESULT:      -8.5      1.735      2.619
REMARK  Name = 
REMARK  9 active torsions:
REMARK  status: ('A' for Active; 'I' for Inactive)
REMARK    1  A    between atoms: C_1  and  C_2
REMARK    2  A    between atoms: C_4  and  C_5
REMARK    3  A    between atoms: C_6  and  C_7
REMARK    4  A    between atoms: N_9  and  C_10
REMARK    5  A    between atoms: C_14  and  C_15
REMARK    6  A    between atoms: C_15  and  C_16
REMARK    7  A    between atoms: C_15  and  N_17
REMARK    8  A    between atoms: N_17  and  C_18
REMARK    9  A    between atoms: C_23  and  C_24
REMARK                            x       y       z     vdW  Elec       q    Type
REMARK                         _______ _______ _______ _____ _____    ______ ____
ROOT
ATOM      1  C   UNL     1       2.650   7.038  17.881  0.00  0.00    +0.000 C 
ATOM      2  C   UNL     1       4.142   7.445  17.843  0.00  0.00    +0.000 C 
ENDROOT
BRANCH   1   7
ATOM      3  C   UNL     1       0.909   9.815  19.956  0.00  0.00    +0.000 A 
ATOM      4  C   UNL     1       0.887   9.260  21.232  0.00  0.00    +0.000 A 
ATOM      5  C   UNL     1       1.325   7.947  21.413  0.00  0.00    +0.000 A 
ATOM      6  C   UNL     1       1.826   7.201  20.333  0.00  0.00    +0.000 A 
ATOM      7  C   UNL     1       1.923   7.750  19.043  0.00  0.00    +0.000 A 
ATOM      8  C   UNL     1       1.456   9.073  18.885  0.00  0.00    +0.000 A 
BRANCH   3  11
ATOM      9  C   UNL     1       0.897  12.225  20.392  0.00  0.00    +0.000 C 
ATOM     10  O   UNL     1       1.873  12.146  21.127  0.00  0.00    +0.000 OA
ATOM     11  N   UNL     1       0.344  11.106  19.774  0.00  0.00    +0.000 N 
ATOM     12  H   UNL     1      -0.218  11.270  18.949  0.00  0.00    +0.000 HD
BRANCH   9  18
ATOM     13  C   UNL     1      -0.432  16.869  18.197  0.00  0.00    +0.000 C 
ATOM     14  C   UNL     1      -0.299  15.650  19.040  0.00  0.00    +0.000 A 
ATOM     15  N   UNL     1      -1.211  15.269  19.905  0.00  0.00    +0.000 NA
ATOM     16  C   UNL     1      -0.857  14.058  20.469  0.00  0.00    +0.000 A 
ATOM     17  C   UNL     1      -1.791  13.447  21.453  0.00  0.00    +0.000 C 
ATOM     18  C   UNL     1       0.354  13.533  20.032  0.00  0.00    +0.000 A 
ATOM     19  S   UNL     1       1.079  14.622  18.926  0.00  0.00    +0.000 S 
ENDBRANCH   9  18
ENDBRANCH   3  11
ENDBRANCH   1   7
BRANCH   1  20
ATOM     20  N   UNL     1       2.325   5.564  17.665  0.00  0.00    +0.000 N 
ATOM     21  H   UNL     1       1.467   5.340  18.162  0.00  0.00    +0.000 HD
BRANCH  20  22
ATOM     22  C   UNL     1       3.308   4.601  17.977  0.00  0.00    +0.000 A 
ATOM     23  N   UNL     1       3.140   4.014  19.157  0.00  0.00    +0.000 NA
ATOM     24  C   UNL     1       4.256   3.833  19.851  0.00  0.00    +0.000 A 
ATOM     25  N   UNL     1       5.462   4.262  19.508  0.00  0.00    +0.000 NA
ATOM     26  C   UNL     1       5.619   4.613  18.228  0.00  0.00    +0.000 A 
ATOM     27  C   UNL     1       6.908   4.925  17.786  0.00  0.00    +0.000 A 
ATOM     28  C   UNL     1       7.323   4.632  16.492  0.00  0.00    +0.000 A 
ATOM     29  C   UNL     1       6.369   4.182  15.584  0.00  0.00    +0.000 A 
ATOM     30  C   UNL     1       5.002   4.248  15.944  0.00  0.00    +0.000 A 
ATOM     31  C   UNL     1       4.580   4.525  17.306  0.00  0.00    +0.000 A 
BRANCH  27  32
ATOM     32  C   UNL     1       7.677   5.840  18.663  0.00  0.00    +0.000 C 
ATOM     33  N   UNL     1       8.150   5.372  19.856  0.00  0.00    +0.000 N 
ATOM     34  O   UNL     1       7.968   6.978  18.308  0.00  0.00    +0.000 OA
ATOM     35  H   UNL     1       7.790   4.537  20.286  0.00  0.00    +0.000 HD
ATOM     36  H   UNL     1       8.586   6.071  20.437  0.00  0.00    +0.000 HD
ENDBRANCH  27  32
ENDBRANCH  20  22
ENDBRANCH   1  20
TORSDOF 6
ENDMDL
MODEL 6
REMARK VINA RESULT:      -8.5      2.043      3.036
REMARK  Name = 
REMARK  9 active torsions:
REMARK  status: ('A' for Active; 'I' for Inactive)
REMARK    1  A    between atoms: C_1  and  C_2
REMARK    2  A    between atoms: C_4  and  C_5
REMARK    3  A    between atoms: C_6  and  C_7
REMARK    4  A    between atoms: N_9  and  C_10
REMARK    5  A    between atoms: C_14  and  C_15
REMARK    6  A    between atoms: C_15  and  C_16
REMARK    7  A    between atoms: C_15  and  N_17
REMARK    8  A    between atoms: N_17  and  C_18
REMARK    9  A    between atoms: C_23  and  C_24
REMARK                            x       y       z     vdW  Elec       q    Type
REMARK                         _______ _______ _______ _____ _____    ______ ____
ROOT
ATOM      1  C   UNL     1       1.909   7.933  19.311  0.00  0.00    +0.000 C 
ATOM      2  C   UNL     1       2.213   8.712  18.010  0.00  0.00    +0.000 C 
ENDROOT
BRANCH   1   7
ATOM      3  C   UNL     1       0.321  11.079  20.932  0.00  0.00    +0.000 A 
ATOM      4  C   UNL     1       0.128  10.668  22.248  0.00  0.00    +0.000 A 
ATOM      5  C   UNL     1       0.398   9.343  22.595  0.00  0.00    +0.000 A 
ATOM      6  C   UNL     1       0.903   8.439  21.645  0.00  0.00    +0.000 A 
ATOM      7  C   UNL     1       1.170   8.835  20.324  0.00  0.00    +0.000 A 
ATOM      8  C   UNL     1       0.870  10.175  19.995  0.00  0.00    +0.000 A 
BRANCH   3  11
ATOM      9  C   UNL     1       0.651  13.505  20.993  0.00  0.00    +0.000 C 
ATOM     10  O   UNL     1       1.647  13.400  21.698  0.00  0.00    +0.000 OA
ATOM     11  N   UNL     1      -0.078  12.395  20.573  0.00  0.00    +0.000 N 
ATOM     12  H   UNL     1      -0.657  12.512  19.752  0.00  0.00    +0.000 HD
BRANCH   9  18
ATOM     13  C   UNL     1      -1.028  17.657  18.148  0.00  0.00    +0.000 C 
ATOM     14  C   UNL     1      -0.522  16.726  19.192  0.00  0.00    +0.000 A 
ATOM     15  N   UNL     1      -0.513  17.016  20.473  0.00  0.00    +0.000 NA
ATOM     16  C   UNL     1      -0.077  15.927  21.205  0.00  0.00    +0.000 A 
ATOM     17  C   UNL     1      -0.032  16.056  22.687  0.00  0.00    +0.000 C 
ATOM     18  C   UNL     1       0.267  14.808  20.455  0.00  0.00    +0.000 A 
ATOM     19  S   UNL     1       0.082  15.163  18.789  0.00  0.00    +0.000 S 
ENDBRANCH   9  18
ENDBRANCH   3  11
ENDBRANCH   1   7
BRANCH   1  20
ATOM     20  N   UNL     1       3.016   7.041  19.863  0.00  0.00    +0.000 N 
ATOM     21  H   UNL     1       3.839   7.609  20.038  0.00  0.00    +0.000 HD
BRANCH  20  22
ATOM     22  C   UNL     1       3.389   5.894  19.130  0.00  0.00    +0.000 A 
ATOM     23  N   UNL     1       3.088   4.745  19.726  0.00  0.00    +0.000 NA
ATOM     24  C   UNL     1       4.025   3.810  19.636  0.00  0.00    +0.000 A 
ATOM     25  N   UNL     1       5.226   3.965  19.098  0.00  0.00    +0.000 NA
ATOM     26  C   UNL     1       5.383   5.030  18.305  0.00  0.00    +0.000 A 
ATOM     27  C   UNL     1       6.582   5.150  17.597  0.00  0.00    +0.000 A 
ATOM     28  C   UNL     1       6.623   5.722  16.330  0.00  0.00    +0.000 A 
ATOM     29  C   UNL     1       5.469   6.339  15.853  0.00  0.00    +0.000 A 
ATOM     30  C   UNL     1       4.391   6.549  16.744  0.00  0.00    +0.000 A 
ATOM     31  C   UNL     1       4.344   5.920  18.053  0.00  0.00    +0.000 A 
BRANCH  27  32
ATOM     32  C   UNL     1       7.814   4.917  18.387  0.00  0.00    +0.000 C 
ATOM     33  N   UNL     1       7.984   5.593  19.562  0.00  0.00    +0.000 N 
ATOM     34  O   UNL     1       8.642   4.075  18.054  0.00  0.00    +0.000 OA
ATOM     35  H   UNL     1       7.456   6.419  19.788  0.00  0.00    +0.000 HD
ATOM     36  H   UNL     1       8.882   5.451  20.000  0.00  0.00    +0.000 HD
ENDBRANCH  27  32
ENDBRANCH  20  22
ENDBRANCH   1  20
TORSDOF 6
ENDMDL
MODEL 7
REMARK VINA RESULT:      -8.5      3.114     10.888
REMARK  Name = 
REMARK  9 active torsions:
REMARK  status: ('A' for Active; 'I' for Inactive)
REMARK    1  A    between atoms: C_1  and  C_2
REMARK    2  A    between atoms: C_4  and  C_5
REMARK    3  A    between atoms: C_6  and  C_7
REMARK    4  A    between atoms: N_9  and  C_10
REMARK    5  A    between atoms: C_14  and  C_15
REMARK    6  A    between atoms: C_15  and  C_16
REMARK    7  A    between atoms: C_15  and  N_17
REMARK    8  A    between atoms: N_17  and  C_18
REMARK    9  A    between atoms: C_23  and  C_24
REMARK                            x       y       z     vdW  Elec       q    Type
REMARK                         _______ _______ _______ _____ _____    ______ ____
ROOT
ATOM      1  C   UNL     1       0.480  10.213  19.955  0.00  0.00    +0.000 C 
ATOM      2  C   UNL     1      -0.101  10.458  18.542  0.00  0.00    +0.000 C 
ENDROOT
BRANCH   1   7
ATOM      3  C   UNL     1       2.602   7.145  18.888  0.00  0.00    +0.000 A 
ATOM      4  C   UNL     1       2.295   6.215  19.877  0.00  0.00    +0.000 A 
ATOM      5  C   UNL     1       1.497   6.604  20.955  0.00  0.00    +0.000 A 
ATOM      6  C   UNL     1       0.968   7.903  21.026  0.00  0.00    +0.000 A 
ATOM      7  C   UNL     1       1.204   8.849  20.014  0.00  0.00    +0.000 A 
ATOM      8  C   UNL     1       2.029   8.436  18.946  0.00  0.00    +0.000 A 
BRANCH   3  11
ATOM      9  C   UNL     1       4.653   6.019  18.165  0.00  0.00    +0.000 C 
ATOM     10  O   UNL     1       4.925   5.676  19.309  0.00  0.00    +0.000 OA
ATOM     11  N   UNL     1       3.515   6.765  17.868  0.00  0.00    +0.000 N 
ATOM     12  H   UNL     1       3.178   6.725  16.915  0.00  0.00    +0.000 HD
BRANCH   9  18
ATOM     13  C   UNL     1       6.602   3.955  13.682  0.00  0.00    +0.000 C 
ATOM     14  C   UNL     1       6.378   4.630  14.989  0.00  0.00    +0.000 A 
ATOM     15  N   UNL     1       7.231   5.479  15.516  0.00  0.00    +0.000 NA
ATOM     16  C   UNL     1       6.713   6.012  16.682  0.00  0.00    +0.000 A 
ATOM     17  C   UNL     1       7.526   7.026  17.406  0.00  0.00    +0.000 C 
ATOM     18  C   UNL     1       5.457   5.538  17.044  0.00  0.00    +0.000 A 
ATOM     19  S   UNL     1       4.950   4.355  15.913  0.00  0.00    +0.000 S 
ENDBRANCH   9  18
ENDBRANCH   3  11
ENDBRANCH   1   7
BRANCH   1  20
ATOM     20  N   UNL     1      -0.401  10.576  21.144  0.00  0.00    +0.000 N 
ATOM     21  H   UNL     1      -1.204   9.954  21.161  0.00  0.00    +0.000 HD
BRANCH  20  22
ATOM     22  C   UNL     1      -0.844  11.910  21.275  0.00  0.00    +0.000 A 
ATOM     23  N   UNL     1      -0.017  12.693  21.961  0.00  0.00    +0.000 NA
ATOM     24  C   UNL     1      -0.613  13.528  22.802  0.00  0.00    +0.000 A 
ATOM     25  N   UNL     1      -1.912  13.570  23.064  0.00  0.00    +0.000 NA
ATOM     26  C   UNL     1      -2.710  12.955  22.185  0.00  0.00    +0.000 A 
ATOM     27  C   UNL     1      -4.091  13.104  22.338  0.00  0.00    +0.000 A 
ATOM     28  C   UNL     1      -4.943  13.145  21.239  0.00  0.00    +0.000 A 
ATOM     29  C   UNL     1      -4.410  12.855  19.986  0.00  0.00    +0.000 A 
ATOM     30  C   UNL     1      -3.100  12.325  19.910  0.00  0.00    +0.000 A 
ATOM     31  C   UNL     1      -2.208  12.315  21.057  0.00  0.00    +0.000 A 
BRANCH  27  32
ATOM     32  C   UNL     1      -4.604  12.909  23.714  0.00  0.00    +0.000 C 
ATOM     33  N   UNL     1      -5.468  13.832  24.236  0.00  0.00    +0.000 N 
ATOM     34  O   UNL     1      -4.339  11.903  24.364  0.00  0.00    +0.000 OA
ATOM     35  H   UNL     1      -5.568  14.754  23.847  0.00  0.00    +0.000 HD
ATOM     36  H   UNL     1      -5.705  13.682  25.204  0.00  0.00    +0.000 HD
ENDBRANCH  27  32
ENDBRANCH  20  22
ENDBRANCH   1  20
TORSDOF 6
ENDMDL
MODEL 8
REMARK VINA RESULT:      -8.4      3.085     10.160
REMARK  Name = 
REMARK  9 active torsions:
REMARK  status: ('A' for Active; 'I' for Inactive)
REMARK    1  A    between atoms: C_1  and  C_2
REMARK    2  A    between atoms: C_4  and  C_5
REMARK    3  A    between atoms: C_6  and  C_7
REMARK    4  A    between atoms: N_9  and  C_10
REMARK    5  A    between atoms: C_14  and  C_15
REMARK    6  A    between atoms: C_15  and  C_16
REMARK    7  A    between atoms: C_15  and  N_17
REMARK    8  A    between atoms: N_17  and  C_18
REMARK    9  A    between atoms: C_23  and  C_24
REMARK                            x       y       z     vdW  Elec       q    Type
REMARK                         _______ _______ _______ _____ _____    ______ ____
ROOT
ATOM      1  C   UNL     1       0.926   8.647  21.008  0.00  0.00    +0.000 C 
ATOM      2  C   UNL     1       1.557   9.062  22.358  0.00  0.00    +0.000 C 
ENDROOT
BRANCH   1   7
ATOM      3  C   UNL     1       2.781   6.004  18.857  0.00  0.00    +0.000 A 
ATOM      4  C   UNL     1       2.310   4.807  19.390  0.00  0.00    +0.000 A 
ATOM      5  C   UNL     1       1.486   4.839  20.516  0.00  0.00    +0.000 A 
ATOM      6  C   UNL     1       1.093   6.061  21.086  0.00  0.00    +0.000 A 
ATOM      7  C   UNL     1       1.496   7.290  20.537  0.00  0.00    +0.000 A 
ATOM      8  C   UNL     1       2.344   7.230  19.410  0.00  0.00    +0.000 A 
BRANCH   3  11
ATOM      9  C   UNL     1       4.998   5.437  17.987  0.00  0.00    +0.000 C 
ATOM     10  O   UNL     1       5.380   5.042  19.082  0.00  0.00    +0.000 OA
ATOM     11  N   UNL     1       3.716   5.944  17.790  0.00  0.00    +0.000 N 
ATOM     12  H   UNL     1       3.361   5.933  16.842  0.00  0.00    +0.000 HD
BRANCH   9  18
ATOM     13  C   UNL     1       7.163   4.398  13.256  0.00  0.00    +0.000 C 
ATOM     14  C   UNL     1       6.859   4.831  14.646  0.00  0.00    +0.000 A 
ATOM     15  N   UNL     1       7.567   5.730  15.291  0.00  0.00    +0.000 NA
ATOM     16  C   UNL     1       6.993   5.996  16.521  0.00  0.00    +0.000 A 
ATOM     17  C   UNL     1       7.640   7.021  17.385  0.00  0.00    +0.000 C 
ATOM     18  C   UNL     1       5.846   5.266  16.809  0.00  0.00    +0.000 A 
ATOM     19  S   UNL     1       5.520   4.187  15.519  0.00  0.00    +0.000 S 
ENDBRANCH   9  18
ENDBRANCH   3  11
ENDBRANCH   1   7
BRANCH   1  20
ATOM     20  N   UNL     1       0.768   9.732  19.949  0.00  0.00    +0.000 N 
ATOM     21  H   UNL     1       1.554  10.373  20.016  0.00  0.00    +0.000 HD
BRANCH  20  22
ATOM     22  C   UNL     1      -0.433  10.472  19.911  0.00  0.00    +0.000 A 
ATOM     23  N   UNL     1      -1.096  10.373  18.764  0.00  0.00    +0.000 NA
ATOM     24  C   UNL     1      -1.621  11.511  18.327  0.00  0.00    +0.000 A 
ATOM     25  N   UNL     1      -1.459  12.704  18.881  0.00  0.00    +0.000 NA
ATOM     26  C   UNL     1      -1.009  12.712  20.140  0.00  0.00    +0.000 A 
ATOM     27  C   UNL     1      -0.968  13.935  20.815  0.00  0.00    +0.000 A 
ATOM     28  C   UNL     1      -1.200  14.018  22.183  0.00  0.00    +0.000 A 
ATOM     29  C   UNL     1      -1.297  12.831  22.904  0.00  0.00    +0.000 A 
ATOM     30  C   UNL     1      -0.945  11.617  22.268  0.00  0.00    +0.000 A 
ATOM     31  C   UNL     1      -0.735  11.537  20.832  0.00  0.00    +0.000 A 
BRANCH  27  32
ATOM     32  C   UNL     1      -0.375  15.061  20.055  0.00  0.00    +0.000 C 
ATOM     33  N   UNL     1      -1.184  15.824  19.261  0.00  0.00    +0.000 N 
ATOM     34  O   UNL     1       0.804  15.375  20.186  0.00  0.00    +0.000 OA
ATOM     35  H   UNL     1      -2.093  15.511  18.962  0.00  0.00    +0.000 HD
ATOM     36  H   UNL     1      -0.699  16.514  18.709  0.00  0.00    +0.000 HD
ENDBRANCH  27  32
ENDBRANCH  20  22
ENDBRANCH   1  20
TORSDOF 6
ENDMDL
MODEL 9
REMARK VINA RESULT:      -8.3      3.953     10.855
REMARK  Name = 
REMARK  9 active torsions:
REMARK  status: ('A' for Active; 'I' for Inactive)
REMARK    1  A    between atoms: C_1  and  C_2
REMARK    2  A    between atoms: C_4  and  C_5
REMARK    3  A    between atoms: C_6  and  C_7
REMARK    4  A    between atoms: N_9  and  C_10
REMARK    5  A    between atoms: C_14  and  C_15
REMARK    6  A    between atoms: C_15  and  C_16
REMARK    7  A    between atoms: C_15  and  N_17
REMARK    8  A    between atoms: N_17  and  C_18
REMARK    9  A    between atoms: C_23  and  C_24
REMARK                            x       y       z     vdW  Elec       q    Type
REMARK                         _______ _______ _______ _____ _____    ______ ____
ROOT
ATOM      1  C   UNL     1       0.455  10.490  19.662  0.00  0.00    +0.000 C 
ATOM      2  C   UNL     1       1.129  11.369  18.581  0.00  0.00    +0.000 C 
ENDROOT
BRANCH   1   7
ATOM      3  C   UNL     1       2.624   7.398  18.776  0.00  0.00    +0.000 A 
ATOM      4  C   UNL     1       2.305   6.511  19.801  0.00  0.00    +0.000 A 
ATOM      5  C   UNL     1       1.484   6.940  20.845  0.00  0.00    +0.000 A 
ATOM      6  C   UNL     1       0.942   8.237  20.847  0.00  0.00    +0.000 A 
ATOM      7  C   UNL     1       1.189   9.138  19.797  0.00  0.00    +0.000 A 
ATOM      8  C   UNL     1       2.039   8.684  18.764  0.00  0.00    +0.000 A 
BRANCH   3  11
ATOM      9  C   UNL     1       4.594   6.105  18.111  0.00  0.00    +0.000 C 
ATOM     10  O   UNL     1       4.754   5.673  19.247  0.00  0.00    +0.000 OA
ATOM     11  N   UNL     1       3.560   6.981  17.793  0.00  0.00    +0.000 N 
ATOM     12  H   UNL     1       3.284   7.028  16.820  0.00  0.00    +0.000 HD
BRANCH   9  18
ATOM     13  C   UNL     1       6.623   3.967  13.699  0.00  0.00    +0.000 C 
ATOM     14  C   UNL     1       6.377   4.662  14.992  0.00  0.00    +0.000 A 
ATOM     15  N   UNL     1       7.222   5.516  15.523  0.00  0.00    +0.000 NA
ATOM     16  C   UNL     1       6.683   6.068  16.670  0.00  0.00    +0.000 A 
ATOM     17  C   UNL     1       7.486   7.090  17.396  0.00  0.00    +0.000 C 
ATOM     18  C   UNL     1       5.419   5.604  17.014  0.00  0.00    +0.000 A 
ATOM     19  S   UNL     1       4.929   4.407  15.890  0.00  0.00    +0.000 S 
ENDBRANCH   9  18
ENDBRANCH   3  11
ENDBRANCH   1   7
BRANCH   1  20
ATOM     20  N   UNL     1      -1.069  10.451  19.676  0.00  0.00    +0.000 N 
ATOM     21  H   UNL     1      -1.386   9.733  19.031  0.00  0.00    +0.000 HD
BRANCH  20  22
ATOM     22  C   UNL     1      -1.779  11.645  19.429  0.00  0.00    +0.000 A 
ATOM     23  N   UNL     1      -1.438  12.655  20.223  0.00  0.00    +0.000 NA
ATOM     24  C   UNL     1      -2.455  13.386  20.660  0.00  0.00    +0.000 A 
ATOM     25  N   UNL     1      -3.739  13.136  20.446  0.00  0.00    +0.000 NA
ATOM     26  C   UNL     1      -4.015  12.280  19.457  0.00  0.00    +0.000 A 
ATOM     27  C   UNL     1      -5.354  12.104  19.096  0.00  0.00    +0.000 A 
ATOM     28  C   UNL     1      -5.724  11.852  17.780  0.00  0.00    +0.000 A 
ATOM     29  C   UNL     1      -4.716  11.600  16.853  0.00  0.00    +0.000 A 
ATOM     30  C   UNL     1      -3.396  11.396  17.320  0.00  0.00    +0.000 A 
ATOM     31  C   UNL     1      -3.014  11.692  18.690  0.00  0.00    +0.000 A 
BRANCH  27  32
ATOM     32  C   UNL     1      -6.295  11.901  20.223  0.00  0.00    +0.000 C 
ATOM     33  N   UNL     1      -6.833  12.994  20.842  0.00  0.00    +0.000 N 
ATOM     34  O   UNL     1      -6.666  10.780  20.558  0.00  0.00    +0.000 OA
ATOM     35  H   UNL     1      -6.433  13.913  20.752  0.00  0.00    +0.000 HD
ATOM     36  H   UNL     1      -7.394  12.783  21.652  0.00  0.00    +0.000 HD
ENDBRANCH  27  32
ENDBRANCH  20  22
ENDBRANCH   1  20
TORSDOF 6
ENDMDL
