MODEL 1
REMARK VINA RESULT:      -8.1      0.000      0.000
REMARK  Name = 
REMARK  3 active torsions:
REMARK  status: ('A' for Active; 'I' for Inactive)
REMARK    1  A    between atoms: C_2  and  C_16
REMARK    2  A    between atoms: N_3  and  C_4
REMARK    3  A    between atoms: C_6  and  C_7
REMARK                            x       y       z     vdW  Elec       q    Type
REMARK                         _______ _______ _______ _____ _____    ______ ____
ROOT
ATOM      1  O   UNL     1       8.969   9.305  19.522  0.00  0.00    +0.000 OA
ATOM      2  C   UNL     1       8.906   9.742  18.385  0.00  0.00    +0.000 C 
ATOM      3  N   UNL     1       8.180   9.028  17.357  0.00  0.00    +0.000 N 
ATOM      4  H   UNL     1       8.216   9.367  16.404  0.00  0.00    +0.000 HD
ENDROOT
BRANCH   2   5
ATOM      5  C   UNL     1       9.617  10.986  17.933  0.00  0.00    +0.000 C 
ATOM      6  C   UNL     1       8.660  12.185  17.841  0.00  0.00    +0.000 C 
ATOM      7  C   UNL     1       9.576  13.319  18.165  0.00  0.00    +0.000 A 
ATOM      8  C   UNL     1       9.362  14.672  17.968  0.00  0.00    +0.000 A 
ATOM      9  C   UNL     1      10.345  15.568  18.394  0.00  0.00    +0.000 A 
ATOM     10  C   UNL     1      11.513  15.107  19.018  0.00  0.00    +0.000 A 
ATOM     11  C   UNL     1      11.718  13.742  19.224  0.00  0.00    +0.000 A 
ATOM     12  C   UNL     1      10.744  12.864  18.782  0.00  0.00    +0.000 A 
ATOM     13  C   UNL     1      10.723  11.379  18.936  0.00  0.00    +0.000 C 
ENDBRANCH   2   5
BRANCH   3  14
ATOM     14  C   UNL     1       7.484   7.851  17.619  0.00  0.00    +0.000 A 
ATOM     15  C   UNL     1       6.247   7.469  17.167  0.00  0.00    +0.000 A 
ATOM     16  C   UNL     1       5.932   6.249  17.816  0.00  0.00    +0.000 A 
ATOM     17  N   UNL     1       6.989   5.827  18.532  0.00  0.00    +0.000 NA
ATOM     18  N   UNL     1       7.903   6.805  18.399  0.00  0.00    +0.000 N 
ATOM     19  H   UNL     1       8.782   6.692  18.888  0.00  0.00    +0.000 HD
BRANCH  16  20
ATOM     20  C   UNL     1       4.681   5.485  17.735  0.00  0.00    +0.000 A 
ATOM     21  C   UNL     1       3.569   5.944  18.464  0.00  0.00    +0.000 A 
ATOM     22  C   UNL     1       2.352   5.255  18.438  0.00  0.00    +0.000 A 
ATOM     23  C   UNL     1       2.226   4.091  17.686  0.00  0.00    +0.000 A 
ATOM     24  C   UNL     1       3.313   3.620  16.955  0.00  0.00    +0.000 A 
ATOM     25  C   UNL     1       4.532   4.313  16.967  0.00  0.00    +0.000 A 
ATOM     26 CL   UNL     1       5.771   3.662  15.946  0.00  0.00    +0.000 Cl
ENDBRANCH  16  20
ENDBRANCH   3  14
TORSDOF 3
ENDMDL
MODEL 2
REMARK VINA RESULT:      -8.1      6.261      8.158
REMARK  Name = 
REMARK  3 active torsions:
REMARK  status: ('A' for Active; 'I' for Inactive)
REMARK    1  A    between atoms: C_2  and  C_16
REMARK    2  A    between atoms: N_3  and  C_4
REMARK    3  A    between atoms: C_6  and  C_7
REMARK                            x       y       z     vdW  Elec       q    Type
REMARK                         _______ _______ _______ _____ _____    ______ ____
ROOT
ATOM      1  O   UNL     1       5.872   5.194  18.959  0.00  0.00    +0.000 OA
ATOM      2  C   UNL     1       5.385   5.037  17.852  0.00  0.00    +0.000 C 
ATOM      3  N   UNL     1       4.000   5.369  17.599  0.00  0.00    +0.000 N 
ATOM      4  H   UNL     1       3.598   5.149  16.696  0.00  0.00    +0.000 HD
ENDROOT
BRANCH   2   5
ATOM      5  C   UNL     1       6.129   4.430  16.697  0.00  0.00    +0.000 C 
ATOM      6  C   UNL     1       5.170   3.826  15.658  0.00  0.00    +0.000 C 
ATOM      7  C   UNL     1       5.944   4.020  14.395  0.00  0.00    +0.000 A 
ATOM      8  C   UNL     1       5.725   3.433  13.162  0.00  0.00    +0.000 A 
ATOM      9  C   UNL     1       6.550   3.800  12.096  0.00  0.00    +0.000 A 
ATOM     10  C   UNL     1       7.564   4.752  12.270  0.00  0.00    +0.000 A 
ATOM     11  C   UNL     1       7.772   5.350  13.514  0.00  0.00    +0.000 A 
ATOM     12  C   UNL     1       6.959   4.965  14.565  0.00  0.00    +0.000 A 
ATOM     13  C   UNL     1       6.964   5.499  15.960  0.00  0.00    +0.000 C 
ENDBRANCH   2   5
BRANCH   3  14
ATOM     14  C   UNL     1       3.177   5.924  18.575  0.00  0.00    +0.000 A 
ATOM     15  C   UNL     1       2.632   7.182  18.622  0.00  0.00    +0.000 A 
ATOM     16  C   UNL     1       1.981   7.300  19.875  0.00  0.00    +0.000 A 
ATOM     17  N   UNL     1       2.007   6.118  20.516  0.00  0.00    +0.000 NA
ATOM     18  N   UNL     1       2.731   5.313  19.717  0.00  0.00    +0.000 N 
ATOM     19  H   UNL     1       2.890   4.364  20.032  0.00  0.00    +0.000 HD
BRANCH  16  20
ATOM     20  C   UNL     1       1.323   8.485  20.438  0.00  0.00    +0.000 A 
ATOM     21  C   UNL     1       1.069   8.515  21.821  0.00  0.00    +0.000 A 
ATOM     22  C   UNL     1       0.435   9.610  22.417  0.00  0.00    +0.000 A 
ATOM     23  C   UNL     1       0.039  10.694  21.641  0.00  0.00    +0.000 A 
ATOM     24  C   UNL     1       0.283  10.687  20.270  0.00  0.00    +0.000 A 
ATOM     25  C   UNL     1       0.929   9.598  19.668  0.00  0.00    +0.000 A 
ATOM     26 CL   UNL     1       1.245   9.760  17.972  0.00  0.00    +0.000 Cl
ENDBRANCH  16  20
ENDBRANCH   3  14
TORSDOF 3
ENDMDL
MODEL 3
REMARK VINA RESULT:      -8.1      2.606      9.540
REMARK  Name = 
REMARK  3 active torsions:
REMARK  status: ('A' for Active; 'I' for Inactive)
REMARK    1  A    between atoms: C_2  and  C_16
REMARK    2  A    between atoms: N_3  and  C_4
REMARK    3  A    between atoms: C_6  and  C_7
REMARK                            x       y       z     vdW  Elec       q    Type
REMARK                         _______ _______ _______ _____ _____    ______ ____
ROOT
ATOM      1  O   UNL     1       8.042   6.548  18.773  0.00  0.00    +0.000 OA
ATOM      2  C   UNL     1       7.247   6.931  17.931  0.00  0.00    +0.000 C 
ATOM      3  N   UNL     1       7.229   8.313  17.505  0.00  0.00    +0.000 N 
ATOM      4  H   UNL     1       6.503   8.623  16.870  0.00  0.00    +0.000 HD
ENDROOT
BRANCH   2   5
ATOM      5  C   UNL     1       6.188   6.051  17.330  0.00  0.00    +0.000 C 
ATOM      6  C   UNL     1       6.234   4.629  17.911  0.00  0.00    +0.000 C 
ATOM      7  C   UNL     1       4.796   4.233  17.836  0.00  0.00    +0.000 A 
ATOM      8  C   UNL     1       4.253   2.966  17.954  0.00  0.00    +0.000 A 
ATOM      9  C   UNL     1       2.864   2.832  17.899  0.00  0.00    +0.000 A 
ATOM     10  C   UNL     1       2.041   3.956  17.742  0.00  0.00    +0.000 A 
ATOM     11  C   UNL     1       2.595   5.232  17.635  0.00  0.00    +0.000 A 
ATOM     12  C   UNL     1       3.973   5.350  17.675  0.00  0.00    +0.000 A 
ATOM     13  C   UNL     1       4.779   6.606  17.629  0.00  0.00    +0.000 C 
ENDBRANCH   2   5
BRANCH   3  14
ATOM     14  C   UNL     1       8.137   9.253  17.986  0.00  0.00    +0.000 A 
ATOM     15  C   UNL     1       8.432  10.494  17.483  0.00  0.00    +0.000 A 
ATOM     16  C   UNL     1       9.509  11.002  18.252  0.00  0.00    +0.000 A 
ATOM     17  N   UNL     1       9.774  10.167  19.273  0.00  0.00    +0.000 NA
ATOM     18  N   UNL     1       8.941   9.128  19.089  0.00  0.00    +0.000 N 
ATOM     19  H   UNL     1       8.995   8.364  19.751  0.00  0.00    +0.000 HD
BRANCH  16  20
ATOM     20  C   UNL     1      10.244  12.256  18.051  0.00  0.00    +0.000 A 
ATOM     21  C   UNL     1      11.563  12.188  17.565  0.00  0.00    +0.000 A 
ATOM     22  C   UNL     1      12.320  13.346  17.362  0.00  0.00    +0.000 A 
ATOM     23  C   UNL     1      11.776  14.594  17.645  0.00  0.00    +0.000 A 
ATOM     24  C   UNL     1      10.471  14.686  18.125  0.00  0.00    +0.000 A 
ATOM     25  C   UNL     1       9.702  13.529  18.319  0.00  0.00    +0.000 A 
ATOM     26 CL   UNL     1       8.070  13.796  18.837  0.00  0.00    +0.000 Cl
ENDBRANCH  16  20
ENDBRANCH   3  14
TORSDOF 3
ENDMDL
MODEL 4
REMARK VINA RESULT:      -8.0      7.750     11.018
REMARK  Name = 
REMARK  3 active torsions:
REMARK  status: ('A' for Active; 'I' for Inactive)
REMARK    1  A    between atoms: C_2  and  C_16
REMARK    2  A    between atoms: N_3  and  C_4
REMARK    3  A    between atoms: C_6  and  C_7
REMARK                            x       y       z     vdW  Elec       q    Type
REMARK                         _______ _______ _______ _____ _____    ______ ____
ROOT
ATOM      1  O   UNL     1       1.830   8.631  18.931  0.00  0.00    +0.000 OA
ATOM      2  C   UNL     1       1.873   7.818  19.839  0.00  0.00    +0.000 C 
ATOM      3  N   UNL     1       1.378   8.153  21.156  0.00  0.00    +0.000 N 
ATOM      4  H   UNL     1       1.505   7.492  21.912  0.00  0.00    +0.000 HD
ENDROOT
BRANCH   2   5
ATOM      5  C   UNL     1       2.498   6.459  19.706  0.00  0.00    +0.000 C 
ATOM      6  C   UNL     1       1.725   5.398  20.507  0.00  0.00    +0.000 C 
ATOM      7  C   UNL     1       1.957   4.177  19.679  0.00  0.00    +0.000 A 
ATOM      8  C   UNL     1       1.746   2.855  20.031  0.00  0.00    +0.000 A 
ATOM      9  C   UNL     1       1.987   1.867  19.074  0.00  0.00    +0.000 A 
ATOM     10  C   UNL     1       2.417   2.209  17.784  0.00  0.00    +0.000 A 
ATOM     11  C   UNL     1       2.616   3.544  17.432  0.00  0.00    +0.000 A 
ATOM     12  C   UNL     1       2.390   4.513  18.395  0.00  0.00    +0.000 A 
ATOM     13  C   UNL     1       2.489   5.994  18.234  0.00  0.00    +0.000 C 
ENDBRANCH   2   5
BRANCH   3  14
ATOM     14  C   UNL     1       0.787   9.381  21.440  0.00  0.00    +0.000 A 
ATOM     15  C   UNL     1      -0.498   9.641  21.843  0.00  0.00    +0.000 A 
ATOM     16  C   UNL     1      -0.640  11.051  21.873  0.00  0.00    +0.000 A 
ATOM     17  N   UNL     1       0.547  11.635  21.633  0.00  0.00    +0.000 NA
ATOM     18  N   UNL     1       1.383  10.614  21.374  0.00  0.00    +0.000 N 
ATOM     19  H   UNL     1       2.342  10.842  21.143  0.00  0.00    +0.000 HD
BRANCH  16  20
ATOM     20  C   UNL     1      -1.855  11.826  22.156  0.00  0.00    +0.000 A 
ATOM     21  C   UNL     1      -2.352  11.832  23.472  0.00  0.00    +0.000 A 
ATOM     22  C   UNL     1      -3.511  12.541  23.805  0.00  0.00    +0.000 A 
ATOM     23  C   UNL     1      -4.197  13.254  22.827  0.00  0.00    +0.000 A 
ATOM     24  C   UNL     1      -3.721  13.264  21.518  0.00  0.00    +0.000 A 
ATOM     25  C   UNL     1      -2.553  12.566  21.181  0.00  0.00    +0.000 A 
ATOM     26 CL   UNL     1      -2.029  12.735  19.538  0.00  0.00    +0.000 Cl
ENDBRANCH  16  20
ENDBRANCH   3  14
TORSDOF 3
ENDMDL
MODEL 5
REMARK VINA RESULT:      -8.0      6.878      9.270
REMARK  Name = 
REMARK  3 active torsions:
REMARK  status: ('A' for Active; 'I' for Inactive)
REMARK    1  A    between atoms: C_2  and  C_16
REMARK    2  A    between atoms: N_3  and  C_4
REMARK    3  A    between atoms: C_6  and  C_7
REMARK                            x       y       z     vdW  Elec       q    Type
REMARK                         _______ _______ _______ _____ _____    ______ ____
ROOT
ATOM      1  O   UNL     1       1.659   5.741  20.882  0.00  0.00    +0.000 OA
ATOM      2  C   UNL     1       2.224   6.299  19.956  0.00  0.00    +0.000 C 
ATOM      3  N   UNL     1       2.135   7.733  19.792  0.00  0.00    +0.000 N 
ATOM      4  H   UNL     1       2.540   8.159  18.968  0.00  0.00    +0.000 HD
ENDROOT
BRANCH   2   5
ATOM      5  C   UNL     1       2.978   5.567  18.884  0.00  0.00    +0.000 C 
ATOM      6  C   UNL     1       3.283   6.476  17.682  0.00  0.00    +0.000 C 
ATOM      7  C   UNL     1       4.573   5.901  17.197  0.00  0.00    +0.000 A 
ATOM      8  C   UNL     1       5.199   6.116  15.982  0.00  0.00    +0.000 A 
ATOM      9  C   UNL     1       6.436   5.508  15.755  0.00  0.00    +0.000 A 
ATOM     10  C   UNL     1       7.033   4.710  16.742  0.00  0.00    +0.000 A 
ATOM     11  C   UNL     1       6.402   4.507  17.970  0.00  0.00    +0.000 A 
ATOM     12  C   UNL     1       5.169   5.102  18.175  0.00  0.00    +0.000 A 
ATOM     13  C   UNL     1       4.338   5.066  19.415  0.00  0.00    +0.000 C 
ENDBRANCH   2   5
BRANCH   3  14
ATOM     14  C   UNL     1       1.455   8.545  20.695  0.00  0.00    +0.000 A 
ATOM     15  C   UNL     1       0.413   9.405  20.458  0.00  0.00    +0.000 A 
ATOM     16  C   UNL     1       0.163  10.091  21.673  0.00  0.00    +0.000 A 
ATOM     17  N   UNL     1       0.927   9.576  22.653  0.00  0.00    +0.000 NA
ATOM     18  N   UNL     1       1.692   8.655  22.040  0.00  0.00    +0.000 N 
ATOM     19  H   UNL     1       2.366   8.155  22.608  0.00  0.00    +0.000 HD
BRANCH  16  20
ATOM     20  C   UNL     1      -0.795  11.177  21.911  0.00  0.00    +0.000 A 
ATOM     21  C   UNL     1      -1.581  11.131  23.077  0.00  0.00    +0.000 A 
ATOM     22  C   UNL     1      -2.520  12.129  23.357  0.00  0.00    +0.000 A 
ATOM     23  C   UNL     1      -2.694  13.190  22.474  0.00  0.00    +0.000 A 
ATOM     24  C   UNL     1      -1.925  13.257  21.315  0.00  0.00    +0.000 A 
ATOM     25  C   UNL     1      -0.973  12.266  21.035  0.00  0.00    +0.000 A 
ATOM     26 CL   UNL     1      -0.029  12.520  19.605  0.00  0.00    +0.000 Cl
ENDBRANCH  16  20
ENDBRANCH   3  14
TORSDOF 3
ENDMDL
MODEL 6
REMARK VINA RESULT:      -8.0      2.794      9.581
REMARK  Name = 
REMARK  3 active torsions:
REMARK  status: ('A' for Active; 'I' for Inactive)
REMARK    1  A    between atoms: C_2  and  C_16
REMARK    2  A    between atoms: N_3  and  C_4
REMARK    3  A    between atoms: C_6  and  C_7
REMARK                            x       y       z     vdW  Elec       q    Type
REMARK                         _______ _______ _______ _____ _____    ______ ____
ROOT
ATOM      1  O   UNL     1       7.343   6.250  15.954  0.00  0.00    +0.000 OA
ATOM      2  C   UNL     1       6.920   5.948  17.058  0.00  0.00    +0.000 C 
ATOM      3  N   UNL     1       7.101   6.834  18.187  0.00  0.00    +0.000 N 
ATOM      4  H   UNL     1       6.817   6.521  19.107  0.00  0.00    +0.000 HD
ENDROOT
BRANCH   2   5
ATOM      5  C   UNL     1       6.261   4.633  17.361  0.00  0.00    +0.000 C 
ATOM      6  C   UNL     1       5.806   4.551  18.828  0.00  0.00    +0.000 C 
ATOM      7  C   UNL     1       4.605   3.671  18.715  0.00  0.00    +0.000 A 
ATOM      8  C   UNL     1       3.933   3.011  19.729  0.00  0.00    +0.000 A 
ATOM      9  C   UNL     1       2.794   2.273  19.400  0.00  0.00    +0.000 A 
ATOM     10  C   UNL     1       2.336   2.215  18.076  0.00  0.00    +0.000 A 
ATOM     11  C   UNL     1       3.012   2.892  17.060  0.00  0.00    +0.000 A 
ATOM     12  C   UNL     1       4.149   3.606  17.397  0.00  0.00    +0.000 A 
ATOM     13  C   UNL     1       4.997   4.441  16.495  0.00  0.00    +0.000 C 
ENDBRANCH   2   5
BRANCH   3  14
ATOM     14  C   UNL     1       7.709   8.080  18.066  0.00  0.00    +0.000 A 
ATOM     15  C   UNL     1       8.820   8.557  18.715  0.00  0.00    +0.000 A 
ATOM     16  C   UNL     1       8.958   9.917  18.343  0.00  0.00    +0.000 A 
ATOM     17  N   UNL     1       8.052  10.227  17.399  0.00  0.00    +0.000 NA
ATOM     18  N   UNL     1       7.316   9.111  17.254  0.00  0.00    +0.000 N 
ATOM     19  H   UNL     1       6.551   9.139  16.592  0.00  0.00    +0.000 HD
BRANCH  16  20
ATOM     20  C   UNL     1       9.940  10.889  18.839  0.00  0.00    +0.000 A 
ATOM     21  C   UNL     1      10.889  11.402  17.936  0.00  0.00    +0.000 A 
ATOM     22  C   UNL     1      11.858  12.322  18.348  0.00  0.00    +0.000 A 
ATOM     23  C   UNL     1      11.900  12.744  19.672  0.00  0.00    +0.000 A 
ATOM     24  C   UNL     1      10.969  12.252  20.584  0.00  0.00    +0.000 A 
ATOM     25  C   UNL     1       9.987  11.339  20.174  0.00  0.00    +0.000 A 
ATOM     26 CL   UNL     1       8.843  10.877  21.391  0.00  0.00    +0.000 Cl
ENDBRANCH  16  20
ENDBRANCH   3  14
TORSDOF 3
ENDMDL
MODEL 7
REMARK VINA RESULT:      -7.9      7.396     10.385
REMARK  Name = 
REMARK  3 active torsions:
REMARK  status: ('A' for Active; 'I' for Inactive)
REMARK    1  A    between atoms: C_2  and  C_16
REMARK    2  A    between atoms: N_3  and  C_4
REMARK    3  A    between atoms: C_6  and  C_7
REMARK                            x       y       z     vdW  Elec       q    Type
REMARK                         _______ _______ _______ _____ _____    ______ ____
ROOT
ATOM      1  O   UNL     1       2.067   8.519  18.601  0.00  0.00    +0.000 OA
ATOM      2  C   UNL     1       2.269   7.486  19.216  0.00  0.00    +0.000 C 
ATOM      3  N   UNL     1       1.905   7.373  20.612  0.00  0.00    +0.000 N 
ATOM      4  H   UNL     1       2.162   6.537  21.121  0.00  0.00    +0.000 HD
ENDROOT
BRANCH   2   5
ATOM      5  C   UNL     1       2.965   6.292  18.627  0.00  0.00    +0.000 C 
ATOM      6  C   UNL     1       3.747   5.507  19.694  0.00  0.00    +0.000 C 
ATOM      7  C   UNL     1       3.660   4.116  19.158  0.00  0.00    +0.000 A 
ATOM      8  C   UNL     1       4.404   3.011  19.531  0.00  0.00    +0.000 A 
ATOM      9  C   UNL     1       4.119   1.784  18.926  0.00  0.00    +0.000 A 
ATOM     10  C   UNL     1       3.094   1.675  17.976  0.00  0.00    +0.000 A 
ATOM     11  C   UNL     1       2.339   2.791  17.614  0.00  0.00    +0.000 A 
ATOM     12  C   UNL     1       2.642   4.004  18.208  0.00  0.00    +0.000 A 
ATOM     13  C   UNL     1       1.944   5.310  18.015  0.00  0.00    +0.000 C 
ENDBRANCH   2   5
BRANCH   3  14
ATOM     14  C   UNL     1       1.268   8.402  21.301  0.00  0.00    +0.000 A 
ATOM     15  C   UNL     1       0.107   9.057  20.980  0.00  0.00    +0.000 A 
ATOM     16  C   UNL     1      -0.048  10.102  21.924  0.00  0.00    +0.000 A 
ATOM     17  N   UNL     1       0.904  10.008  22.869  0.00  0.00    +0.000 NA
ATOM     18  N   UNL     1       1.679   8.985  22.471  0.00  0.00    +0.000 N 
ATOM     19  H   UNL     1       2.482   8.757  23.044  0.00  0.00    +0.000 HD
BRANCH  16  20
ATOM     20  C   UNL     1      -1.087  11.139  21.954  0.00  0.00    +0.000 A 
ATOM     21  C   UNL     1      -1.796  11.340  23.152  0.00  0.00    +0.000 A 
ATOM     22  C   UNL     1      -2.806  12.304  23.243  0.00  0.00    +0.000 A 
ATOM     23  C   UNL     1      -3.127  13.083  22.137  0.00  0.00    +0.000 A 
ATOM     24  C   UNL     1      -2.435  12.904  20.941  0.00  0.00    +0.000 A 
ATOM     25  C   UNL     1      -1.415  11.948  20.847  0.00  0.00    +0.000 A 
ATOM     26 CL   UNL     1      -0.582  11.891  19.328  0.00  0.00    +0.000 Cl
ENDBRANCH  16  20
ENDBRANCH   3  14
TORSDOF 3
ENDMDL
MODEL 8
REMARK VINA RESULT:      -7.9      1.177      1.495
REMARK  Name = 
REMARK  3 active torsions:
REMARK  status: ('A' for Active; 'I' for Inactive)
REMARK    1  A    between atoms: C_2  and  C_16
REMARK    2  A    between atoms: N_3  and  C_4
REMARK    3  A    between atoms: C_6  and  C_7
REMARK                            x       y       z     vdW  Elec       q    Type
REMARK                         _______ _______ _______ _____ _____    ______ ____
ROOT
ATOM      1  O   UNL     1       8.918   8.945  19.473  0.00  0.00    +0.000 OA
ATOM      2  C   UNL     1       8.742   9.467  18.384  0.00  0.00    +0.000 C 
ATOM      3  N   UNL     1       7.919   8.827  17.381  0.00  0.00    +0.000 N 
ATOM      4  H   UNL     1       7.860   9.238  16.458  0.00  0.00    +0.000 HD
ENDROOT
BRANCH   2   5
ATOM      5  C   UNL     1       9.404  10.747  17.962  0.00  0.00    +0.000 C 
ATOM      6  C   UNL     1       8.383  11.882  17.782  0.00  0.00    +0.000 C 
ATOM      7  C   UNL     1       9.201  13.076  18.149  0.00  0.00    +0.000 A 
ATOM      8  C   UNL     1       8.917  14.409  17.914  0.00  0.00    +0.000 A 
ATOM      9  C   UNL     1       9.809  15.372  18.392  0.00  0.00    +0.000 A 
ATOM     10  C   UNL     1      10.956  14.995  19.104  0.00  0.00    +0.000 A 
ATOM     11  C   UNL     1      11.231  13.649  19.348  0.00  0.00    +0.000 A 
ATOM     12  C   UNL     1      10.348  12.704  18.855  0.00  0.00    +0.000 A 
ATOM     13  C   UNL     1      10.409  11.223  19.033  0.00  0.00    +0.000 C 
ENDBRANCH   2   5
BRANCH   3  14
ATOM     14  C   UNL     1       7.253   7.628  17.619  0.00  0.00    +0.000 A 
ATOM     15  C   UNL     1       6.002   7.246  17.206  0.00  0.00    +0.000 A 
ATOM     16  C   UNL     1       5.735   5.993  17.811  0.00  0.00    +0.000 A 
ATOM     17  N   UNL     1       6.830   5.556  18.458  0.00  0.00    +0.000 NA
ATOM     18  N   UNL     1       7.722   6.554  18.330  0.00  0.00    +0.000 N 
ATOM     19  H   UNL     1       8.625   6.433  18.772  0.00  0.00    +0.000 HD
BRANCH  16  20
ATOM     20  C   UNL     1       4.493   5.212  17.751  0.00  0.00    +0.000 A 
ATOM     21  C   UNL     1       4.584   3.829  17.508  0.00  0.00    +0.000 A 
ATOM     22  C   UNL     1       3.438   3.032  17.427  0.00  0.00    +0.000 A 
ATOM     23  C   UNL     1       2.180   3.602  17.585  0.00  0.00    +0.000 A 
ATOM     24  C   UNL     1       2.066   4.969  17.829  0.00  0.00    +0.000 A 
ATOM     25  C   UNL     1       3.211   5.771  17.923  0.00  0.00    +0.000 A 
ATOM     26 CL   UNL     1       2.927   7.435  18.315  0.00  0.00    +0.000 Cl
ENDBRANCH  16  20
ENDBRANCH   3  14
TORSDOF 3
ENDMDL
MODEL 9
REMARK VINA RESULT:      -7.9      7.803     11.214
REMARK  Name = 
REMARK  3 active torsions:
REMARK  status: ('A' for Active; 'I' for Inactive)
REMARK    1  A    between atoms: C_2  and  C_16
REMARK    2  A    between atoms: N_3  and  C_4
REMARK    3  A    between atoms: C_6  and  C_7
REMARK                            x       y       z     vdW  Elec       q    Type
REMARK                         _______ _______ _______ _____ _____    ______ ____
ROOT
ATOM      1  O   UNL     1       1.851   8.771  18.772  0.00  0.00    +0.000 OA
ATOM      2  C   UNL     1       1.837   8.012  19.727  0.00  0.00    +0.000 C 
ATOM      3  N   UNL     1       1.323   8.444  21.008  0.00  0.00    +0.000 N 
ATOM      4  H   UNL     1       1.402   7.824  21.804  0.00  0.00    +0.000 HD
ENDROOT
BRANCH   2   5
ATOM      5  C   UNL     1       2.407   6.623  19.690  0.00  0.00    +0.000 C 
ATOM      6  C   UNL     1       1.560   5.640  20.515  0.00  0.00    +0.000 C 
ATOM      7  C   UNL     1       1.770   4.367  19.763  0.00  0.00    +0.000 A 
ATOM      8  C   UNL     1       1.490   3.076  20.175  0.00  0.00    +0.000 A 
ATOM      9  C   UNL     1       1.723   2.028  19.282  0.00  0.00    +0.000 A 
ATOM     10  C   UNL     1       2.215   2.282  17.994  0.00  0.00    +0.000 A 
ATOM     11  C   UNL     1       2.484   3.587  17.579  0.00  0.00    +0.000 A 
ATOM     12  C   UNL     1       2.265   4.614  18.480  0.00  0.00    +0.000 A 
ATOM     13  C   UNL     1       2.433   6.079  18.245  0.00  0.00    +0.000 C 
ENDBRANCH   2   5
BRANCH   3  14
ATOM     14  C   UNL     1       0.777   9.710  21.202  0.00  0.00    +0.000 A 
ATOM     15  C   UNL     1       0.018  10.163  22.251  0.00  0.00    +0.000 A 
ATOM     16  C   UNL     1      -0.397  11.477  21.918  0.00  0.00    +0.000 A 
ATOM     17  N   UNL     1       0.196  11.867  20.776  0.00  0.00    +0.000 NA
ATOM     18  N   UNL     1       0.890  10.790  20.367  0.00  0.00    +0.000 N 
ATOM     19  H   UNL     1       1.403  10.868  19.497  0.00  0.00    +0.000 HD
BRANCH  16  20
ATOM     20  C   UNL     1      -1.299  12.353  22.675  0.00  0.00    +0.000 A 
ATOM     21  C   UNL     1      -2.476  11.799  23.210  0.00  0.00    +0.000 A 
ATOM     22  C   UNL     1      -3.383  12.583  23.931  0.00  0.00    +0.000 A 
ATOM     23  C   UNL     1      -3.131  13.937  24.128  0.00  0.00    +0.000 A 
ATOM     24  C   UNL     1      -1.970  14.506  23.610  0.00  0.00    +0.000 A 
ATOM     25  C   UNL     1      -1.052  13.723  22.897  0.00  0.00    +0.000 A 
ATOM     26 CL   UNL     1       0.388  14.541  22.385  0.00  0.00    +0.000 Cl
ENDBRANCH  16  20
ENDBRANCH   3  14
TORSDOF 3
ENDMDL
