MODEL 1
REMARK VINA RESULT:      -8.5      0.000      0.000
REMARK  Name = 
REMARK  7 active torsions:
REMARK  status: ('A' for Active; 'I' for Inactive)
REMARK    1  A    between atoms: C_1  and  O_2
REMARK    2  A    between atoms: O_2  and  C_3
REMARK    3  A    between atoms: C_3  and  C_5
REMARK    4  A    between atoms: C_10  and  C_11
REMARK    5  A    between atoms: C_11  and  N_12
REMARK    6  A    between atoms: N_15  and  C_16
REMARK    7  A    between atoms: C_24  and  C_25
REMARK                            x       y       z     vdW  Elec       q    Type
REMARK                         _______ _______ _______ _____ _____    ______ ____
ROOT
ATOM      1  C   UNL     1       5.306   5.205  16.017  0.00  0.00    +0.000 A 
ATOM      2  C   UNL     1       5.131   6.535  16.094  0.00  0.00    +0.000 A 
ATOM      3  N   UNL     1       4.296   7.175  16.981  0.00  0.00    +0.000 N 
ATOM      4  C   UNL     1       3.652   6.463  18.002  0.00  0.00    +0.000 A 
ATOM      5  C   UNL     1       2.833   7.096  18.946  0.00  0.00    +0.000 A 
ATOM      6  C   UNL     1       2.203   6.371  19.993  0.00  0.00    +0.000 A 
ATOM      7  C   UNL     1       2.472   4.990  20.118  0.00  0.00    +0.000 A 
ATOM      8  C   UNL     1       2.029   4.142  21.278  0.00  0.00    +0.000 C 
ATOM      9  C   UNL     1       3.220   4.348  19.113  0.00  0.00    +0.000 A 
ATOM     10  C   UNL     1       3.785   5.073  18.060  0.00  0.00    +0.000 A 
ATOM     11  C   UNL     1       4.535   4.369  16.983  0.00  0.00    +0.000 A 
ATOM     12  O   UNL     1       4.467   3.147  16.907  0.00  0.00    +0.000 OA
ATOM     13  H   UNL     1       4.265   8.188  16.981  0.00  0.00    +0.000 HD
ENDROOT
BRANCH   1  14
ATOM     14  C   UNL     1       6.231   4.669  14.982  0.00  0.00    +0.000 C 
ATOM     15  O   UNL     1       7.447   4.711  15.072  0.00  0.00    +0.000 OA
BRANCH  14  17
ATOM     16  C   UNL     1       6.327   3.623  12.875  0.00  0.00    +0.000 C 
ATOM     17  O   UNL     1       5.537   4.116  13.962  0.00  0.00    +0.000 OA
ENDBRANCH  14  17
ENDBRANCH   1  14
BRANCH   6  18
ATOM     18  C   UNL     1       1.198   7.097  20.884  0.00  0.00    +0.000 C 
BRANCH  18  19
ATOM     19  N   UNL     1       1.436   8.541  20.981  0.00  0.00    +0.000 NA
ATOM     20  C   UNL     1       0.809   9.399  19.963  0.00  0.00    +0.000 C 
ATOM     21  C   UNL     1      -0.487  10.179  20.302  0.00  0.00    +0.000 C 
ATOM     22  N   UNL     1      -0.450  10.780  21.651  0.00  0.00    +0.000 N 
ATOM     23  C   UNL     1      -0.044   9.821  22.694  0.00  0.00    +0.000 C 
ATOM     24  C   UNL     1       1.271   9.080  22.341  0.00  0.00    +0.000 C 
BRANCH  22  25
ATOM     25  C   UNL     1      -1.465  11.710  21.951  0.00  0.00    +0.000 A 
ATOM     26  C   UNL     1      -1.970  12.630  21.014  0.00  0.00    +0.000 A 
ATOM     27  C   UNL     1      -3.037  13.497  21.312  0.00  0.00    +0.000 A 
ATOM     28  C   UNL     1      -3.634  13.467  22.564  0.00  0.00    +0.000 A 
ATOM     29  C   UNL     1      -3.161  12.579  23.515  0.00  0.00    +0.000 A 
ATOM     30  C   UNL     1      -2.095  11.715  23.210  0.00  0.00    +0.000 A 
ENDBRANCH  22  25
ENDBRANCH  18  19
ENDBRANCH   6  18
TORSDOF 5
ENDMDL
MODEL 2
REMARK VINA RESULT:      -8.3      1.677      2.495
REMARK  Name = 
REMARK  7 active torsions:
REMARK  status: ('A' for Active; 'I' for Inactive)
REMARK    1  A    between atoms: C_1  and  O_2
REMARK    2  A    between atoms: O_2  and  C_3
REMARK    3  A    between atoms: C_3  and  C_5
REMARK    4  A    between atoms: C_10  and  C_11
REMARK    5  A    between atoms: C_11  and  N_12
REMARK    6  A    between atoms: N_15  and  C_16
REMARK    7  A    between atoms: C_24  and  C_25
REMARK                            x       y       z     vdW  Elec       q    Type
REMARK                         _______ _______ _______ _____ _____    ______ ____
ROOT
ATOM      1  C   UNL     1       6.075   5.248  17.560  0.00  0.00    +0.000 A 
ATOM      2  C   UNL     1       5.652   4.587  18.650  0.00  0.00    +0.000 A 
ATOM      3  N   UNL     1       4.616   4.982  19.464  0.00  0.00    +0.000 N 
ATOM      4  C   UNL     1       3.804   6.070  19.116  0.00  0.00    +0.000 A 
ATOM      5  C   UNL     1       2.714   6.466  19.902  0.00  0.00    +0.000 A 
ATOM      6  C   UNL     1       1.882   7.555  19.530  0.00  0.00    +0.000 A 
ATOM      7  C   UNL     1       2.124   8.204  18.300  0.00  0.00    +0.000 A 
ATOM      8  C   UNL     1       1.218   9.240  17.694  0.00  0.00    +0.000 C 
ATOM      9  C   UNL     1       3.274   7.861  17.564  0.00  0.00    +0.000 A 
ATOM     10  C   UNL     1       4.112   6.821  17.978  0.00  0.00    +0.000 A 
ATOM     11  C   UNL     1       5.348   6.503  17.210  0.00  0.00    +0.000 A 
ATOM     12  O   UNL     1       5.738   7.287  16.352  0.00  0.00    +0.000 OA
ATOM     13  H   UNL     1       4.352   4.390  20.243  0.00  0.00    +0.000 HD
ENDROOT
BRANCH   1  14
ATOM     14  C   UNL     1       7.230   4.698  16.799  0.00  0.00    +0.000 C 
ATOM     15  O   UNL     1       8.181   4.140  17.321  0.00  0.00    +0.000 OA
BRANCH  14  17
ATOM     16  C   UNL     1       6.292   3.873  14.804  0.00  0.00    +0.000 C 
ATOM     17  O   UNL     1       7.058   4.881  15.471  0.00  0.00    +0.000 OA
ENDBRANCH  14  17
ENDBRANCH   1  14
BRANCH   6  18
ATOM     18  C   UNL     1       0.815   8.030  20.514  0.00  0.00    +0.000 C 
BRANCH  18  19
ATOM     19  N   UNL     1       1.186   9.250  21.238  0.00  0.00    +0.000 NA
ATOM     20  C   UNL     1       0.868  10.538  20.601  0.00  0.00    +0.000 C 
ATOM     21  C   UNL     1      -0.376  11.341  21.060  0.00  0.00    +0.000 C 
ATOM     22  N   UNL     1      -0.538  11.344  22.529  0.00  0.00    +0.000 N 
ATOM     23  C   UNL     1      -0.452   9.995  23.116  0.00  0.00    +0.000 C 
ATOM     24  C   UNL     1       0.818   9.229  22.664  0.00  0.00    +0.000 C 
BRANCH  22  25
ATOM     25  C   UNL     1      -1.483  12.247  23.053  0.00  0.00    +0.000 A 
ATOM     26  C   UNL     1      -2.793  11.873  23.409  0.00  0.00    +0.000 A 
ATOM     27  C   UNL     1      -3.696  12.773  24.003  0.00  0.00    +0.000 A 
ATOM     28  C   UNL     1      -3.313  14.081  24.261  0.00  0.00    +0.000 A 
ATOM     29  C   UNL     1      -2.034  14.489  23.919  0.00  0.00    +0.000 A 
ATOM     30  C   UNL     1      -1.136  13.584  23.327  0.00  0.00    +0.000 A 
ENDBRANCH  22  25
ENDBRANCH  18  19
ENDBRANCH   6  18
TORSDOF 5
ENDMDL
MODEL 3
REMARK VINA RESULT:      -8.3      3.480      4.861
REMARK  Name = 
REMARK  7 active torsions:
REMARK  status: ('A' for Active; 'I' for Inactive)
REMARK    1  A    between atoms: C_1  and  O_2
REMARK    2  A    between atoms: O_2  and  C_3
REMARK    3  A    between atoms: C_3  and  C_5
REMARK    4  A    between atoms: C_10  and  C_11
REMARK    5  A    between atoms: C_11  and  N_12
REMARK    6  A    between atoms: N_15  and  C_16
REMARK    7  A    between atoms: C_24  and  C_25
REMARK                            x       y       z     vdW  Elec       q    Type
REMARK                         _______ _______ _______ _____ _____    ______ ____
ROOT
ATOM      1  C   UNL     1       3.765   5.241  18.635  0.00  0.00    +0.000 A 
ATOM      2  C   UNL     1       3.937   6.147  17.659  0.00  0.00    +0.000 A 
ATOM      3  N   UNL     1       3.262   7.341  17.558  0.00  0.00    +0.000 N 
ATOM      4  C   UNL     1       2.415   7.776  18.587  0.00  0.00    +0.000 A 
ATOM      5  C   UNL     1       1.751   9.009  18.531  0.00  0.00    +0.000 A 
ATOM      6  C   UNL     1       0.913   9.453  19.589  0.00  0.00    +0.000 A 
ATOM      7  C   UNL     1       0.810   8.659  20.752  0.00  0.00    +0.000 A 
ATOM      8  C   UNL     1       0.117   9.090  22.015  0.00  0.00    +0.000 C 
ATOM      9  C   UNL     1       1.406   7.383  20.760  0.00  0.00    +0.000 A 
ATOM     10  C   UNL     1       2.181   6.942  19.683  0.00  0.00    +0.000 A 
ATOM     11  C   UNL     1       2.766   5.573  19.692  0.00  0.00    +0.000 A 
ATOM     12  O   UNL     1       2.387   4.766  20.534  0.00  0.00    +0.000 OA
ATOM     13  H   UNL     1       3.493   7.973  16.800  0.00  0.00    +0.000 HD
ENDROOT
BRANCH   1  14
ATOM     14  C   UNL     1       4.560   3.983  18.585  0.00  0.00    +0.000 C 
ATOM     15  O   UNL     1       5.573   3.796  19.238  0.00  0.00    +0.000 OA
BRANCH  14  17
ATOM     16  C   UNL     1       3.439   1.924  18.371  0.00  0.00    +0.000 C 
ATOM     17  O   UNL     1       3.988   3.090  17.747  0.00  0.00    +0.000 OA
ENDBRANCH  14  17
ENDBRANCH   1  14
BRANCH   6  18
ATOM     18  C   UNL     1       0.096  10.728  19.389  0.00  0.00    +0.000 C 
BRANCH  18  19
ATOM     19  N   UNL     1       0.693  11.912  20.014  0.00  0.00    +0.000 NA
ATOM     20  C   UNL     1       1.817  12.553  19.312  0.00  0.00    +0.000 C 
ATOM     21  C   UNL     1       1.574  13.835  18.475  0.00  0.00    +0.000 C 
ATOM     22  N   UNL     1       0.667  14.788  19.148  0.00  0.00    +0.000 N 
ATOM     23  C   UNL     1      -0.571  14.153  19.634  0.00  0.00    +0.000 C 
ATOM     24  C   UNL     1      -0.296  12.892  20.493  0.00  0.00    +0.000 C 
BRANCH  22  25
ATOM     25  C   UNL     1       0.587  16.078  18.589  0.00  0.00    +0.000 A 
ATOM     26  C   UNL     1       1.703  16.773  18.086  0.00  0.00    +0.000 A 
ATOM     27  C   UNL     1       1.587  18.028  17.461  0.00  0.00    +0.000 A 
ATOM     28  C   UNL     1       0.344  18.627  17.319  0.00  0.00    +0.000 A 
ATOM     29  C   UNL     1      -0.777  17.977  17.806  0.00  0.00    +0.000 A 
ATOM     30  C   UNL     1      -0.655  16.723  18.429  0.00  0.00    +0.000 A 
ENDBRANCH  22  25
ENDBRANCH  18  19
ENDBRANCH   6  18
TORSDOF 5
ENDMDL
MODEL 4
REMARK VINA RESULT:      -8.0      0.602      1.101
REMARK  Name = 
REMARK  7 active torsions:
REMARK  status: ('A' for Active; 'I' for Inactive)
REMARK    1  A    between atoms: C_1  and  O_2
REMARK    2  A    between atoms: O_2  and  C_3
REMARK    3  A    between atoms: C_3  and  C_5
REMARK    4  A    between atoms: C_10  and  C_11
REMARK    5  A    between atoms: C_11  and  N_12
REMARK    6  A    between atoms: N_15  and  C_16
REMARK    7  A    between atoms: C_24  and  C_25
REMARK                            x       y       z     vdW  Elec       q    Type
REMARK                         _______ _______ _______ _____ _____    ______ ____
ROOT
ATOM      1  C   UNL     1       5.448   5.130  16.348  0.00  0.00    +0.000 A 
ATOM      2  C   UNL     1       5.335   6.465  16.440  0.00  0.00    +0.000 A 
ATOM      3  N   UNL     1       4.462   7.132  17.269  0.00  0.00    +0.000 N 
ATOM      4  C   UNL     1       3.699   6.436  18.216  0.00  0.00    +0.000 A 
ATOM      5  C   UNL     1       2.836   7.093  19.103  0.00  0.00    +0.000 A 
ATOM      6  C   UNL     1       2.083   6.383  20.076  0.00  0.00    +0.000 A 
ATOM      7  C   UNL     1       2.270   4.988  20.192  0.00  0.00    +0.000 A 
ATOM      8  C   UNL     1       1.688   4.143  21.291  0.00  0.00    +0.000 C 
ATOM      9  C   UNL     1       3.066   4.327  19.238  0.00  0.00    +0.000 A 
ATOM     10  C   UNL     1       3.755   5.040  18.253  0.00  0.00    +0.000 A 
ATOM     11  C   UNL     1       4.557   4.318  17.227  0.00  0.00    +0.000 A 
ATOM     12  O   UNL     1       4.433   3.103  17.117  0.00  0.00    +0.000 OA
ATOM     13  H   UNL     1       4.482   8.145  17.289  0.00  0.00    +0.000 HD
ENDROOT
BRANCH   1  14
ATOM     14  C   UNL     1       6.428   4.565  15.381  0.00  0.00    +0.000 C 
ATOM     15  O   UNL     1       6.130   4.172  14.266  0.00  0.00    +0.000 OA
BRANCH  14  17
ATOM     16  C   UNL     1       7.750   4.434  17.325  0.00  0.00    +0.000 C 
ATOM     17  O   UNL     1       7.675   4.578  15.903  0.00  0.00    +0.000 OA
ENDBRANCH  14  17
ENDBRANCH   1  14
BRANCH   6  18
ATOM     18  C   UNL     1       1.045   7.145  20.897  0.00  0.00    +0.000 C 
BRANCH  18  19
ATOM     19  N   UNL     1       1.331   8.577  21.021  0.00  0.00    +0.000 NA
ATOM     20  C   UNL     1       0.739   9.475  20.016  0.00  0.00    +0.000 C 
ATOM     21  C   UNL     1      -0.532  10.292  20.363  0.00  0.00    +0.000 C 
ATOM     22  N   UNL     1      -0.481  10.868  21.724  0.00  0.00    +0.000 N 
ATOM     23  C   UNL     1      -0.114   9.876  22.750  0.00  0.00    +0.000 C 
ATOM     24  C   UNL     1       1.177   9.097  22.391  0.00  0.00    +0.000 C 
BRANCH  22  25
ATOM     25  C   UNL     1      -1.465  11.826  22.035  0.00  0.00    +0.000 A 
ATOM     26  C   UNL     1      -1.849  12.854  21.154  0.00  0.00    +0.000 A 
ATOM     27  C   UNL     1      -2.888  13.753  21.455  0.00  0.00    +0.000 A 
ATOM     28  C   UNL     1      -3.579  13.648  22.653  0.00  0.00    +0.000 A 
ATOM     29  C   UNL     1      -3.227  12.653  23.550  0.00  0.00    +0.000 A 
ATOM     30  C   UNL     1      -2.188  11.757  23.242  0.00  0.00    +0.000 A 
ENDBRANCH  22  25
ENDBRANCH  18  19
ENDBRANCH   6  18
TORSDOF 5
ENDMDL
MODEL 5
REMARK VINA RESULT:      -7.9      3.479      4.918
REMARK  Name = 
REMARK  7 active torsions:
REMARK  status: ('A' for Active; 'I' for Inactive)
REMARK    1  A    between atoms: C_1  and  O_2
REMARK    2  A    between atoms: O_2  and  C_3
REMARK    3  A    between atoms: C_3  and  C_5
REMARK    4  A    between atoms: C_10  and  C_11
REMARK    5  A    between atoms: C_11  and  N_12
REMARK    6  A    between atoms: N_15  and  C_16
REMARK    7  A    between atoms: C_24  and  C_25
REMARK                            x       y       z     vdW  Elec       q    Type
REMARK                         _______ _______ _______ _____ _____    ______ ____
ROOT
ATOM      1  C   UNL     1       3.950   5.709  18.538  0.00  0.00    +0.000 A 
ATOM      2  C   UNL     1       3.945   6.641  17.570  0.00  0.00    +0.000 A 
ATOM      3  N   UNL     1       3.134   7.752  17.544  0.00  0.00    +0.000 N 
ATOM      4  C   UNL     1       2.324   8.075  18.641  0.00  0.00    +0.000 A 
ATOM      5  C   UNL     1       1.523   9.225  18.660  0.00  0.00    +0.000 A 
ATOM      6  C   UNL     1       0.722   9.558  19.785  0.00  0.00    +0.000 A 
ATOM      7  C   UNL     1       0.797   8.744  20.936  0.00  0.00    +0.000 A 
ATOM      8  C   UNL     1       0.158   9.078  22.255  0.00  0.00    +0.000 C 
ATOM      9  C   UNL     1       1.532   7.544  20.874  0.00  0.00    +0.000 A 
ATOM     10  C   UNL     1       2.269   7.207  19.734  0.00  0.00    +0.000 A 
ATOM     11  C   UNL     1       3.002   5.913  19.672  0.00  0.00    +0.000 A 
ATOM     12  O   UNL     1       2.781   5.058  20.523  0.00  0.00    +0.000 OA
ATOM     13  H   UNL     1       3.235   8.415  16.784  0.00  0.00    +0.000 HD
ENDROOT
BRANCH   1  14
ATOM     14  C   UNL     1       4.875   4.551  18.404  0.00  0.00    +0.000 C 
ATOM     15  O   UNL     1       4.798   3.722  17.512  0.00  0.00    +0.000 OA
BRANCH  14  17
ATOM     16  C   UNL     1       6.883   5.497  19.187  0.00  0.00    +0.000 C 
ATOM     17  O   UNL     1       5.809   4.570  19.380  0.00  0.00    +0.000 OA
ENDBRANCH  14  17
ENDBRANCH   1  14
BRANCH   6  18
ATOM     18  C   UNL     1      -0.246  10.734  19.672  0.00  0.00    +0.000 C 
BRANCH  18  19
ATOM     19  N   UNL     1       0.247  11.963  20.302  0.00  0.00    +0.000 NA
ATOM     20  C   UNL     1       1.496  12.538  19.778  0.00  0.00    +0.000 C 
ATOM     21  C   UNL     1       1.443  13.748  18.810  0.00  0.00    +0.000 C 
ATOM     22  N   UNL     1       0.445  14.758  19.220  0.00  0.00    +0.000 N 
ATOM     23  C   UNL     1      -0.875  14.172  19.510  0.00  0.00    +0.000 C 
ATOM     24  C   UNL     1      -0.794  12.985  20.504  0.00  0.00    +0.000 C 
BRANCH  22  25
ATOM     25  C   UNL     1       0.499  15.997  18.554  0.00  0.00    +0.000 A 
ATOM     26  C   UNL     1      -0.615  16.847  18.411  0.00  0.00    +0.000 A 
ATOM     27  C   UNL     1      -0.521  18.115  17.810  0.00  0.00    +0.000 A 
ATOM     28  C   UNL     1       0.698  18.574  17.332  0.00  0.00    +0.000 A 
ATOM     29  C   UNL     1       1.816  17.766  17.450  0.00  0.00    +0.000 A 
ATOM     30  C   UNL     1       1.715  16.500  18.052  0.00  0.00    +0.000 A 
ENDBRANCH  22  25
ENDBRANCH  18  19
ENDBRANCH   6  18
TORSDOF 5
ENDMDL
MODEL 6
REMARK VINA RESULT:      -7.9      2.983      4.485
REMARK  Name = 
REMARK  7 active torsions:
REMARK  status: ('A' for Active; 'I' for Inactive)
REMARK    1  A    between atoms: C_1  and  O_2
REMARK    2  A    between atoms: O_2  and  C_3
REMARK    3  A    between atoms: C_3  and  C_5
REMARK    4  A    between atoms: C_10  and  C_11
REMARK    5  A    between atoms: C_11  and  N_12
REMARK    6  A    between atoms: N_15  and  C_16
REMARK    7  A    between atoms: C_24  and  C_25
REMARK                            x       y       z     vdW  Elec       q    Type
REMARK                         _______ _______ _______ _____ _____    ______ ____
ROOT
ATOM      1  C   UNL     1       3.861   5.317  18.798  0.00  0.00    +0.000 A 
ATOM      2  C   UNL     1       3.982   6.202  17.795  0.00  0.00    +0.000 A 
ATOM      3  N   UNL     1       3.255   7.363  17.672  0.00  0.00    +0.000 N 
ATOM      4  C   UNL     1       2.406   7.792  18.700  0.00  0.00    +0.000 A 
ATOM      5  C   UNL     1       1.689   8.993  18.621  0.00  0.00    +0.000 A 
ATOM      6  C   UNL     1       0.848   9.432  19.678  0.00  0.00    +0.000 A 
ATOM      7  C   UNL     1       0.795   8.668  20.864  0.00  0.00    +0.000 A 
ATOM      8  C   UNL     1       0.102   9.105  22.125  0.00  0.00    +0.000 C 
ATOM      9  C   UNL     1       1.444   7.419  20.898  0.00  0.00    +0.000 A 
ATOM     10  C   UNL     1       2.222   6.980  19.823  0.00  0.00    +0.000 A 
ATOM     11  C   UNL     1       2.864   5.637  19.861  0.00  0.00    +0.000 A 
ATOM     12  O   UNL     1       2.531   4.839  20.731  0.00  0.00    +0.000 OA
ATOM     13  H   UNL     1       3.449   7.983  16.893  0.00  0.00    +0.000 HD
ENDROOT
BRANCH   1  14
ATOM     14  C   UNL     1       4.707   4.092  18.771  0.00  0.00    +0.000 C 
ATOM     15  O   UNL     1       5.843   4.044  19.215  0.00  0.00    +0.000 OA
BRANCH  14  17
ATOM     16  C   UNL     1       3.809   1.939  19.084  0.00  0.00    +0.000 C 
ATOM     17  O   UNL     1       4.034   3.058  18.220  0.00  0.00    +0.000 OA
ENDBRANCH  14  17
ENDBRANCH   1  14
BRANCH   6  18
ATOM     18  C   UNL     1      -0.024  10.665  19.455  0.00  0.00    +0.000 C 
BRANCH  18  19
ATOM     19  N   UNL     1       0.548  11.897  20.007  0.00  0.00    +0.000 NA
ATOM     20  C   UNL     1       1.236  12.802  19.072  0.00  0.00    +0.000 C 
ATOM     21  C   UNL     1       0.509  14.066  18.545  0.00  0.00    +0.000 C 
ATOM     22  N   UNL     1      -0.252  14.764  19.603  0.00  0.00    +0.000 N 
ATOM     23  C   UNL     1      -1.121  13.858  20.374  0.00  0.00    +0.000 C 
ATOM     24  C   UNL     1      -0.360  12.620  20.914  0.00  0.00    +0.000 C 
BRANCH  22  25
ATOM     25  C   UNL     1      -0.734  16.048  19.284  0.00  0.00    +0.000 A 
ATOM     26  C   UNL     1      -0.311  16.773  18.153  0.00  0.00    +0.000 A 
ATOM     27  C   UNL     1      -0.863  18.021  17.812  0.00  0.00    +0.000 A 
ATOM     28  C   UNL     1      -1.860  18.583  18.595  0.00  0.00    +0.000 A 
ATOM     29  C   UNL     1      -2.299  17.903  19.718  0.00  0.00    +0.000 A 
ATOM     30  C   UNL     1      -1.744  16.655  20.053  0.00  0.00    +0.000 A 
ENDBRANCH  22  25
ENDBRANCH  18  19
ENDBRANCH   6  18
TORSDOF 5
ENDMDL
MODEL 7
REMARK VINA RESULT:      -7.6      3.548      4.962
REMARK  Name = 
REMARK  7 active torsions:
REMARK  status: ('A' for Active; 'I' for Inactive)
REMARK    1  A    between atoms: C_1  and  O_2
REMARK    2  A    between atoms: O_2  and  C_3
REMARK    3  A    between atoms: C_3  and  C_5
REMARK    4  A    between atoms: C_10  and  C_11
REMARK    5  A    between atoms: C_11  and  N_12
REMARK    6  A    between atoms: N_15  and  C_16
REMARK    7  A    between atoms: C_24  and  C_25
REMARK                            x       y       z     vdW  Elec       q    Type
REMARK                         _______ _______ _______ _____ _____    ______ ____
ROOT
ATOM      1  C   UNL     1       3.952   6.061  18.385  0.00  0.00    +0.000 A 
ATOM      2  C   UNL     1       3.816   7.040  17.476  0.00  0.00    +0.000 A 
ATOM      3  N   UNL     1       2.895   8.060  17.541  0.00  0.00    +0.000 N 
ATOM      4  C   UNL     1       2.097   8.235  18.679  0.00  0.00    +0.000 A 
ATOM      5  C   UNL     1       1.184   9.292  18.791  0.00  0.00    +0.000 A 
ATOM      6  C   UNL     1       0.395   9.477  19.958  0.00  0.00    +0.000 A 
ATOM      7  C   UNL     1       0.596   8.611  21.055  0.00  0.00    +0.000 A 
ATOM      8  C   UNL     1      -0.026   8.802  22.411  0.00  0.00    +0.000 C 
ATOM      9  C   UNL     1       1.446   7.500  20.900  0.00  0.00    +0.000 A 
ATOM     10  C   UNL     1       2.171   7.306  19.720  0.00  0.00    +0.000 A 
ATOM     11  C   UNL     1       3.031   6.101  19.558  0.00  0.00    +0.000 A 
ATOM     12  O   UNL     1       2.930   5.181  20.364  0.00  0.00    +0.000 OA
ATOM     13  H   UNL     1       2.900   8.771  16.819  0.00  0.00    +0.000 HD
ENDROOT
BRANCH   1  14
ATOM     14  C   UNL     1       4.985   5.015  18.155  0.00  0.00    +0.000 C 
ATOM     15  O   UNL     1       4.847   4.088  17.373  0.00  0.00    +0.000 OA
BRANCH  14  17
ATOM     16  C   UNL     1       7.255   5.638  18.173  0.00  0.00    +0.000 C 
ATOM     17  O   UNL     1       6.084   5.256  18.903  0.00  0.00    +0.000 OA
ENDBRANCH  14  17
ENDBRANCH   1  14
BRANCH   6  18
ATOM     18  C   UNL     1      -0.691  10.550  19.944  0.00  0.00    +0.000 C 
BRANCH  18  19
ATOM     19  N   UNL     1      -0.278  11.811  20.567  0.00  0.00    +0.000 NA
ATOM     20  C   UNL     1       1.166  12.086  20.645  0.00  0.00    +0.000 C 
ATOM     21  C   UNL     1       1.825  13.048  19.623  0.00  0.00    +0.000 C 
ATOM     22  N   UNL     1       1.001  14.246  19.361  0.00  0.00    +0.000 N 
ATOM     23  C   UNL     1      -0.401  13.919  19.047  0.00  0.00    +0.000 C 
ATOM     24  C   UNL     1      -1.043  12.981  20.102  0.00  0.00    +0.000 C 
BRANCH  22  25
ATOM     25  C   UNL     1       1.623  15.290  18.648  0.00  0.00    +0.000 A 
ATOM     26  C   UNL     1       2.879  15.160  18.026  0.00  0.00    +0.000 A 
ATOM     27  C   UNL     1       3.446  16.190  17.255  0.00  0.00    +0.000 A 
ATOM     28  C   UNL     1       2.768  17.388  17.079  0.00  0.00    +0.000 A 
ATOM     29  C   UNL     1       1.531  17.556  17.680  0.00  0.00    +0.000 A 
ATOM     30  C   UNL     1       0.970  16.522  18.449  0.00  0.00    +0.000 A 
ENDBRANCH  22  25
ENDBRANCH  18  19
ENDBRANCH   6  18
TORSDOF 5
ENDMDL
MODEL 8
REMARK VINA RESULT:      -7.6      3.103      4.533
REMARK  Name = 
REMARK  7 active torsions:
REMARK  status: ('A' for Active; 'I' for Inactive)
REMARK    1  A    between atoms: C_1  and  O_2
REMARK    2  A    between atoms: O_2  and  C_3
REMARK    3  A    between atoms: C_3  and  C_5
REMARK    4  A    between atoms: C_10  and  C_11
REMARK    5  A    between atoms: C_11  and  N_12
REMARK    6  A    between atoms: N_15  and  C_16
REMARK    7  A    between atoms: C_24  and  C_25
REMARK                            x       y       z     vdW  Elec       q    Type
REMARK                         _______ _______ _______ _____ _____    ______ ____
ROOT
ATOM      1  C   UNL     1       3.619   4.669  18.991  0.00  0.00    +0.000 A 
ATOM      2  C   UNL     1       3.866   5.506  17.969  0.00  0.00    +0.000 A 
ATOM      3  N   UNL     1       3.300   6.749  17.808  0.00  0.00    +0.000 N 
ATOM      4  C   UNL     1       2.502   7.310  18.814  0.00  0.00    +0.000 A 
ATOM      5  C   UNL     1       1.950   8.593  18.697  0.00  0.00    +0.000 A 
ATOM      6  C   UNL     1       1.162   9.164  19.732  0.00  0.00    +0.000 A 
ATOM      7  C   UNL     1       0.995   8.442  20.934  0.00  0.00    +0.000 A 
ATOM      8  C   UNL     1       0.352   8.997  22.174  0.00  0.00    +0.000 C 
ATOM      9  C   UNL     1       1.475   7.120  21.006  0.00  0.00    +0.000 A 
ATOM     10  C   UNL     1       2.201   6.557  19.953  0.00  0.00    +0.000 A 
ATOM     11  C   UNL     1       2.661   5.143  20.031  0.00  0.00    +0.000 A 
ATOM     12  O   UNL     1       2.216   4.417  20.914  0.00  0.00    +0.000 OA
ATOM     13  H   UNL     1       3.582   7.318  17.019  0.00  0.00    +0.000 HD
ENDROOT
BRANCH   1  14
ATOM     14  C   UNL     1       4.298   3.344  19.004  0.00  0.00    +0.000 C 
ATOM     15  O   UNL     1       5.111   3.008  19.849  0.00  0.00    +0.000 OA
BRANCH  14  17
ATOM     16  C   UNL     1       2.497   2.169  18.047  0.00  0.00    +0.000 C 
ATOM     17  O   UNL     1       3.867   2.577  17.978  0.00  0.00    +0.000 OA
ENDBRANCH  14  17
ENDBRANCH   1  14
BRANCH   6  18
ATOM     18  C   UNL     1       0.461  10.494  19.468  0.00  0.00    +0.000 C 
BRANCH  18  19
ATOM     19  N   UNL     1       1.190  11.655  19.989  0.00  0.00    +0.000 NA
ATOM     20  C   UNL     1       1.803  12.565  19.009  0.00  0.00    +0.000 C 
ATOM     21  C   UNL     1       1.101  13.900  18.650  0.00  0.00    +0.000 C 
ATOM     22  N   UNL     1       0.545  14.585  19.835  0.00  0.00    +0.000 N 
ATOM     23  C   UNL     1      -0.271  13.694  20.680  0.00  0.00    +0.000 C 
ATOM     24  C   UNL     1       0.469  12.382  21.048  0.00  0.00    +0.000 C 
BRANCH  22  25
ATOM     25  C   UNL     1       0.115  15.912  19.648  0.00  0.00    +0.000 A 
ATOM     26  C   UNL     1       0.206  16.902  20.645  0.00  0.00    +0.000 A 
ATOM     27  C   UNL     1      -0.158  18.240  20.411  0.00  0.00    +0.000 A 
ATOM     28  C   UNL     1      -0.625  18.631  19.164  0.00  0.00    +0.000 A 
ATOM     29  C   UNL     1      -0.734  17.685  18.158  0.00  0.00    +0.000 A 
ATOM     30  C   UNL     1      -0.367  16.349  18.399  0.00  0.00    +0.000 A 
ENDBRANCH  22  25
ENDBRANCH  18  19
ENDBRANCH   6  18
TORSDOF 5
ENDMDL
MODEL 9
REMARK VINA RESULT:      -7.6      1.958      2.995
REMARK  Name = 
REMARK  7 active torsions:
REMARK  status: ('A' for Active; 'I' for Inactive)
REMARK    1  A    between atoms: C_1  and  O_2
REMARK    2  A    between atoms: O_2  and  C_3
REMARK    3  A    between atoms: C_3  and  C_5
REMARK    4  A    between atoms: C_10  and  C_11
REMARK    5  A    between atoms: C_11  and  N_12
REMARK    6  A    between atoms: N_15  and  C_16
REMARK    7  A    between atoms: C_24  and  C_25
REMARK                            x       y       z     vdW  Elec       q    Type
REMARK                         _______ _______ _______ _____ _____    ______ ____
ROOT
ATOM      1  C   UNL     1       5.408   5.135  18.057  0.00  0.00    +0.000 A 
ATOM      2  C   UNL     1       4.824   4.536  19.107  0.00  0.00    +0.000 A 
ATOM      3  N   UNL     1       3.771   5.050  19.828  0.00  0.00    +0.000 N 
ATOM      4  C   UNL     1       3.117   6.217  19.410  0.00  0.00    +0.000 A 
ATOM      5  C   UNL     1       2.013   6.738  20.099  0.00  0.00    +0.000 A 
ATOM      6  C   UNL     1       1.341   7.908  19.655  0.00  0.00    +0.000 A 
ATOM      7  C   UNL     1       1.758   8.514  18.449  0.00  0.00    +0.000 A 
ATOM      8  C   UNL     1       1.026   9.635  17.766  0.00  0.00    +0.000 C 
ATOM      9  C   UNL     1       2.922   8.038  17.816  0.00  0.00    +0.000 A 
ATOM     10  C   UNL     1       3.602   6.917  18.302  0.00  0.00    +0.000 A 
ATOM     11  C   UNL     1       4.856   6.457  17.644  0.00  0.00    +0.000 A 
ATOM     12  O   UNL     1       5.401   7.186  16.822  0.00  0.00    +0.000 OA
ATOM     13  H   UNL     1       3.378   4.500  20.582  0.00  0.00    +0.000 HD
ENDROOT
BRANCH   1  14
ATOM     14  C   UNL     1       6.557   4.453  17.399  0.00  0.00    +0.000 C 
ATOM     15  O   UNL     1       6.541   4.063  16.243  0.00  0.00    +0.000 OA
BRANCH  14  17
ATOM     16  C   UNL     1       8.047   5.594  18.820  0.00  0.00    +0.000 C 
ATOM     17  O   UNL     1       7.605   4.359  18.247  0.00  0.00    +0.000 OA
ENDBRANCH  14  17
ENDBRANCH   1  14
BRANCH   6  18
ATOM     18  C   UNL     1       0.253   8.508  20.543  0.00  0.00    +0.000 C 
BRANCH  18  19
ATOM     19  N   UNL     1       0.730   9.595  21.403  0.00  0.00    +0.000 NA
ATOM     20  C   UNL     1       0.643  10.965  20.871  0.00  0.00    +0.000 C 
ATOM     21  C   UNL     1      -0.510  11.897  21.321  0.00  0.00    +0.000 C 
ATOM     22  N   UNL     1      -0.786  11.799  22.770  0.00  0.00    +0.000 N 
ATOM     23  C   UNL     1      -0.933  10.407  23.231  0.00  0.00    +0.000 C 
ATOM     24  C   UNL     1       0.250   9.507  22.792  0.00  0.00    +0.000 C 
BRANCH  22  25
ATOM     25  C   UNL     1      -1.636  12.781  23.314  0.00  0.00    +0.000 A 
ATOM     26  C   UNL     1      -1.218  14.095  23.596  0.00  0.00    +0.000 A 
ATOM     27  C   UNL     1      -2.104  15.081  24.066  0.00  0.00    +0.000 A 
ATOM     28  C   UNL     1      -3.443  14.780  24.268  0.00  0.00    +0.000 A 
ATOM     29  C   UNL     1      -3.892  13.496  24.007  0.00  0.00    +0.000 A 
ATOM     30  C   UNL     1      -3.002  12.515  23.536  0.00  0.00    +0.000 A 
ENDBRANCH  22  25
ENDBRANCH  18  19
ENDBRANCH   6  18
TORSDOF 5
ENDMDL
