MODEL 1
REMARK VINA RESULT:      -7.8      0.000      0.000
REMARK  Name = 
REMARK  8 active torsions:
REMARK  status: ('A' for Active; 'I' for Inactive)
REMARK    1  A    between atoms: C_1  and  O_2
REMARK    2  A    between atoms: O_2  and  C_3
REMARK    3  A    between atoms: C_3  and  C_4
REMARK    4  A    between atoms: C_4  and  N_5
REMARK    5  A    between atoms: C_6  and  C_8
REMARK    6  A    between atoms: N_15  and  C_16
REMARK    7  A    between atoms: C_16  and  C_17
REMARK    8  A    between atoms: C_19  and  C_20
REMARK                            x       y       z     vdW  Elec       q    Type
REMARK                         _______ _______ _______ _____ _____    ______ ____
ROOT
ATOM      1  C   UNL     1       2.666   4.614  18.847  0.00  0.00    +0.000 C 
ATOM      2  C   UNL     1       1.363   3.954  18.302  0.00  0.00    +0.000 C 
ATOM      3  C   UNL     1       1.572   2.439  18.416  0.00  0.00    +0.000 C 
ATOM      4  O   UNL     1       2.720   2.281  19.269  0.00  0.00    +0.000 OA
ATOM      5  C   UNL     1       3.533   3.366  18.855  0.00  0.00    +0.000 C 
ATOM      6  C   UNL     1       4.929   3.462  19.405  0.00  0.00    +0.000 C 
ATOM      7  C   UNL     1       5.675   4.497  18.548  0.00  0.00    +0.000 C 
ATOM      8  N   UNL     1       4.924   5.765  18.407  0.00  0.00    +0.000 NA
ATOM      9  C   UNL     1       3.494   5.600  17.977  0.00  0.00    +0.000 C 
ENDROOT
BRANCH   1  11
ATOM     10  N   UNL     1       2.343   6.902  19.993  0.00  0.00    +0.000 N 
ATOM     11  C   UNL     1       2.081   5.570  19.905  0.00  0.00    +0.000 C 
ATOM     12  O   UNL     1       1.413   5.061  20.827  0.00  0.00    +0.000 OA
ATOM     13  H   UNL     1       2.770   7.404  19.222  0.00  0.00    +0.000 HD
BRANCH  10  14
ATOM     14  C   UNL     1       1.476   7.666  20.897  0.00  0.00    +0.000 C 
BRANCH  14  15
ATOM     15  C   UNL     1       1.069   9.033  20.387  0.00  0.00    +0.000 C 
BRANCH  15  17
ATOM     16  C   UNL     1       0.553   9.744  18.209  0.00  0.00    +0.000 C 
ATOM     17  O   UNL     1       1.540   9.167  19.048  0.00  0.00    +0.000 OA
ENDBRANCH  15  17
ENDBRANCH  14  15
ENDBRANCH  10  14
ENDBRANCH   1  11
BRANCH   8  18
ATOM     18  C   UNL     1       5.554   6.673  17.414  0.00  0.00    +0.000 C 
BRANCH  18  19
ATOM     19  C   UNL     1       6.077   6.009  16.184  0.00  0.00    +0.000 A 
ATOM     20  C   UNL     1       5.385   5.260  15.205  0.00  0.00    +0.000 A 
ATOM     21  C   UNL     1       6.376   4.744  14.409  0.00  0.00    +0.000 A 
ATOM     22  C   UNL     1       6.397   3.824  13.263  0.00  0.00    +0.000 C 
ATOM     23  O   UNL     1       7.583   5.178  14.856  0.00  0.00    +0.000 OA
ATOM     24  N   UNL     1       7.400   5.978  15.969  0.00  0.00    +0.000 NA
ENDBRANCH  18  19
ENDBRANCH   8  18
TORSDOF 6
ENDMDL
MODEL 2
REMARK VINA RESULT:      -7.2      1.288      4.089
REMARK  Name = 
REMARK  8 active torsions:
REMARK  status: ('A' for Active; 'I' for Inactive)
REMARK    1  A    between atoms: C_1  and  O_2
REMARK    2  A    between atoms: O_2  and  C_3
REMARK    3  A    between atoms: C_3  and  C_4
REMARK    4  A    between atoms: C_4  and  N_5
REMARK    5  A    between atoms: C_6  and  C_8
REMARK    6  A    between atoms: N_15  and  C_16
REMARK    7  A    between atoms: C_16  and  C_17
REMARK    8  A    between atoms: C_19  and  C_20
REMARK                            x       y       z     vdW  Elec       q    Type
REMARK                         _______ _______ _______ _____ _____    ______ ____
ROOT
ATOM      1  C   UNL     1       2.400   6.277  19.678  0.00  0.00    +0.000 C 
ATOM      2  C   UNL     1       2.010   6.669  21.136  0.00  0.00    +0.000 C 
ATOM      3  C   UNL     1       1.446   8.094  21.060  0.00  0.00    +0.000 C 
ATOM      4  O   UNL     1       1.211   8.330  19.660  0.00  0.00    +0.000 OA
ATOM      5  C   UNL     1       2.317   7.668  19.070  0.00  0.00    +0.000 C 
ATOM      6  C   UNL     1       2.533   7.820  17.591  0.00  0.00    +0.000 C 
ATOM      7  C   UNL     1       3.949   7.304  17.292  0.00  0.00    +0.000 C 
ATOM      8  N   UNL     1       4.199   5.964  17.869  0.00  0.00    +0.000 NA
ATOM      9  C   UNL     1       3.845   5.833  19.322  0.00  0.00    +0.000 C 
ENDROOT
BRANCH   1  11
ATOM     10  N   UNL     1       1.591   4.189  18.398  0.00  0.00    +0.000 N 
ATOM     11  C   UNL     1       1.633   4.948  19.526  0.00  0.00    +0.000 C 
ATOM     12  O   UNL     1       0.895   4.604  20.470  0.00  0.00    +0.000 OA
ATOM     13  H   UNL     1       2.252   4.335  17.644  0.00  0.00    +0.000 HD
BRANCH  10  14
ATOM     14  C   UNL     1       1.035   2.841  18.555  0.00  0.00    +0.000 C 
BRANCH  14  15
ATOM     15  C   UNL     1       1.977   1.829  19.174  0.00  0.00    +0.000 C 
BRANCH  15  17
ATOM     16  C   UNL     1       4.235   2.201  19.702  0.00  0.00    +0.000 C 
ATOM     17  O   UNL     1       3.285   2.066  18.658  0.00  0.00    +0.000 OA
ENDBRANCH  15  17
ENDBRANCH  14  15
ENDBRANCH  10  14
ENDBRANCH   1  11
BRANCH   8  18
ATOM     18  C   UNL     1       5.627   5.569  17.753  0.00  0.00    +0.000 C 
BRANCH  18  19
ATOM     19  C   UNL     1       6.111   5.329  16.361  0.00  0.00    +0.000 A 
ATOM     20  C   UNL     1       5.538   4.544  15.334  0.00  0.00    +0.000 A 
ATOM     21  C   UNL     1       6.485   4.539  14.342  0.00  0.00    +0.000 A 
ATOM     22  C   UNL     1       6.600   3.873  13.036  0.00  0.00    +0.000 C 
ATOM     23  O   UNL     1       7.545   5.296  14.728  0.00  0.00    +0.000 OA
ATOM     24  N   UNL     1       7.312   5.800  15.995  0.00  0.00    +0.000 NA
ENDBRANCH  18  19
ENDBRANCH   8  18
TORSDOF 6
ENDMDL
MODEL 3
REMARK VINA RESULT:      -7.0      1.840      2.548
REMARK  Name = 
REMARK  8 active torsions:
REMARK  status: ('A' for Active; 'I' for Inactive)
REMARK    1  A    between atoms: C_1  and  O_2
REMARK    2  A    between atoms: O_2  and  C_3
REMARK    3  A    between atoms: C_3  and  C_4
REMARK    4  A    between atoms: C_4  and  N_5
REMARK    5  A    between atoms: C_6  and  C_8
REMARK    6  A    between atoms: N_15  and  C_16
REMARK    7  A    between atoms: C_16  and  C_17
REMARK    8  A    between atoms: C_19  and  C_20
REMARK                            x       y       z     vdW  Elec       q    Type
REMARK                         _______ _______ _______ _____ _____    ______ ____
ROOT
ATOM      1  C   UNL     1       2.577   4.199  18.735  0.00  0.00    +0.000 C 
ATOM      2  C   UNL     1       1.213   3.822  18.080  0.00  0.00    +0.000 C 
ATOM      3  C   UNL     1       0.746   2.535  18.773  0.00  0.00    +0.000 C 
ATOM      4  O   UNL     1       1.582   2.413  19.939  0.00  0.00    +0.000 OA
ATOM      5  C   UNL     1       2.827   2.879  19.446  0.00  0.00    +0.000 C 
ATOM      6  C   UNL     1       4.035   2.756  20.331  0.00  0.00    +0.000 C 
ATOM      7  C   UNL     1       5.265   3.006  19.444  0.00  0.00    +0.000 C 
ATOM      8  N   UNL     1       5.146   4.247  18.645  0.00  0.00    +0.000 NA
ATOM      9  C   UNL     1       3.860   4.376  17.879  0.00  0.00    +0.000 C 
ENDROOT
BRANCH   1  11
ATOM     10  N   UNL     1       2.796   6.762  18.543  0.00  0.00    +0.000 N 
ATOM     11  C   UNL     1       2.297   5.655  19.158  0.00  0.00    +0.000 C 
ATOM     12  O   UNL     1       1.665   5.830  20.218  0.00  0.00    +0.000 OA
ATOM     13  H   UNL     1       3.209   6.706  17.619  0.00  0.00    +0.000 HD
BRANCH  10  14
ATOM     14  C   UNL     1       2.189   8.039  18.935  0.00  0.00    +0.000 C 
BRANCH  14  15
ATOM     15  C   UNL     1       1.972   9.018  17.800  0.00  0.00    +0.000 C 
BRANCH  15  17
ATOM     16  C   UNL     1       0.583   9.954  19.446  0.00  0.00    +0.000 C 
ATOM     17  O   UNL     1       0.769   9.737  18.056  0.00  0.00    +0.000 OA
ENDBRANCH  15  17
ENDBRANCH  14  15
ENDBRANCH  10  14
ENDBRANCH   1  11
BRANCH   8  18
ATOM     18  C   UNL     1       6.239   4.368  17.645  0.00  0.00    +0.000 C 
BRANCH  18  19
ATOM     19  C   UNL     1       6.857   5.722  17.538  0.00  0.00    +0.000 A 
ATOM     20  C   UNL     1       7.691   6.403  18.454  0.00  0.00    +0.000 A 
ATOM     21  C   UNL     1       7.813   7.664  17.929  0.00  0.00    +0.000 A 
ATOM     22  C   UNL     1       8.460   8.905  18.380  0.00  0.00    +0.000 C 
ATOM     23  O   UNL     1       7.128   7.733  16.759  0.00  0.00    +0.000 OA
ATOM     24  N   UNL     1       6.529   6.512  16.506  0.00  0.00    +0.000 NA
ENDBRANCH  18  19
ENDBRANCH   8  18
TORSDOF 6
ENDMDL
MODEL 4
REMARK VINA RESULT:      -6.9      1.048      1.260
REMARK  Name = 
REMARK  8 active torsions:
REMARK  status: ('A' for Active; 'I' for Inactive)
REMARK    1  A    between atoms: C_1  and  O_2
REMARK    2  A    between atoms: O_2  and  C_3
REMARK    3  A    between atoms: C_3  and  C_4
REMARK    4  A    between atoms: C_4  and  N_5
REMARK    5  A    between atoms: C_6  and  C_8
REMARK    6  A    between atoms: N_15  and  C_16
REMARK    7  A    between atoms: C_16  and  C_17
REMARK    8  A    between atoms: C_19  and  C_20
REMARK                            x       y       z     vdW  Elec       q    Type
REMARK                         _______ _______ _______ _____ _____    ______ ____
ROOT
ATOM      1  C   UNL     1       2.544   4.440  19.046  0.00  0.00    +0.000 C 
ATOM      2  C   UNL     1       1.239   4.055  18.284  0.00  0.00    +0.000 C 
ATOM      3  C   UNL     1       1.070   2.540  18.462  0.00  0.00    +0.000 C 
ATOM      4  O   UNL     1       1.985   2.182  19.515  0.00  0.00    +0.000 OA
ATOM      5  C   UNL     1       3.085   3.032  19.236  0.00  0.00    +0.000 C 
ATOM      6  C   UNL     1       4.347   2.848  20.032  0.00  0.00    +0.000 C 
ATOM      7  C   UNL     1       5.449   3.638  19.308  0.00  0.00    +0.000 C 
ATOM      8  N   UNL     1       5.046   5.031  19.007  0.00  0.00    +0.000 NA
ATOM      9  C   UNL     1       3.714   5.162  18.325  0.00  0.00    +0.000 C 
ENDROOT
BRANCH   1  11
ATOM     10  N   UNL     1       2.503   6.834  20.004  0.00  0.00    +0.000 N 
ATOM     11  C   UNL     1       2.017   5.564  19.961  0.00  0.00    +0.000 C 
ATOM     12  O   UNL     1       1.164   5.252  20.815  0.00  0.00    +0.000 OA
ATOM     13  H   UNL     1       3.102   7.191  19.268  0.00  0.00    +0.000 HD
BRANCH  10  14
ATOM     14  C   UNL     1       1.686   7.806  20.741  0.00  0.00    +0.000 C 
BRANCH  14  15
ATOM     15  C   UNL     1       1.146   8.948  19.906  0.00  0.00    +0.000 C 
BRANCH  15  17
ATOM     16  C   UNL     1      -0.359   8.712  21.693  0.00  0.00    +0.000 C 
ATOM     17  O   UNL     1       0.039   9.521  20.598  0.00  0.00    +0.000 OA
ENDBRANCH  15  17
ENDBRANCH  14  15
ENDBRANCH  10  14
ENDBRANCH   1  11
BRANCH   8  18
ATOM     18  C   UNL     1       6.031   5.715  18.130  0.00  0.00    +0.000 C 
BRANCH  18  19
ATOM     19  C   UNL     1       5.904   5.415  16.674  0.00  0.00    +0.000 A 
ATOM     20  C   UNL     1       6.132   4.202  15.984  0.00  0.00    +0.000 A 
ATOM     21  C   UNL     1       6.041   4.544  14.658  0.00  0.00    +0.000 A 
ATOM     22  C   UNL     1       6.238   3.816  13.395  0.00  0.00    +0.000 C 
ATOM     23  O   UNL     1       5.745   5.865  14.553  0.00  0.00    +0.000 OA
ATOM     24  N   UNL     1       5.653   6.417  15.818  0.00  0.00    +0.000 NA
ENDBRANCH  18  19
ENDBRANCH   8  18
TORSDOF 6
ENDMDL
MODEL 5
REMARK VINA RESULT:      -6.9      2.001      2.821
REMARK  Name = 
REMARK  8 active torsions:
REMARK  status: ('A' for Active; 'I' for Inactive)
REMARK    1  A    between atoms: C_1  and  O_2
REMARK    2  A    between atoms: O_2  and  C_3
REMARK    3  A    between atoms: C_3  and  C_4
REMARK    4  A    between atoms: C_4  and  N_5
REMARK    5  A    between atoms: C_6  and  C_8
REMARK    6  A    between atoms: N_15  and  C_16
REMARK    7  A    between atoms: C_16  and  C_17
REMARK    8  A    between atoms: C_19  and  C_20
REMARK                            x       y       z     vdW  Elec       q    Type
REMARK                         _______ _______ _______ _____ _____    ______ ____
ROOT
ATOM      1  C   UNL     1       2.620   4.378  18.650  0.00  0.00    +0.000 C 
ATOM      2  C   UNL     1       1.277   3.963  17.975  0.00  0.00    +0.000 C 
ATOM      3  C   UNL     1       0.813   2.689  18.692  0.00  0.00    +0.000 C 
ATOM      4  O   UNL     1       1.624   2.610  19.879  0.00  0.00    +0.000 OA
ATOM      5  C   UNL     1       2.873   3.081  19.401  0.00  0.00    +0.000 C 
ATOM      6  C   UNL     1       4.062   3.000  20.316  0.00  0.00    +0.000 C 
ATOM      7  C   UNL     1       5.308   3.245  19.451  0.00  0.00    +0.000 C 
ATOM      8  N   UNL     1       5.189   4.462  18.615  0.00  0.00    +0.000 NA
ATOM      9  C   UNL     1       3.920   4.551  17.818  0.00  0.00    +0.000 C 
ENDROOT
BRANCH   1  11
ATOM     10  N   UNL     1       1.968   6.277  20.269  0.00  0.00    +0.000 N 
ATOM     11  C   UNL     1       2.310   5.841  19.026  0.00  0.00    +0.000 C 
ATOM     12  O   UNL     1       2.245   6.668  18.096  0.00  0.00    +0.000 OA
ATOM     13  H   UNL     1       2.116   5.697  21.087  0.00  0.00    +0.000 HD
BRANCH  10  14
ATOM     14  C   UNL     1       1.983   7.732  20.462  0.00  0.00    +0.000 C 
BRANCH  14  15
ATOM     15  C   UNL     1       0.765   8.296  21.164  0.00  0.00    +0.000 C 
BRANCH  15  17
ATOM     16  C   UNL     1       0.111   9.506  23.067  0.00  0.00    +0.000 C 
ATOM     17  O   UNL     1       1.191   8.881  22.392  0.00  0.00    +0.000 OA
ENDBRANCH  15  17
ENDBRANCH  14  15
ENDBRANCH  10  14
ENDBRANCH   1  11
BRANCH   8  18
ATOM     18  C   UNL     1       6.303   4.572  17.638  0.00  0.00    +0.000 C 
BRANCH  18  19
ATOM     19  C   UNL     1       6.952   5.914  17.560  0.00  0.00    +0.000 A 
ATOM     20  C   UNL     1       7.776   6.569  18.504  0.00  0.00    +0.000 A 
ATOM     21  C   UNL     1       7.938   7.832  17.994  0.00  0.00    +0.000 A 
ATOM     22  C   UNL     1       8.598   9.055  18.475  0.00  0.00    +0.000 C 
ATOM     23  O   UNL     1       7.284   7.926  16.808  0.00  0.00    +0.000 OA
ATOM     24  N   UNL     1       6.667   6.721  16.527  0.00  0.00    +0.000 NA
ENDBRANCH  18  19
ENDBRANCH   8  18
TORSDOF 6
ENDMDL
MODEL 6
REMARK VINA RESULT:      -6.8      1.980      5.770
REMARK  Name = 
REMARK  8 active torsions:
REMARK  status: ('A' for Active; 'I' for Inactive)
REMARK    1  A    between atoms: C_1  and  O_2
REMARK    2  A    between atoms: O_2  and  C_3
REMARK    3  A    between atoms: C_3  and  C_4
REMARK    4  A    between atoms: C_4  and  N_5
REMARK    5  A    between atoms: C_6  and  C_8
REMARK    6  A    between atoms: N_15  and  C_16
REMARK    7  A    between atoms: C_16  and  C_17
REMARK    8  A    between atoms: C_19  and  C_20
REMARK                            x       y       z     vdW  Elec       q    Type
REMARK                         _______ _______ _______ _____ _____    ______ ____
ROOT
ATOM      1  C   UNL     1       4.051   3.595  19.033  0.00  0.00    +0.000 C 
ATOM      2  C   UNL     1       4.477   2.271  19.737  0.00  0.00    +0.000 C 
ATOM      3  C   UNL     1       3.689   1.148  19.050  0.00  0.00    +0.000 C 
ATOM      4  O   UNL     1       3.155   1.742  17.852  0.00  0.00    +0.000 OA
ATOM      5  C   UNL     1       2.835   3.049  18.301  0.00  0.00    +0.000 C 
ATOM      6  C   UNL     1       2.087   3.959  17.369  0.00  0.00    +0.000 C 
ATOM      7  C   UNL     1       1.585   5.143  18.211  0.00  0.00    +0.000 C 
ATOM      8  N   UNL     1       2.659   5.757  19.025  0.00  0.00    +0.000 NA
ATOM      9  C   UNL     1       3.459   4.782  19.841  0.00  0.00    +0.000 C 
ENDROOT
BRANCH   1  11
ATOM     10  N   UNL     1       6.100   3.864  17.490  0.00  0.00    +0.000 N 
ATOM     11  C   UNL     1       5.428   4.162  18.635  0.00  0.00    +0.000 C 
ATOM     12  O   UNL     1       6.029   4.850  19.483  0.00  0.00    +0.000 OA
ATOM     13  H   UNL     1       5.632   3.418  16.709  0.00  0.00    +0.000 HD
BRANCH  10  14
ATOM     14  C   UNL     1       7.255   4.717  17.186  0.00  0.00    +0.000 C 
BRANCH  14  15
ATOM     15  C   UNL     1       7.008   5.773  16.129  0.00  0.00    +0.000 C 
BRANCH  15  17
ATOM     16  C   UNL     1       7.655   7.256  17.830  0.00  0.00    +0.000 C 
ATOM     17  O   UNL     1       7.784   6.922  16.458  0.00  0.00    +0.000 OA
ENDBRANCH  15  17
ENDBRANCH  14  15
ENDBRANCH  10  14
ENDBRANCH   1  11
BRANCH   8  18
ATOM     18  C   UNL     1       2.123   6.758  19.983  0.00  0.00    +0.000 C 
BRANCH  18  19
ATOM     19  C   UNL     1       1.894   8.121  19.420  0.00  0.00    +0.000 A 
ATOM     20  C   UNL     1       1.091   9.174  19.914  0.00  0.00    +0.000 A 
ATOM     21  C   UNL     1       1.112  10.114  18.915  0.00  0.00    +0.000 A 
ATOM     22  C   UNL     1       0.447  11.410  18.711  0.00  0.00    +0.000 C 
ATOM     23  O   UNL     1       1.901   9.675  17.900  0.00  0.00    +0.000 OA
ATOM     24  N   UNL     1       2.400   8.424  18.215  0.00  0.00    +0.000 NA
ENDBRANCH  18  19
ENDBRANCH   8  18
TORSDOF 6
ENDMDL
MODEL 7
REMARK VINA RESULT:      -6.7      1.708      5.998
REMARK  Name = 
REMARK  8 active torsions:
REMARK  status: ('A' for Active; 'I' for Inactive)
REMARK    1  A    between atoms: C_1  and  O_2
REMARK    2  A    between atoms: O_2  and  C_3
REMARK    3  A    between atoms: C_3  and  C_4
REMARK    4  A    between atoms: C_4  and  N_5
REMARK    5  A    between atoms: C_6  and  C_8
REMARK    6  A    between atoms: N_15  and  C_16
REMARK    7  A    between atoms: C_16  and  C_17
REMARK    8  A    between atoms: C_19  and  C_20
REMARK                            x       y       z     vdW  Elec       q    Type
REMARK                         _______ _______ _______ _____ _____    ______ ____
ROOT
ATOM      1  C   UNL     1       4.029   3.712  19.175  0.00  0.00    +0.000 C 
ATOM      2  C   UNL     1       4.478   2.371  19.831  0.00  0.00    +0.000 C 
ATOM      3  C   UNL     1       3.769   1.255  19.052  0.00  0.00    +0.000 C 
ATOM      4  O   UNL     1       3.267   1.889  17.861  0.00  0.00    +0.000 OA
ATOM      5  C   UNL     1       2.872   3.157  18.359  0.00  0.00    +0.000 C 
ATOM      6  C   UNL     1       2.130   4.084  17.439  0.00  0.00    +0.000 C 
ATOM      7  C   UNL     1       1.540   5.202  18.314  0.00  0.00    +0.000 C 
ATOM      8  N   UNL     1       2.548   5.814  19.209  0.00  0.00    +0.000 NA
ATOM      9  C   UNL     1       3.351   4.831  20.012  0.00  0.00    +0.000 C 
ENDROOT
BRANCH   1  11
ATOM     10  N   UNL     1       6.294   3.898  17.955  0.00  0.00    +0.000 N 
ATOM     11  C   UNL     1       5.398   4.354  18.872  0.00  0.00    +0.000 C 
ATOM     12  O   UNL     1       5.765   5.288  19.611  0.00  0.00    +0.000 OA
ATOM     13  H   UNL     1       6.021   3.230  17.244  0.00  0.00    +0.000 HD
BRANCH  10  14
ATOM     14  C   UNL     1       7.402   4.807  17.639  0.00  0.00    +0.000 C 
BRANCH  14  15
ATOM     15  C   UNL     1       7.096   5.838  16.572  0.00  0.00    +0.000 C 
BRANCH  15  17
ATOM     16  C   UNL     1       6.740   4.765  14.514  0.00  0.00    +0.000 C 
ATOM     17  O   UNL     1       7.690   5.404  15.351  0.00  0.00    +0.000 OA
ENDBRANCH  15  17
ENDBRANCH  14  15
ENDBRANCH  10  14
ENDBRANCH   1  11
BRANCH   8  18
ATOM     18  C   UNL     1       1.927   6.742  20.189  0.00  0.00    +0.000 C 
BRANCH  18  19
ATOM     19  C   UNL     1       1.685   8.128  19.690  0.00  0.00    +0.000 A 
ATOM     20  C   UNL     1       0.900   9.160  20.252  0.00  0.00    +0.000 A 
ATOM     21  C   UNL     1       0.893  10.142  19.293  0.00  0.00    +0.000 A 
ATOM     22  C   UNL     1       0.225  11.445  19.164  0.00  0.00    +0.000 C 
ATOM     23  O   UNL     1       1.650   9.744  18.237  0.00  0.00    +0.000 OA
ATOM     24  N   UNL     1       2.155   8.481  18.484  0.00  0.00    +0.000 NA
ENDBRANCH  18  19
ENDBRANCH   8  18
TORSDOF 6
ENDMDL
MODEL 8
REMARK VINA RESULT:      -6.7      1.224      1.610
REMARK  Name = 
REMARK  8 active torsions:
REMARK  status: ('A' for Active; 'I' for Inactive)
REMARK    1  A    between atoms: C_1  and  O_2
REMARK    2  A    between atoms: O_2  and  C_3
REMARK    3  A    between atoms: C_3  and  C_4
REMARK    4  A    between atoms: C_4  and  N_5
REMARK    5  A    between atoms: C_6  and  C_8
REMARK    6  A    between atoms: N_15  and  C_16
REMARK    7  A    between atoms: C_16  and  C_17
REMARK    8  A    between atoms: C_19  and  C_20
REMARK                            x       y       z     vdW  Elec       q    Type
REMARK                         _______ _______ _______ _____ _____    ______ ____
ROOT
ATOM      1  C   UNL     1       2.849   5.424  18.509  0.00  0.00    +0.000 C 
ATOM      2  C   UNL     1       1.530   4.826  17.930  0.00  0.00    +0.000 C 
ATOM      3  C   UNL     1       1.511   3.349  18.344  0.00  0.00    +0.000 C 
ATOM      4  O   UNL     1       2.531   3.229  19.353  0.00  0.00    +0.000 OA
ATOM      5  C   UNL     1       3.527   4.108  18.856  0.00  0.00    +0.000 C 
ATOM      6  C   UNL     1       4.857   4.147  19.555  0.00  0.00    +0.000 C 
ATOM      7  C   UNL     1       5.826   4.898  18.629  0.00  0.00    +0.000 C 
ATOM      8  N   UNL     1       5.278   6.192  18.163  0.00  0.00    +0.000 NA
ATOM      9  C   UNL     1       3.892   6.115  17.590  0.00  0.00    +0.000 C 
ENDROOT
BRANCH   1  11
ATOM     10  N   UNL     1       1.795   6.587  20.556  0.00  0.00    +0.000 N 
ATOM     11  C   UNL     1       2.295   6.632  19.292  0.00  0.00    +0.000 C 
ATOM     12  O   UNL     1       2.181   7.708  18.674  0.00  0.00    +0.000 OA
ATOM     13  H   UNL     1       1.963   5.788  21.158  0.00  0.00    +0.000 HD
BRANCH  10  14
ATOM     14  C   UNL     1       1.578   7.885  21.204  0.00  0.00    +0.000 C 
BRANCH  14  15
ATOM     15  C   UNL     1       0.130   8.218  21.496  0.00  0.00    +0.000 C 
BRANCH  15  17
ATOM     16  C   UNL     1      -0.360   9.847  23.116  0.00  0.00    +0.000 C 
ATOM     17  O   UNL     1       0.042   9.614  21.776  0.00  0.00    +0.000 OA
ENDBRANCH  15  17
ENDBRANCH  14  15
ENDBRANCH  10  14
ENDBRANCH   1  11
BRANCH   8  18
ATOM     18  C   UNL     1       6.129   6.807  17.112  0.00  0.00    +0.000 C 
BRANCH  18  19
ATOM     19  C   UNL     1       6.383   5.951  15.916  0.00  0.00    +0.000 A 
ATOM     20  C   UNL     1       5.461   5.327  15.046  0.00  0.00    +0.000 A 
ATOM     21  C   UNL     1       6.237   4.529  14.243  0.00  0.00    +0.000 A 
ATOM     22  C   UNL     1       5.950   3.554  13.181  0.00  0.00    +0.000 C 
ATOM     23  O   UNL     1       7.543   4.686  14.582  0.00  0.00    +0.000 OA
ATOM     24  N   UNL     1       7.641   5.583  15.630  0.00  0.00    +0.000 NA
ENDBRANCH  18  19
ENDBRANCH   8  18
TORSDOF 6
ENDMDL
MODEL 9
REMARK VINA RESULT:      -6.7      2.472      6.975
REMARK  Name = 
REMARK  8 active torsions:
REMARK  status: ('A' for Active; 'I' for Inactive)
REMARK    1  A    between atoms: C_1  and  O_2
REMARK    2  A    between atoms: O_2  and  C_3
REMARK    3  A    between atoms: C_3  and  C_4
REMARK    4  A    between atoms: C_4  and  N_5
REMARK    5  A    between atoms: C_6  and  C_8
REMARK    6  A    between atoms: N_15  and  C_16
REMARK    7  A    between atoms: C_16  and  C_17
REMARK    8  A    between atoms: C_19  and  C_20
REMARK                            x       y       z     vdW  Elec       q    Type
REMARK                         _______ _______ _______ _____ _____    ______ ____
ROOT
ATOM      1  C   UNL     1       6.212   6.392  17.313  0.00  0.00    +0.000 C 
ATOM      2  C   UNL     1       7.076   7.687  17.404  0.00  0.00    +0.000 C 
ATOM      3  C   UNL     1       8.138   7.418  18.477  0.00  0.00    +0.000 C 
ATOM      4  O   UNL     1       8.096   5.997  18.699  0.00  0.00    +0.000 OA
ATOM      5  C   UNL     1       6.707   5.733  18.590  0.00  0.00    +0.000 C 
ATOM      6  C   UNL     1       6.215   4.354  18.926  0.00  0.00    +0.000 C 
ATOM      7  C   UNL     1       4.686   4.445  19.054  0.00  0.00    +0.000 C 
ATOM      8  N   UNL     1       4.057   5.115  17.893  0.00  0.00    +0.000 NA
ATOM      9  C   UNL     1       4.674   6.433  17.523  0.00  0.00    +0.000 C 
ENDROOT
BRANCH   1  11
ATOM     10  N   UNL     1       7.289   5.389  15.195  0.00  0.00    +0.000 N 
ATOM     11  C   UNL     1       6.299   6.097  15.802  0.00  0.00    +0.000 C 
ATOM     12  O   UNL     1       5.465   6.656  15.063  0.00  0.00    +0.000 OA
ATOM     13  H   UNL     1       7.924   4.809  15.732  0.00  0.00    +0.000 HD
BRANCH  10  14
ATOM     14  C   UNL     1       7.035   4.999  13.803  0.00  0.00    +0.000 C 
BRANCH  14  15
ATOM     15  C   UNL     1       6.126   3.799  13.633  0.00  0.00    +0.000 C 
BRANCH  15  17
ATOM     16  C   UNL     1       5.144   2.768  11.765  0.00  0.00    +0.000 C 
ATOM     17  O   UNL     1       6.349   3.253  12.335  0.00  0.00    +0.000 OA
ENDBRANCH  15  17
ENDBRANCH  14  15
ENDBRANCH  10  14
ENDBRANCH   1  11
BRANCH   8  18
ATOM     18  C   UNL     1       2.614   5.382  18.123  0.00  0.00    +0.000 C 
BRANCH  18  19
ATOM     19  C   UNL     1       1.937   4.449  19.071  0.00  0.00    +0.000 A 
ATOM     20  C   UNL     1       2.019   4.386  20.481  0.00  0.00    +0.000 A 
ATOM     21  C   UNL     1       1.342   3.239  20.810  0.00  0.00    +0.000 A 
ATOM     22  C   UNL     1       1.094   2.518  22.067  0.00  0.00    +0.000 C 
ATOM     23  O   UNL     1       0.853   2.666  19.680  0.00  0.00    +0.000 OA
ATOM     24  N   UNL     1       1.220   3.426  18.584  0.00  0.00    +0.000 NA
ENDBRANCH  18  19
ENDBRANCH   8  18
TORSDOF 6
ENDMDL
