MODEL 1
REMARK VINA RESULT:      -8.0      0.000      0.000
REMARK  Name = 
REMARK  15 active torsions:
REMARK  status: ('A' for Active; 'I' for Inactive)
REMARK    1  A    between atoms: C_1  and  O_2
REMARK    2  A    between atoms: O_2  and  C_3
REMARK    3  A    between atoms: C_5  and  C_6
REMARK    4  A    between atoms: C_6  and  C_8
REMARK    5  A    between atoms: C_9  and  C_10
REMARK    6  A    between atoms: C_13  and  O_14
REMARK    7  A    between atoms: C_18  and  O_19
REMARK    8  A    between atoms: O_19  and  C_20
REMARK    9  A    between atoms: C_21  and  O_22
REMARK   10  A    between atoms: O_22  and  C_23
REMARK   11  A    between atoms: C_25  and  C_26
REMARK   12  A    between atoms: C_26  and  O_27
REMARK   13  A    between atoms: C_28  and  O_29
REMARK   14  A    between atoms: C_30  and  O_31
REMARK   15  A    between atoms: C_32  and  O_33
REMARK                            x       y       z     vdW  Elec       q    Type
REMARK                         _______ _______ _______ _____ _____    ______ ____
ROOT
ATOM      1  C   UNL     1       5.822   4.835  16.300  0.00  0.00    +0.000 A 
ATOM      2  C   UNL     1       6.901   5.602  16.749  0.00  0.00    +0.000 A 
ATOM      3  C   UNL     1       6.709   6.698  17.598  0.00  0.00    +0.000 A 
ATOM      4  C   UNL     1       5.411   7.122  17.874  0.00  0.00    +0.000 A 
ATOM      5  C   UNL     1       4.317   6.369  17.420  0.00  0.00    +0.000 A 
ATOM      6  C   UNL     1       4.518   5.156  16.727  0.00  0.00    +0.000 A 
ENDROOT
BRANCH   1   8
ATOM      7  C   UNL     1       6.339   3.913  14.157  0.00  0.00    +0.000 C 
ATOM      8  O   UNL     1       6.010   3.718  15.529  0.00  0.00    +0.000 OA
ENDBRANCH   1   8
BRANCH   3   9
ATOM      9  C   UNL     1       7.883   7.370  18.232  0.00  0.00    +0.000 C 
ATOM     10  O   UNL     1       8.644   6.750  18.966  0.00  0.00    +0.000 OA
BRANCH   9  11
ATOM     11  C   UNL     1       8.104   8.799  17.866  0.00  0.00    +0.000 C 
ATOM     12  C   UNL     1       8.925   9.617  18.540  0.00  0.00    +0.000 C 
BRANCH  12  13
ATOM     13  C   UNL     1       9.118  11.035  18.173  0.00  0.00    +0.000 A 
ATOM     14  C   UNL     1      10.399  11.600  18.260  0.00  0.00    +0.000 A 
ATOM     15  C   UNL     1      10.619  12.942  17.925  0.00  0.00    +0.000 A 
ATOM     16  C   UNL     1       9.554  13.725  17.494  0.00  0.00    +0.000 A 
ATOM     17  C   UNL     1       8.282  13.186  17.382  0.00  0.00    +0.000 A 
ATOM     18  C   UNL     1       8.067  11.845  17.710  0.00  0.00    +0.000 A 
BRANCH  16  19
ATOM     19  O   UNL     1       9.717  15.036  17.162  0.00  0.00    +0.000 OA
ATOM     20  H   UNL     1      10.620  15.167  16.828  0.00  0.00    +0.000 HD
ENDBRANCH  16  19
ENDBRANCH  12  13
ENDBRANCH   9  11
ENDBRANCH   3   9
BRANCH   5  21
ATOM     21  O   UNL     1       3.090   6.832  17.827  0.00  0.00    +0.000 OA
ATOM     22  C   UNL     1       2.911   8.246  17.730  0.00  0.00    +0.000 C 
ENDBRANCH   5  21
BRANCH   6  23
ATOM     23  O   UNL     1       3.409   4.375  16.511  0.00  0.00    +0.000 OA
BRANCH  23  24
ATOM     24  C   UNL     1       2.884   3.567  17.594  0.00  0.00    +0.000 C 
ATOM     25  O   UNL     1       2.153   4.331  18.549  0.00  0.00    +0.000 OA
ATOM     26  C   UNL     1       1.744   3.647  19.731  0.00  0.00    +0.000 C 
ATOM     27  C   UNL     1       2.915   2.981  20.455  0.00  0.00    +0.000 C 
ATOM     28  C   UNL     1       3.683   2.059  19.506  0.00  0.00    +0.000 C 
ATOM     29  C   UNL     1       4.033   2.695  18.158  0.00  0.00    +0.000 C 
BRANCH  27  30
ATOM     30  O   UNL     1       2.400   2.229  21.566  0.00  0.00    +0.000 OA
ATOM     31  H   UNL     1       2.874   1.379  21.622  0.00  0.00    +0.000 HD
ENDBRANCH  27  30
BRANCH  28  32
ATOM     32  O   UNL     1       4.877   1.596  20.163  0.00  0.00    +0.000 OA
ATOM     33  H   UNL     1       4.993   2.115  20.982  0.00  0.00    +0.000 HD
ENDBRANCH  28  32
BRANCH  29  34
ATOM     34  O   UNL     1       4.392   1.671  17.200  0.00  0.00    +0.000 OA
ATOM     35  H   UNL     1       4.880   2.075  16.462  0.00  0.00    +0.000 HD
ENDBRANCH  29  34
BRANCH  26  36
ATOM     36  C   UNL     1       1.090   4.718  20.621  0.00  0.00    +0.000 C 
BRANCH  36  37
ATOM     37  O   UNL     1       2.095   5.486  21.292  0.00  0.00    +0.000 OA
ATOM     38  H   UNL     1       1.777   5.550  22.215  0.00  0.00    +0.000 HD
ENDBRANCH  36  37
ENDBRANCH  26  36
ENDBRANCH  23  24
ENDBRANCH   6  23
TORSDOF 13
ENDMDL
MODEL 2
REMARK VINA RESULT:      -7.6      4.861      8.410
REMARK  Name = 
REMARK  15 active torsions:
REMARK  status: ('A' for Active; 'I' for Inactive)
REMARK    1  A    between atoms: C_1  and  O_2
REMARK    2  A    between atoms: O_2  and  C_3
REMARK    3  A    between atoms: C_5  and  C_6
REMARK    4  A    between atoms: C_6  and  C_8
REMARK    5  A    between atoms: C_9  and  C_10
REMARK    6  A    between atoms: C_13  and  O_14
REMARK    7  A    between atoms: C_18  and  O_19
REMARK    8  A    between atoms: O_19  and  C_20
REMARK    9  A    between atoms: C_21  and  O_22
REMARK   10  A    between atoms: O_22  and  C_23
REMARK   11  A    between atoms: C_25  and  C_26
REMARK   12  A    between atoms: C_26  and  O_27
REMARK   13  A    between atoms: C_28  and  O_29
REMARK   14  A    between atoms: C_30  and  O_31
REMARK   15  A    between atoms: C_32  and  O_33
REMARK                            x       y       z     vdW  Elec       q    Type
REMARK                         _______ _______ _______ _____ _____    ______ ____
ROOT
ATOM      1  C   UNL     1       1.898   8.709  18.675  0.00  0.00    +0.000 A 
ATOM      2  C   UNL     1       1.400   9.292  19.843  0.00  0.00    +0.000 A 
ATOM      3  C   UNL     1       1.283   8.559  21.029  0.00  0.00    +0.000 A 
ATOM      4  C   UNL     1       1.523   7.186  21.003  0.00  0.00    +0.000 A 
ATOM      5  C   UNL     1       2.012   6.584  19.834  0.00  0.00    +0.000 A 
ATOM      6  C   UNL     1       2.312   7.362  18.696  0.00  0.00    +0.000 A 
ENDROOT
BRANCH   1   8
ATOM      7  C   UNL     1       2.234  10.850  17.669  0.00  0.00    +0.000 C 
ATOM      8  O   UNL     1       2.082   9.440  17.532  0.00  0.00    +0.000 OA
ENDBRANCH   1   8
BRANCH   3   9
ATOM      9  C   UNL     1       0.952   9.252  22.310  0.00  0.00    +0.000 C 
ATOM     10  O   UNL     1       1.759   9.295  23.231  0.00  0.00    +0.000 OA
BRANCH   9  11
ATOM     11  C   UNL     1      -0.374   9.933  22.369  0.00  0.00    +0.000 C 
ATOM     12  C   UNL     1      -0.533  11.257  22.224  0.00  0.00    +0.000 C 
BRANCH  12  13
ATOM     13  C   UNL     1      -1.853  11.916  22.303  0.00  0.00    +0.000 A 
ATOM     14  C   UNL     1      -2.399  12.501  21.150  0.00  0.00    +0.000 A 
ATOM     15  C   UNL     1      -3.645  13.139  21.188  0.00  0.00    +0.000 A 
ATOM     16  C   UNL     1      -4.356  13.189  22.382  0.00  0.00    +0.000 A 
ATOM     17  C   UNL     1      -3.846  12.603  23.531  0.00  0.00    +0.000 A 
ATOM     18  C   UNL     1      -2.605  11.961  23.488  0.00  0.00    +0.000 A 
BRANCH  16  19
ATOM     19  O   UNL     1      -5.569  13.801  22.470  0.00  0.00    +0.000 OA
ATOM     20  H   UNL     1      -6.050  13.440  23.231  0.00  0.00    +0.000 HD
ENDBRANCH  16  19
ENDBRANCH  12  13
ENDBRANCH   9  11
ENDBRANCH   3   9
BRANCH   5  21
ATOM     21  O   UNL     1       2.296   5.246  19.952  0.00  0.00    +0.000 OA
ATOM     22  C   UNL     1       1.209   4.429  20.389  0.00  0.00    +0.000 C 
ENDBRANCH   5  21
BRANCH   6  23
ATOM     23  O   UNL     1       2.987   6.735  17.677  0.00  0.00    +0.000 OA
BRANCH  23  24
ATOM     24  C   UNL     1       4.226   6.040  17.963  0.00  0.00    +0.000 C 
ATOM     25  O   UNL     1       5.370   6.882  17.859  0.00  0.00    +0.000 OA
ATOM     26  C   UNL     1       6.640   6.243  17.960  0.00  0.00    +0.000 C 
ATOM     27  C   UNL     1       6.802   5.103  16.955  0.00  0.00    +0.000 C 
ATOM     28  C   UNL     1       5.654   4.099  17.088  0.00  0.00    +0.000 C 
ATOM     29  C   UNL     1       4.262   4.738  17.124  0.00  0.00    +0.000 C 
BRANCH  27  30
ATOM     30  O   UNL     1       8.059   4.450  17.199  0.00  0.00    +0.000 OA
ATOM     31  H   UNL     1       8.060   3.584  16.751  0.00  0.00    +0.000 HD
ENDBRANCH  27  30
BRANCH  28  32
ATOM     32  O   UNL     1       5.736   3.146  16.013  0.00  0.00    +0.000 OA
ATOM     33  H   UNL     1       6.107   3.600  15.232  0.00  0.00    +0.000 HD
ENDBRANCH  28  32
BRANCH  29  34
ATOM     34  O   UNL     1       3.292   3.793  17.634  0.00  0.00    +0.000 OA
ATOM     35  H   UNL     1       3.643   3.371  18.437  0.00  0.00    +0.000 HD
ENDBRANCH  29  34
BRANCH  26  36
ATOM     36  C   UNL     1       7.679   7.349  17.702  0.00  0.00    +0.000 C 
BRANCH  36  37
ATOM     37  O   UNL     1       8.524   7.511  18.846  0.00  0.00    +0.000 OA
ATOM     38  H   UNL     1       9.282   6.917  18.675  0.00  0.00    +0.000 HD
ENDBRANCH  36  37
ENDBRANCH  26  36
ENDBRANCH  23  24
ENDBRANCH   6  23
TORSDOF 13
ENDMDL
MODEL 3
REMARK VINA RESULT:      -7.5      6.826     10.856
REMARK  Name = 
REMARK  15 active torsions:
REMARK  status: ('A' for Active; 'I' for Inactive)
REMARK    1  A    between atoms: C_1  and  O_2
REMARK    2  A    between atoms: O_2  and  C_3
REMARK    3  A    between atoms: C_5  and  C_6
REMARK    4  A    between atoms: C_6  and  C_8
REMARK    5  A    between atoms: C_9  and  C_10
REMARK    6  A    between atoms: C_13  and  O_14
REMARK    7  A    between atoms: C_18  and  O_19
REMARK    8  A    between atoms: O_19  and  C_20
REMARK    9  A    between atoms: C_21  and  O_22
REMARK   10  A    between atoms: O_22  and  C_23
REMARK   11  A    between atoms: C_25  and  C_26
REMARK   12  A    between atoms: C_26  and  O_27
REMARK   13  A    between atoms: C_28  and  O_29
REMARK   14  A    between atoms: C_30  and  O_31
REMARK   15  A    between atoms: C_32  and  O_33
REMARK                            x       y       z     vdW  Elec       q    Type
REMARK                         _______ _______ _______ _____ _____    ______ ____
ROOT
ATOM      1  C   UNL     1      -0.172  10.763  21.069  0.00  0.00    +0.000 A 
ATOM      2  C   UNL     1       0.708   9.942  20.359  0.00  0.00    +0.000 A 
ATOM      3  C   UNL     1       0.712   9.918  18.961  0.00  0.00    +0.000 A 
ATOM      4  C   UNL     1      -0.282  10.608  18.269  0.00  0.00    +0.000 A 
ATOM      5  C   UNL     1      -1.181  11.428  18.968  0.00  0.00    +0.000 A 
ATOM      6  C   UNL     1      -1.058  11.601  20.363  0.00  0.00    +0.000 A 
ENDROOT
BRANCH   1   8
ATOM      7  C   UNL     1       0.022   9.632  23.164  0.00  0.00    +0.000 C 
ATOM      8  O   UNL     1      -0.130  10.846  22.436  0.00  0.00    +0.000 OA
ENDBRANCH   1   8
BRANCH   3   9
ATOM      9  C   UNL     1       1.795   9.199  18.225  0.00  0.00    +0.000 C 
ATOM     10  O   UNL     1       2.608   9.811  17.542  0.00  0.00    +0.000 OA
BRANCH   9  11
ATOM     11  C   UNL     1       1.863   7.722  18.426  0.00  0.00    +0.000 C 
ATOM     12  C   UNL     1       2.788   6.939  17.853  0.00  0.00    +0.000 C 
BRANCH  12  13
ATOM     13  C   UNL     1       2.830   5.475  18.051  0.00  0.00    +0.000 A 
ATOM     14  C   UNL     1       1.667   4.720  17.840  0.00  0.00    +0.000 A 
ATOM     15  C   UNL     1       1.667   3.331  18.023  0.00  0.00    +0.000 A 
ATOM     16  C   UNL     1       2.838   2.690  18.414  0.00  0.00    +0.000 A 
ATOM     17  C   UNL     1       4.005   3.413  18.612  0.00  0.00    +0.000 A 
ATOM     18  C   UNL     1       4.003   4.797  18.421  0.00  0.00    +0.000 A 
BRANCH  16  19
ATOM     19  O   UNL     1       2.887   1.343  18.610  0.00  0.00    +0.000 OA
ATOM     20  H   UNL     1       3.052   1.167  19.550  0.00  0.00    +0.000 HD
ENDBRANCH  16  19
ENDBRANCH  12  13
ENDBRANCH   9  11
ENDBRANCH   3   9
BRANCH   5  21
ATOM     21  O   UNL     1      -2.057  12.128  18.176  0.00  0.00    +0.000 OA
ATOM     22  C   UNL     1      -2.978  11.328  17.433  0.00  0.00    +0.000 C 
ENDBRANCH   5  21
BRANCH   6  23
ATOM     23  O   UNL     1      -1.831  12.582  20.936  0.00  0.00    +0.000 OA
BRANCH  23  24
ATOM     24  C   UNL     1      -3.175  12.264  21.376  0.00  0.00    +0.000 C 
ATOM     25  O   UNL     1      -4.175  12.704  20.460  0.00  0.00    +0.000 OA
ATOM     26  C   UNL     1      -5.528  12.583  20.891  0.00  0.00    +0.000 C 
ATOM     27  C   UNL     1      -5.779  13.276  22.231  0.00  0.00    +0.000 C 
ATOM     28  C   UNL     1      -4.801  12.767  23.293  0.00  0.00    +0.000 C 
ATOM     29  C   UNL     1      -3.338  12.743  22.840  0.00  0.00    +0.000 C 
BRANCH  27  30
ATOM     30  O   UNL     1      -7.131  13.012  22.639  0.00  0.00    +0.000 OA
ATOM     31  H   UNL     1      -7.134  12.738  23.574  0.00  0.00    +0.000 HD
ENDBRANCH  27  30
BRANCH  28  32
ATOM     32  O   UNL     1      -4.940  13.567  24.482  0.00  0.00    +0.000 OA
ATOM     33  H   UNL     1      -4.099  14.040  24.629  0.00  0.00    +0.000 HD
ENDBRANCH  28  32
BRANCH  29  34
ATOM     34  O   UNL     1      -2.555  11.907  23.723  0.00  0.00    +0.000 OA
ATOM     35  H   UNL     1      -3.148  11.326  24.230  0.00  0.00    +0.000 HD
ENDBRANCH  29  34
BRANCH  26  36
ATOM     36  C   UNL     1      -6.374  13.226  19.778  0.00  0.00    +0.000 C 
BRANCH  36  37
ATOM     37  O   UNL     1      -5.567  13.463  18.619  0.00  0.00    +0.000 OA
ATOM     38  H   UNL     1      -4.913  14.130  18.910  0.00  0.00    +0.000 HD
ENDBRANCH  36  37
ENDBRANCH  26  36
ENDBRANCH  23  24
ENDBRANCH   6  23
TORSDOF 13
ENDMDL
MODEL 4
REMARK VINA RESULT:      -7.3      7.060     11.020
REMARK  Name = 
REMARK  15 active torsions:
REMARK  status: ('A' for Active; 'I' for Inactive)
REMARK    1  A    between atoms: C_1  and  O_2
REMARK    2  A    between atoms: O_2  and  C_3
REMARK    3  A    between atoms: C_5  and  C_6
REMARK    4  A    between atoms: C_6  and  C_8
REMARK    5  A    between atoms: C_9  and  C_10
REMARK    6  A    between atoms: C_13  and  O_14
REMARK    7  A    between atoms: C_18  and  O_19
REMARK    8  A    between atoms: O_19  and  C_20
REMARK    9  A    between atoms: C_21  and  O_22
REMARK   10  A    between atoms: O_22  and  C_23
REMARK   11  A    between atoms: C_25  and  C_26
REMARK   12  A    between atoms: C_26  and  O_27
REMARK   13  A    between atoms: C_28  and  O_29
REMARK   14  A    between atoms: C_30  and  O_31
REMARK   15  A    between atoms: C_32  and  O_33
REMARK                            x       y       z     vdW  Elec       q    Type
REMARK                         _______ _______ _______ _____ _____    ______ ____
ROOT
ATOM      1  C   UNL     1       0.054  11.847  20.577  0.00  0.00    +0.000 A 
ATOM      2  C   UNL     1       1.000  11.022  19.963  0.00  0.00    +0.000 A 
ATOM      3  C   UNL     1       0.695  10.308  18.799  0.00  0.00    +0.000 A 
ATOM      4  C   UNL     1      -0.619  10.300  18.334  0.00  0.00    +0.000 A 
ATOM      5  C   UNL     1      -1.583  11.114  18.948  0.00  0.00    +0.000 A 
ATOM      6  C   UNL     1      -1.226  11.981  20.002  0.00  0.00    +0.000 A 
ENDROOT
BRANCH   1   8
ATOM      7  C   UNL     1       0.903  13.905  21.445  0.00  0.00    +0.000 C 
ATOM      8  O   UNL     1       0.369  12.605  21.674  0.00  0.00    +0.000 OA
ENDBRANCH   1   8
BRANCH   3   9
ATOM      9  C   UNL     1       1.776   9.605  18.046  0.00  0.00    +0.000 C 
ATOM     10  O   UNL     1       2.678  10.233  17.504  0.00  0.00    +0.000 OA
BRANCH   9  11
ATOM     11  C   UNL     1       1.725   8.114  18.053  0.00  0.00    +0.000 C 
ATOM     12  C   UNL     1       2.212   7.362  19.050  0.00  0.00    +0.000 C 
BRANCH  12  13
ATOM     13  C   UNL     1       2.166   5.885  19.032  0.00  0.00    +0.000 A 
ATOM     14  C   UNL     1       2.128   5.183  20.246  0.00  0.00    +0.000 A 
ATOM     15  C   UNL     1       2.090   3.784  20.268  0.00  0.00    +0.000 A 
ATOM     16  C   UNL     1       2.084   3.078  19.069  0.00  0.00    +0.000 A 
ATOM     17  C   UNL     1       2.104   3.749  17.856  0.00  0.00    +0.000 A 
ATOM     18  C   UNL     1       2.134   5.146  17.838  0.00  0.00    +0.000 A 
BRANCH  16  19
ATOM     19  O   UNL     1       2.052   1.717  19.039  0.00  0.00    +0.000 OA
ATOM     20  H   UNL     1       1.232   1.411  19.459  0.00  0.00    +0.000 HD
ENDBRANCH  16  19
ENDBRANCH  12  13
ENDBRANCH   9  11
ENDBRANCH   3   9
BRANCH   5  21
ATOM     21  O   UNL     1      -2.819  11.092  18.350  0.00  0.00    +0.000 OA
ATOM     22  C   UNL     1      -3.134   9.889  17.647  0.00  0.00    +0.000 C 
ENDBRANCH   5  21
BRANCH   6  23
ATOM     23  O   UNL     1      -2.170  12.896  20.399  0.00  0.00    +0.000 OA
BRANCH  23  24
ATOM     24  C   UNL     1      -3.264  12.470  21.250  0.00  0.00    +0.000 C 
ATOM     25  O   UNL     1      -4.542  12.696  20.663  0.00  0.00    +0.000 OA
ATOM     26  C   UNL     1      -5.674  12.461  21.496  0.00  0.00    +0.000 C 
ATOM     27  C   UNL     1      -5.610  13.251  22.804  0.00  0.00    +0.000 C 
ATOM     28  C   UNL     1      -4.299  12.969  23.541  0.00  0.00    +0.000 C 
ATOM     29  C   UNL     1      -3.049  13.070  22.661  0.00  0.00    +0.000 C 
BRANCH  27  30
ATOM     30  O   UNL     1      -6.729  12.873  23.624  0.00  0.00    +0.000 OA
ATOM     31  H   UNL     1      -7.335  13.632  23.702  0.00  0.00    +0.000 HD
ENDBRANCH  27  30
BRANCH  28  32
ATOM     32  O   UNL     1      -4.190  13.861  24.665  0.00  0.00    +0.000 OA
ATOM     33  H   UNL     1      -5.087  14.019  25.016  0.00  0.00    +0.000 HD
ENDBRANCH  28  32
BRANCH  29  34
ATOM     34  O   UNL     1      -1.928  12.423  23.309  0.00  0.00    +0.000 OA
ATOM     35  H   UNL     1      -2.256  11.741  23.919  0.00  0.00    +0.000 HD
ENDBRANCH  29  34
BRANCH  26  36
ATOM     36  C   UNL     1      -6.895  12.887  20.661  0.00  0.00    +0.000 C 
BRANCH  36  37
ATOM     37  O   UNL     1      -7.383  14.156  21.111  0.00  0.00    +0.000 OA
ATOM     38  H   UNL     1      -6.729  14.802  20.774  0.00  0.00    +0.000 HD
ENDBRANCH  36  37
ENDBRANCH  26  36
ENDBRANCH  23  24
ENDBRANCH   6  23
TORSDOF 13
ENDMDL
MODEL 5
REMARK VINA RESULT:      -7.3      6.987     10.902
REMARK  Name = 
REMARK  15 active torsions:
REMARK  status: ('A' for Active; 'I' for Inactive)
REMARK    1  A    between atoms: C_1  and  O_2
REMARK    2  A    between atoms: O_2  and  C_3
REMARK    3  A    between atoms: C_5  and  C_6
REMARK    4  A    between atoms: C_6  and  C_8
REMARK    5  A    between atoms: C_9  and  C_10
REMARK    6  A    between atoms: C_13  and  O_14
REMARK    7  A    between atoms: C_18  and  O_19
REMARK    8  A    between atoms: O_19  and  C_20
REMARK    9  A    between atoms: C_21  and  O_22
REMARK   10  A    between atoms: O_22  and  C_23
REMARK   11  A    between atoms: C_25  and  C_26
REMARK   12  A    between atoms: C_26  and  O_27
REMARK   13  A    between atoms: C_28  and  O_29
REMARK   14  A    between atoms: C_30  and  O_31
REMARK   15  A    between atoms: C_32  and  O_33
REMARK                            x       y       z     vdW  Elec       q    Type
REMARK                         _______ _______ _______ _____ _____    ______ ____
ROOT
ATOM      1  C   UNL     1      -0.474  11.608  20.172  0.00  0.00    +0.000 A 
ATOM      2  C   UNL     1       0.586  10.802  19.748  0.00  0.00    +0.000 A 
ATOM      3  C   UNL     1       0.512  10.073  18.556  0.00  0.00    +0.000 A 
ATOM      4  C   UNL     1      -0.696  10.030  17.862  0.00  0.00    +0.000 A 
ATOM      5  C   UNL     1      -1.773  10.825  18.283  0.00  0.00    +0.000 A 
ATOM      6  C   UNL     1      -1.631  11.707  19.375  0.00  0.00    +0.000 A 
ENDROOT
BRANCH   1   8
ATOM      7  C   UNL     1       0.637  13.379  21.330  0.00  0.00    +0.000 C 
ATOM      8  O   UNL     1      -0.379  12.381  21.300  0.00  0.00    +0.000 OA
ENDBRANCH   1   8
BRANCH   3   9
ATOM      9  C   UNL     1       1.727   9.391  18.017  0.00  0.00    +0.000 C 
ATOM     10  O   UNL     1       2.650  10.036  17.534  0.00  0.00    +0.000 OA
BRANCH   9  11
ATOM     11  C   UNL     1       1.772   7.907  18.163  0.00  0.00    +0.000 C 
ATOM     12  C   UNL     1       2.859   7.170  17.893  0.00  0.00    +0.000 C 
BRANCH  12  13
ATOM     13  C   UNL     1       2.879   5.698  18.029  0.00  0.00    +0.000 A 
ATOM     14  C   UNL     1       1.687   4.977  17.865  0.00  0.00    +0.000 A 
ATOM     15  C   UNL     1       1.667   3.582  17.991  0.00  0.00    +0.000 A 
ATOM     16  C   UNL     1       2.845   2.901  18.277  0.00  0.00    +0.000 A 
ATOM     17  C   UNL     1       4.040   3.590  18.426  0.00  0.00    +0.000 A 
ATOM     18  C   UNL     1       4.057   4.981  18.292  0.00  0.00    +0.000 A 
BRANCH  16  19
ATOM     19  O   UNL     1       2.875   1.546  18.413  0.00  0.00    +0.000 OA
ATOM     20  H   UNL     1       3.611   1.193  17.888  0.00  0.00    +0.000 HD
ENDBRANCH  16  19
ENDBRANCH  12  13
ENDBRANCH   9  11
ENDBRANCH   3   9
BRANCH   5  21
ATOM     21  O   UNL     1      -2.881  10.769  17.473  0.00  0.00    +0.000 OA
ATOM     22  C   UNL     1      -2.637  10.320  16.140  0.00  0.00    +0.000 C 
ENDBRANCH   5  21
BRANCH   6  23
ATOM     23  O   UNL     1      -2.652  12.602  19.585  0.00  0.00    +0.000 OA
BRANCH  23  24
ATOM     24  C   UNL     1      -3.800  12.202  20.375  0.00  0.00    +0.000 C 
ATOM     25  O   UNL     1      -4.978  12.035  19.591  0.00  0.00    +0.000 OA
ATOM     26  C   UNL     1      -6.190  11.805  20.307  0.00  0.00    +0.000 C 
ATOM     27  C   UNL     1      -6.467  12.890  21.349  0.00  0.00    +0.000 C 
ATOM     28  C   UNL     1      -5.274  13.047  22.294  0.00  0.00    +0.000 C 
ATOM     29  C   UNL     1      -3.920  13.160  21.586  0.00  0.00    +0.000 C 
BRANCH  27  30
ATOM     30  O   UNL     1      -7.641  12.524  22.092  0.00  0.00    +0.000 OA
ATOM     31  H   UNL     1      -8.192  11.934  21.545  0.00  0.00    +0.000 HD
ENDBRANCH  27  30
BRANCH  28  32
ATOM     32  O   UNL     1      -5.490  14.192  23.139  0.00  0.00    +0.000 OA
ATOM     33  H   UNL     1      -5.540  13.882  24.063  0.00  0.00    +0.000 HD
ENDBRANCH  28  32
BRANCH  29  34
ATOM     34  O   UNL     1      -2.844  12.912  22.521  0.00  0.00    +0.000 OA
ATOM     35  H   UNL     1      -2.275  12.201  22.179  0.00  0.00    +0.000 HD
ENDBRANCH  29  34
BRANCH  26  36
ATOM     36  C   UNL     1      -7.299  11.778  19.240  0.00  0.00    +0.000 C 
BRANCH  36  37
ATOM     37  O   UNL     1      -7.296  10.520  18.556  0.00  0.00    +0.000 OA
ATOM     38  H   UNL     1      -8.166  10.484  18.109  0.00  0.00    +0.000 HD
ENDBRANCH  36  37
ENDBRANCH  26  36
ENDBRANCH  23  24
ENDBRANCH   6  23
TORSDOF 13
ENDMDL
MODEL 6
REMARK VINA RESULT:      -7.3      3.989      7.852
REMARK  Name = 
REMARK  15 active torsions:
REMARK  status: ('A' for Active; 'I' for Inactive)
REMARK    1  A    between atoms: C_1  and  O_2
REMARK    2  A    between atoms: O_2  and  C_3
REMARK    3  A    between atoms: C_5  and  C_6
REMARK    4  A    between atoms: C_6  and  C_8
REMARK    5  A    between atoms: C_9  and  C_10
REMARK    6  A    between atoms: C_13  and  O_14
REMARK    7  A    between atoms: C_18  and  O_19
REMARK    8  A    between atoms: O_19  and  C_20
REMARK    9  A    between atoms: C_21  and  O_22
REMARK   10  A    between atoms: O_22  and  C_23
REMARK   11  A    between atoms: C_25  and  C_26
REMARK   12  A    between atoms: C_26  and  O_27
REMARK   13  A    between atoms: C_28  and  O_29
REMARK   14  A    between atoms: C_30  and  O_31
REMARK   15  A    between atoms: C_32  and  O_33
REMARK                            x       y       z     vdW  Elec       q    Type
REMARK                         _______ _______ _______ _____ _____    ______ ____
ROOT
ATOM      1  C   UNL     1       2.025   5.815  20.428  0.00  0.00    +0.000 A 
ATOM      2  C   UNL     1       1.569   7.005  21.002  0.00  0.00    +0.000 A 
ATOM      3  C   UNL     1       1.540   8.199  20.274  0.00  0.00    +0.000 A 
ATOM      4  C   UNL     1       2.118   8.232  19.005  0.00  0.00    +0.000 A 
ATOM      5  C   UNL     1       2.591   7.048  18.421  0.00  0.00    +0.000 A 
ATOM      6  C   UNL     1       2.442   5.811  19.082  0.00  0.00    +0.000 A 
ENDROOT
BRANCH   1   8
ATOM      7  C   UNL     1       0.974   3.694  20.757  0.00  0.00    +0.000 C 
ATOM      8  O   UNL     1       1.987   4.629  21.113  0.00  0.00    +0.000 OA
ENDBRANCH   1   8
BRANCH   3   9
ATOM      9  C   UNL     1       0.856   9.403  20.833  0.00  0.00    +0.000 C 
ATOM     10  O   UNL     1       1.386  10.081  21.705  0.00  0.00    +0.000 OA
BRANCH   9  11
ATOM     11  C   UNL     1      -0.459   9.759  20.225  0.00  0.00    +0.000 C 
ATOM     12  C   UNL     1      -0.583  10.375  19.040  0.00  0.00    +0.000 C 
BRANCH  12  13
ATOM     13  C   UNL     1      -1.895  10.734  18.461  0.00  0.00    +0.000 A 
ATOM     14  C   UNL     1      -2.322  10.104  17.282  0.00  0.00    +0.000 A 
ATOM     15  C   UNL     1      -3.556  10.423  16.702  0.00  0.00    +0.000 A 
ATOM     16  C   UNL     1      -4.373  11.374  17.305  0.00  0.00    +0.000 A 
ATOM     17  C   UNL     1      -3.981  11.998  18.479  0.00  0.00    +0.000 A 
ATOM     18  C   UNL     1      -2.753  11.672  19.060  0.00  0.00    +0.000 A 
BRANCH  16  19
ATOM     19  O   UNL     1      -5.579  11.721  16.776  0.00  0.00    +0.000 OA
ATOM     20  H   UNL     1      -6.026  10.920  16.459  0.00  0.00    +0.000 HD
ENDBRANCH  16  19
ENDBRANCH  12  13
ENDBRANCH   9  11
ENDBRANCH   3   9
BRANCH   5  21
ATOM     21  O   UNL     1       3.057   7.186  17.136  0.00  0.00    +0.000 OA
ATOM     22  C   UNL     1       4.429   7.567  17.024  0.00  0.00    +0.000 C 
ENDBRANCH   5  21
BRANCH   6  23
ATOM     23  O   UNL     1       2.729   4.681  18.356  0.00  0.00    +0.000 OA
BRANCH  23  24
ATOM     24  C   UNL     1       4.091   4.188  18.311  0.00  0.00    +0.000 C 
ATOM     25  O   UNL     1       5.010   5.043  18.985  0.00  0.00    +0.000 OA
ATOM     26  C   UNL     1       6.393   4.723  18.848  0.00  0.00    +0.000 C 
ATOM     27  C   UNL     1       6.827   4.624  17.385  0.00  0.00    +0.000 C 
ATOM     28  C   UNL     1       5.941   3.635  16.624  0.00  0.00    +0.000 C 
ATOM     29  C   UNL     1       4.439   3.842  16.841  0.00  0.00    +0.000 C 
BRANCH  27  30
ATOM     30  O   UNL     1       8.198   4.194  17.341  0.00  0.00    +0.000 OA
ATOM     31  H   UNL     1       8.338   3.510  18.021  0.00  0.00    +0.000 HD
ENDBRANCH  27  30
BRANCH  28  32
ATOM     32  O   UNL     1       6.255   3.705  15.222  0.00  0.00    +0.000 OA
ATOM     33  H   UNL     1       5.605   4.295  14.794  0.00  0.00    +0.000 HD
ENDBRANCH  28  32
BRANCH  29  34
ATOM     34  O   UNL     1       3.707   2.665  16.425  0.00  0.00    +0.000 OA
ATOM     35  H   UNL     1       2.770   2.764  16.667  0.00  0.00    +0.000 HD
ENDBRANCH  29  34
BRANCH  26  36
ATOM     36  C   UNL     1       7.150   5.853  19.567  0.00  0.00    +0.000 C 
BRANCH  36  37
ATOM     37  O   UNL     1       8.185   5.308  20.393  0.00  0.00    +0.000 OA
ATOM     38  H   UNL     1       7.719   4.689  20.990  0.00  0.00    +0.000 HD
ENDBRANCH  36  37
ENDBRANCH  26  36
ENDBRANCH  23  24
ENDBRANCH   6  23
TORSDOF 13
ENDMDL
MODEL 7
REMARK VINA RESULT:      -7.2      5.041      9.007
REMARK  Name = 
REMARK  15 active torsions:
REMARK  status: ('A' for Active; 'I' for Inactive)
REMARK    1  A    between atoms: C_1  and  O_2
REMARK    2  A    between atoms: O_2  and  C_3
REMARK    3  A    between atoms: C_5  and  C_6
REMARK    4  A    between atoms: C_6  and  C_8
REMARK    5  A    between atoms: C_9  and  C_10
REMARK    6  A    between atoms: C_13  and  O_14
REMARK    7  A    between atoms: C_18  and  O_19
REMARK    8  A    between atoms: O_19  and  C_20
REMARK    9  A    between atoms: C_21  and  O_22
REMARK   10  A    between atoms: O_22  and  C_23
REMARK   11  A    between atoms: C_25  and  C_26
REMARK   12  A    between atoms: C_26  and  O_27
REMARK   13  A    between atoms: C_28  and  O_29
REMARK   14  A    between atoms: C_30  and  O_31
REMARK   15  A    between atoms: C_32  and  O_33
REMARK                            x       y       z     vdW  Elec       q    Type
REMARK                         _______ _______ _______ _____ _____    ______ ____
ROOT
ATOM      1  C   UNL     1       1.510   9.494  18.737  0.00  0.00    +0.000 A 
ATOM      2  C   UNL     1       2.138   8.259  18.917  0.00  0.00    +0.000 A 
ATOM      3  C   UNL     1       1.857   7.456  20.027  0.00  0.00    +0.000 A 
ATOM      4  C   UNL     1       1.054   7.966  21.046  0.00  0.00    +0.000 A 
ATOM      5  C   UNL     1       0.427   9.210  20.886  0.00  0.00    +0.000 A 
ATOM      6  C   UNL     1       0.558   9.931  19.680  0.00  0.00    +0.000 A 
ENDROOT
BRANCH   1   8
ATOM      7  C   UNL     1       2.510  11.431  17.759  0.00  0.00    +0.000 C 
ATOM      8  O   UNL     1       1.726  10.251  17.616  0.00  0.00    +0.000 OA
ENDBRANCH   1   8
BRANCH   3   9
ATOM      9  C   UNL     1       2.375   6.056  20.092  0.00  0.00    +0.000 C 
ATOM     10  O   UNL     1       2.190   5.360  21.083  0.00  0.00    +0.000 OA
BRANCH   9  11
ATOM     11  C   UNL     1       3.060   5.548  18.868  0.00  0.00    +0.000 C 
ATOM     12  C   UNL     1       4.388   5.601  18.688  0.00  0.00    +0.000 C 
BRANCH  12  13
ATOM     13  C   UNL     1       5.048   5.107  17.461  0.00  0.00    +0.000 A 
ATOM     14  C   UNL     1       4.374   4.191  16.639  0.00  0.00    +0.000 A 
ATOM     15  C   UNL     1       4.970   3.697  15.472  0.00  0.00    +0.000 A 
ATOM     16  C   UNL     1       6.244   4.125  15.118  0.00  0.00    +0.000 A 
ATOM     17  C   UNL     1       6.924   5.043  15.903  0.00  0.00    +0.000 A 
ATOM     18  C   UNL     1       6.324   5.539  17.063  0.00  0.00    +0.000 A 
BRANCH  16  19
ATOM     19  O   UNL     1       6.867   3.669  13.995  0.00  0.00    +0.000 OA
ATOM     20  H   UNL     1       6.195   3.450  13.329  0.00  0.00    +0.000 HD
ENDBRANCH  16  19
ENDBRANCH  12  13
ENDBRANCH   9  11
ENDBRANCH   3   9
BRANCH   5  21
ATOM     21  O   UNL     1      -0.410   9.570  21.914  0.00  0.00    +0.000 OA
ATOM     22  C   UNL     1       0.134   9.411  23.225  0.00  0.00    +0.000 C 
ENDBRANCH   5  21
BRANCH   6  23
ATOM     23  O   UNL     1      -0.257  11.025  19.520  0.00  0.00    +0.000 OA
BRANCH  23  24
ATOM     24  C   UNL     1      -1.661  10.830  19.215  0.00  0.00    +0.000 C 
ATOM     25  O   UNL     1      -1.890  10.506  17.847  0.00  0.00    +0.000 OA
ATOM     26  C   UNL     1      -3.250  10.462  17.424  0.00  0.00    +0.000 C 
ATOM     27  C   UNL     1      -4.000  11.759  17.733  0.00  0.00    +0.000 C 
ATOM     28  C   UNL     1      -3.882  12.109  19.218  0.00  0.00    +0.000 C 
ATOM     29  C   UNL     1      -2.454  12.040  19.769  0.00  0.00    +0.000 C 
BRANCH  27  30
ATOM     30  O   UNL     1      -5.381  11.587  17.374  0.00  0.00    +0.000 OA
ATOM     31  H   UNL     1      -5.940  11.845  18.130  0.00  0.00    +0.000 HD
ENDBRANCH  27  30
BRANCH  28  32
ATOM     32  O   UNL     1      -4.437  13.419  19.438  0.00  0.00    +0.000 OA
ATOM     33  H   UNL     1      -4.812  13.735  18.593  0.00  0.00    +0.000 HD
ENDBRANCH  28  32
BRANCH  29  34
ATOM     34  O   UNL     1      -2.478  11.996  21.215  0.00  0.00    +0.000 OA
ATOM     35  H   UNL     1      -2.479  12.903  21.567  0.00  0.00    +0.000 HD
ENDBRANCH  29  34
BRANCH  26  36
ATOM     36  C   UNL     1      -3.202  10.209  15.907  0.00  0.00    +0.000 C 
BRANCH  36  37
ATOM     37  O   UNL     1      -3.327  11.445  15.194  0.00  0.00    +0.000 OA
ATOM     38  H   UNL     1      -4.060  11.290  14.565  0.00  0.00    +0.000 HD
ENDBRANCH  36  37
ENDBRANCH  26  36
ENDBRANCH  23  24
ENDBRANCH   6  23
TORSDOF 13
ENDMDL
MODEL 8
REMARK VINA RESULT:      -7.2      7.039     10.940
REMARK  Name = 
REMARK  15 active torsions:
REMARK  status: ('A' for Active; 'I' for Inactive)
REMARK    1  A    between atoms: C_1  and  O_2
REMARK    2  A    between atoms: O_2  and  C_3
REMARK    3  A    between atoms: C_5  and  C_6
REMARK    4  A    between atoms: C_6  and  C_8
REMARK    5  A    between atoms: C_9  and  C_10
REMARK    6  A    between atoms: C_13  and  O_14
REMARK    7  A    between atoms: C_18  and  O_19
REMARK    8  A    between atoms: O_19  and  C_20
REMARK    9  A    between atoms: C_21  and  O_22
REMARK   10  A    between atoms: O_22  and  C_23
REMARK   11  A    between atoms: C_25  and  C_26
REMARK   12  A    between atoms: C_26  and  O_27
REMARK   13  A    between atoms: C_28  and  O_29
REMARK   14  A    between atoms: C_30  and  O_31
REMARK   15  A    between atoms: C_32  and  O_33
REMARK                            x       y       z     vdW  Elec       q    Type
REMARK                         _______ _______ _______ _____ _____    ______ ____
ROOT
ATOM      1  C   UNL     1      -0.672  11.056  20.354  0.00  0.00    +0.000 A 
ATOM      2  C   UNL     1       0.376  10.271  19.865  0.00  0.00    +0.000 A 
ATOM      3  C   UNL     1       0.495   9.985  18.501  0.00  0.00    +0.000 A 
ATOM      4  C   UNL     1      -0.534  10.360  17.638  0.00  0.00    +0.000 A 
ATOM      5  C   UNL     1      -1.599  11.138  18.117  0.00  0.00    +0.000 A 
ATOM      6  C   UNL     1      -1.616  11.589  19.453  0.00  0.00    +0.000 A 
ENDROOT
BRANCH   1   8
ATOM      7  C   UNL     1      -0.387  10.414  22.638  0.00  0.00    +0.000 C 
ATOM      8  O   UNL     1      -0.752  11.400  21.677  0.00  0.00    +0.000 OA
ENDBRANCH   1   8
BRANCH   3   9
ATOM      9  C   UNL     1       1.729   9.327  17.977  0.00  0.00    +0.000 C 
ATOM     10  O   UNL     1       2.697   9.991  17.625  0.00  0.00    +0.000 OA
BRANCH   9  11
ATOM     11  C   UNL     1       1.733   7.835  17.973  0.00  0.00    +0.000 C 
ATOM     12  C   UNL     1       2.628   7.096  18.644  0.00  0.00    +0.000 C 
BRANCH  12  13
ATOM     13  C   UNL     1       2.626   5.618  18.615  0.00  0.00    +0.000 A 
ATOM     14  C   UNL     1       3.673   4.917  19.231  0.00  0.00    +0.000 A 
ATOM     15  C   UNL     1       3.707   3.517  19.219  0.00  0.00    +0.000 A 
ATOM     16  C   UNL     1       2.686   2.811  18.593  0.00  0.00    +0.000 A 
ATOM     17  C   UNL     1       1.631   3.480  17.992  0.00  0.00    +0.000 A 
ATOM     18  C   UNL     1       1.596   4.877  18.012  0.00  0.00    +0.000 A 
BRANCH  16  19
ATOM     19  O   UNL     1       2.677   1.449  18.551  0.00  0.00    +0.000 OA
ATOM     20  H   UNL     1       2.892   1.161  17.649  0.00  0.00    +0.000 HD
ENDBRANCH  16  19
ENDBRANCH  12  13
ENDBRANCH   9  11
ENDBRANCH   3   9
BRANCH   5  21
ATOM     21  O   UNL     1      -2.505  11.523  17.160  0.00  0.00    +0.000 OA
ATOM     22  C   UNL     1      -2.954  10.481  16.292  0.00  0.00    +0.000 C 
ENDBRANCH   5  21
BRANCH   6  23
ATOM     23  O   UNL     1      -2.571  12.520  19.782  0.00  0.00    +0.000 OA
BRANCH  23  24
ATOM     24  C   UNL     1      -3.841  12.078  20.324  0.00  0.00    +0.000 C 
ATOM     25  O   UNL     1      -4.871  12.018  19.341  0.00  0.00    +0.000 OA
ATOM     26  C   UNL     1      -6.188  11.756  19.817  0.00  0.00    +0.000 C 
ATOM     27  C   UNL     1      -6.626  12.743  20.899  0.00  0.00    +0.000 C 
ATOM     28  C   UNL     1      -5.610  12.776  22.043  0.00  0.00    +0.000 C 
ATOM     29  C   UNL     1      -4.154  12.920  21.586  0.00  0.00    +0.000 C 
BRANCH  27  30
ATOM     30  O   UNL     1      -7.914  12.341  21.395  0.00  0.00    +0.000 OA
ATOM     31  H   UNL     1      -8.583  12.984  21.100  0.00  0.00    +0.000 HD
ENDBRANCH  27  30
BRANCH  28  32
ATOM     32  O   UNL     1      -5.953  13.842  22.947  0.00  0.00    +0.000 OA
ATOM     33  H   UNL     1      -6.581  14.436  22.492  0.00  0.00    +0.000 HD
ENDBRANCH  28  32
BRANCH  29  34
ATOM     34  O   UNL     1      -3.255  12.554  22.659  0.00  0.00    +0.000 OA
ATOM     35  H   UNL     1      -2.740  11.772  22.398  0.00  0.00    +0.000 HD
ENDBRANCH  29  34
BRANCH  26  36
ATOM     36  C   UNL     1      -7.101  11.860  18.582  0.00  0.00    +0.000 C 
BRANCH  36  37
ATOM     37  O   UNL     1      -7.889  13.054  18.649  0.00  0.00    +0.000 OA
ATOM     38  H   UNL     1      -7.369  13.657  19.218  0.00  0.00    +0.000 HD
ENDBRANCH  36  37
ENDBRANCH  26  36
ENDBRANCH  23  24
ENDBRANCH   6  23
TORSDOF 13
ENDMDL
MODEL 9
REMARK VINA RESULT:      -7.2      4.752      7.485
REMARK  Name = 
REMARK  15 active torsions:
REMARK  status: ('A' for Active; 'I' for Inactive)
REMARK    1  A    between atoms: C_1  and  O_2
REMARK    2  A    between atoms: O_2  and  C_3
REMARK    3  A    between atoms: C_5  and  C_6
REMARK    4  A    between atoms: C_6  and  C_8
REMARK    5  A    between atoms: C_9  and  C_10
REMARK    6  A    between atoms: C_13  and  O_14
REMARK    7  A    between atoms: C_18  and  O_19
REMARK    8  A    between atoms: O_19  and  C_20
REMARK    9  A    between atoms: C_21  and  O_22
REMARK   10  A    between atoms: O_22  and  C_23
REMARK   11  A    between atoms: C_25  and  C_26
REMARK   12  A    between atoms: C_26  and  O_27
REMARK   13  A    between atoms: C_28  and  O_29
REMARK   14  A    between atoms: C_30  and  O_31
REMARK   15  A    between atoms: C_32  and  O_33
REMARK                            x       y       z     vdW  Elec       q    Type
REMARK                         _______ _______ _______ _____ _____    ______ ____
ROOT
ATOM      1  C   UNL     1       1.943   6.148  20.183  0.00  0.00    +0.000 A 
ATOM      2  C   UNL     1       1.209   6.887  21.115  0.00  0.00    +0.000 A 
ATOM      3  C   UNL     1       0.881   8.227  20.883  0.00  0.00    +0.000 A 
ATOM      4  C   UNL     1       1.426   8.876  19.777  0.00  0.00    +0.000 A 
ATOM      5  C   UNL     1       2.175   8.150  18.838  0.00  0.00    +0.000 A 
ATOM      6  C   UNL     1       2.341   6.756  18.975  0.00  0.00    +0.000 A 
ENDROOT
BRANCH   1   8
ATOM      7  C   UNL     1       1.133   3.900  20.165  0.00  0.00    +0.000 C 
ATOM      8  O   UNL     1       2.204   4.816  20.370  0.00  0.00    +0.000 OA
ENDBRANCH   1   8
BRANCH   3   9
ATOM      9  C   UNL     1      -0.076   8.932  21.787  0.00  0.00    +0.000 C 
ATOM     10  O   UNL     1      -0.813   8.305  22.539  0.00  0.00    +0.000 OA
BRANCH   9  11
ATOM     11  C   UNL     1      -0.030  10.423  21.765  0.00  0.00    +0.000 C 
ATOM     12  C   UNL     1      -0.735  11.197  22.603  0.00  0.00    +0.000 C 
BRANCH  12  13
ATOM     13  C   UNL     1      -0.689  12.674  22.555  0.00  0.00    +0.000 A 
ATOM     14  C   UNL     1       0.176  13.306  21.649  0.00  0.00    +0.000 A 
ATOM     15  C   UNL     1       0.249  14.702  21.579  0.00  0.00    +0.000 A 
ATOM     16  C   UNL     1      -0.549  15.475  22.415  0.00  0.00    +0.000 A 
ATOM     17  C   UNL     1      -1.425  14.875  23.307  0.00  0.00    +0.000 A 
ATOM     18  C   UNL     1      -1.501  13.481  23.369  0.00  0.00    +0.000 A 
BRANCH  16  19
ATOM     19  O   UNL     1      -0.509  16.836  22.387  0.00  0.00    +0.000 OA
ATOM     20  H   UNL     1       0.351  17.119  22.036  0.00  0.00    +0.000 HD
ENDBRANCH  16  19
ENDBRANCH  12  13
ENDBRANCH   9  11
ENDBRANCH   3   9
BRANCH   5  21
ATOM     21  O   UNL     1       2.585   8.873  17.745  0.00  0.00    +0.000 OA
ATOM     22  C   UNL     1       2.156  10.235  17.721  0.00  0.00    +0.000 C 
ENDBRANCH   5  21
BRANCH   6  23
ATOM     23  O   UNL     1       2.894   6.090  17.909  0.00  0.00    +0.000 OA
BRANCH  23  24
ATOM     24  C   UNL     1       4.170   5.421  18.070  0.00  0.00    +0.000 C 
ATOM     25  O   UNL     1       5.268   6.328  18.115  0.00  0.00    +0.000 OA
ATOM     26  C   UNL     1       6.571   5.750  18.104  0.00  0.00    +0.000 C 
ATOM     27  C   UNL     1       6.783   4.812  16.915  0.00  0.00    +0.000 C 
ATOM     28  C   UNL     1       5.690   3.742  16.870  0.00  0.00    +0.000 C 
ATOM     29  C   UNL     1       4.267   4.290  17.017  0.00  0.00    +0.000 C 
BRANCH  27  30
ATOM     30  O   UNL     1       8.074   4.195  17.042  0.00  0.00    +0.000 OA
ATOM     31  H   UNL     1       8.743   4.767  16.624  0.00  0.00    +0.000 HD
ENDBRANCH  27  30
BRANCH  28  32
ATOM     32  O   UNL     1       5.812   2.996  15.645  0.00  0.00    +0.000 OA
ATOM     33  H   UNL     1       6.163   2.111  15.863  0.00  0.00    +0.000 HD
ENDBRANCH  28  32
BRANCH  29  34
ATOM     34  O   UNL     1       3.352   3.220  17.354  0.00  0.00    +0.000 OA
ATOM     35  H   UNL     1       3.804   2.576  17.925  0.00  0.00    +0.000 HD
ENDBRANCH  29  34
BRANCH  26  36
ATOM     36  C   UNL     1       7.548   6.938  18.043  0.00  0.00    +0.000 C 
BRANCH  36  37
ATOM     37  O   UNL     1       7.852   7.259  16.681  0.00  0.00    +0.000 OA
ATOM     38  H   UNL     1       8.717   7.713  16.725  0.00  0.00    +0.000 HD
ENDBRANCH  36  37
ENDBRANCH  26  36
ENDBRANCH  23  24
ENDBRANCH   6  23
TORSDOF 13
ENDMDL
