MODEL 1
REMARK VINA RESULT:      -8.0      0.000      0.000
REMARK  Name = 
REMARK  7 active torsions:
REMARK  status: ('A' for Active; 'I' for Inactive)
REMARK    1  A    between atoms: C_1  and  O_2
REMARK    2  A    between atoms: O_2  and  C_3
REMARK    3  A    between atoms: C_5  and  O_6
REMARK    4  A    between atoms: O_6  and  C_7
REMARK    5  A    between atoms: C_8  and  C_9
REMARK    6  A    between atoms: C_14  and  N_15
REMARK    7  A    between atoms: N_19  and  C_20
REMARK                            x       y       z     vdW  Elec       q    Type
REMARK                         _______ _______ _______ _____ _____    ______ ____
ROOT
ATOM      1  C   UNL     1       2.611   7.058  18.667  0.00  0.00    +0.000 A 
ATOM      2  C   UNL     1       2.249   7.048  19.997  0.00  0.00    +0.000 A 
ATOM      3  N   UNL     1       1.599   8.238  20.220  0.00  0.00    +0.000 N 
ATOM      4  C   UNL     1       1.108   8.780  21.400  0.00  0.00    +0.000 A 
ATOM      5  C   UNL     1       0.576  10.014  21.381  0.00  0.00    +0.000 A 
ATOM      6  C   UNL     1       0.513  10.787  20.126  0.00  0.00    +0.000 A 
ATOM      7  C   UNL     1       0.947  10.190  18.989  0.00  0.00    +0.000 A 
ATOM      8  C   UNL     1       1.531   8.895  19.004  0.00  0.00    +0.000 A 
ATOM      9  N   UNL     1       2.108   8.193  18.054  0.00  0.00    +0.000 NA
ENDROOT
BRANCH   1  13
ATOM     10  C   UNL     1       5.298   4.399  16.611  0.00  0.00    +0.000 A 
ATOM     11  C   UNL     1       3.966   4.008  16.825  0.00  0.00    +0.000 A 
ATOM     12  C   UNL     1       3.037   4.830  17.487  0.00  0.00    +0.000 A 
ATOM     13  C   UNL     1       3.442   6.104  17.927  0.00  0.00    +0.000 A 
ATOM     14  C   UNL     1       4.780   6.490  17.693  0.00  0.00    +0.000 A 
ATOM     15  C   UNL     1       5.701   5.660  17.045  0.00  0.00    +0.000 A 
ATOM     16 CL   UNL     1       7.271   6.328  16.783  0.00  0.00    +0.000 Cl
BRANCH  10  18
ATOM     17  C   UNL     1       6.297   3.767  14.539  0.00  0.00    +0.000 C 
ATOM     18  O   UNL     1       6.009   3.472  15.898  0.00  0.00    +0.000 OA
ENDBRANCH  10  18
BRANCH  12  19
ATOM     19  O   UNL     1       1.734   4.443  17.681  0.00  0.00    +0.000 OA
ATOM     20  C   UNL     1       1.507   3.401  18.628  0.00  0.00    +0.000 C 
ENDBRANCH  12  19
ENDBRANCH   1  13
BRANCH   6  21
ATOM     21  N   UNL     1       0.019  12.092  20.193  0.00  0.00    +0.000 N 
ATOM     22  C   UNL     1       0.156  12.964  21.374  0.00  0.00    +0.000 C 
ATOM     23  C   UNL     1       1.314  13.944  21.214  0.00  0.00    +0.000 C 
ATOM     24  C   UNL     1       1.306  14.827  19.963  0.00  0.00    +0.000 C 
ATOM     25  N   UNL     1      -0.020  14.944  19.348  0.00  0.00    +0.000 N 
ATOM     26  C   UNL     1      -0.412  13.840  18.447  0.00  0.00    +0.000 C 
ATOM     27  C   UNL     1      -0.957  12.621  19.204  0.00  0.00    +0.000 C 
BRANCH  25  28
ATOM     28  C   UNL     1      -0.758  16.108  19.369  0.00  0.00    +0.000 A 
ATOM     29  C   UNL     1      -1.654  16.461  20.368  0.00  0.00    +0.000 A 
ATOM     30  N   UNL     1      -2.384  17.602  20.409  0.00  0.00    +0.000 NA
ATOM     31  C   UNL     1      -2.204  18.439  19.381  0.00  0.00    +0.000 A 
ATOM     32  N   UNL     1      -1.379  18.239  18.346  0.00  0.00    +0.000 NA
ATOM     33  C   UNL     1      -0.684  17.078  18.376  0.00  0.00    +0.000 A 
ENDBRANCH  25  28
ENDBRANCH   6  21
TORSDOF 5
ENDMDL
MODEL 2
REMARK VINA RESULT:      -7.8      3.112      4.280
REMARK  Name = 
REMARK  7 active torsions:
REMARK  status: ('A' for Active; 'I' for Inactive)
REMARK    1  A    between atoms: C_1  and  O_2
REMARK    2  A    between atoms: O_2  and  C_3
REMARK    3  A    between atoms: C_5  and  O_6
REMARK    4  A    between atoms: O_6  and  C_7
REMARK    5  A    between atoms: C_8  and  C_9
REMARK    6  A    between atoms: C_14  and  N_15
REMARK    7  A    between atoms: N_19  and  C_20
REMARK                            x       y       z     vdW  Elec       q    Type
REMARK                         _______ _______ _______ _____ _____    ______ ____
ROOT
ATOM      1  C   UNL     1       2.114   7.519  19.526  0.00  0.00    +0.000 A 
ATOM      2  C   UNL     1       2.063   8.395  18.464  0.00  0.00    +0.000 A 
ATOM      3  N   UNL     1       1.407   9.511  18.925  0.00  0.00    +0.000 N 
ATOM      4  C   UNL     1       1.006  10.655  18.249  0.00  0.00    +0.000 A 
ATOM      5  C   UNL     1       0.297  11.588  18.907  0.00  0.00    +0.000 A 
ATOM      6  C   UNL     1      -0.055  11.404  20.327  0.00  0.00    +0.000 A 
ATOM      7  C   UNL     1       0.414  10.300  20.960  0.00  0.00    +0.000 A 
ATOM      8  C   UNL     1       1.145   9.299  20.267  0.00  0.00    +0.000 A 
ATOM      9  N   UNL     1       1.585   8.122  20.655  0.00  0.00    +0.000 NA
ENDROOT
BRANCH   1  13
ATOM     10  C   UNL     1       3.203   3.361  19.733  0.00  0.00    +0.000 A 
ATOM     11  C   UNL     1       3.919   4.223  18.887  0.00  0.00    +0.000 A 
ATOM     12  C   UNL     1       3.617   5.592  18.775  0.00  0.00    +0.000 A 
ATOM     13  C   UNL     1       2.579   6.130  19.558  0.00  0.00    +0.000 A 
ATOM     14  C   UNL     1       1.876   5.255  20.416  0.00  0.00    +0.000 A 
ATOM     15  C   UNL     1       2.176   3.892  20.510  0.00  0.00    +0.000 A 
ATOM     16 CL   UNL     1       1.260   2.992  21.664  0.00  0.00    +0.000 Cl
BRANCH  10  18
ATOM     17  C   UNL     1       3.667   1.368  18.505  0.00  0.00    +0.000 C 
ATOM     18  O   UNL     1       3.702   2.087  19.730  0.00  0.00    +0.000 OA
ENDBRANCH  10  18
BRANCH  12  19
ATOM     19  O   UNL     1       4.330   6.428  17.952  0.00  0.00    +0.000 OA
ATOM     20  C   UNL     1       4.847   5.862  16.749  0.00  0.00    +0.000 C 
ENDBRANCH  12  19
ENDBRANCH   1  13
BRANCH   6  21
ATOM     21  N   UNL     1      -0.859  12.375  20.927  0.00  0.00    +0.000 N 
ATOM     22  C   UNL     1      -1.772  13.262  20.182  0.00  0.00    +0.000 C 
ATOM     23  C   UNL     1      -3.210  12.755  20.236  0.00  0.00    +0.000 C 
ATOM     24  C   UNL     1      -3.806  12.508  21.624  0.00  0.00    +0.000 C 
ATOM     25  N   UNL     1      -3.100  13.223  22.691  0.00  0.00    +0.000 N 
ATOM     26  C   UNL     1      -1.881  12.567  23.210  0.00  0.00    +0.000 C 
ATOM     27  C   UNL     1      -0.649  12.821  22.330  0.00  0.00    +0.000 C 
BRANCH  25  28
ATOM     28  C   UNL     1      -3.647  14.290  23.372  0.00  0.00    +0.000 A 
ATOM     29  C   UNL     1      -4.909  14.818  23.136  0.00  0.00    +0.000 A 
ATOM     30  N   UNL     1      -5.466  15.860  23.798  0.00  0.00    +0.000 NA
ATOM     31  C   UNL     1      -4.708  16.408  24.754  0.00  0.00    +0.000 A 
ATOM     32  N   UNL     1      -3.476  16.013  25.097  0.00  0.00    +0.000 NA
ATOM     33  C   UNL     1      -2.987  14.966  24.392  0.00  0.00    +0.000 A 
ENDBRANCH  25  28
ENDBRANCH   6  21
TORSDOF 5
ENDMDL
MODEL 3
REMARK VINA RESULT:      -7.7      1.525      2.309
REMARK  Name = 
REMARK  7 active torsions:
REMARK  status: ('A' for Active; 'I' for Inactive)
REMARK    1  A    between atoms: C_1  and  O_2
REMARK    2  A    between atoms: O_2  and  C_3
REMARK    3  A    between atoms: C_5  and  O_6
REMARK    4  A    between atoms: O_6  and  C_7
REMARK    5  A    between atoms: C_8  and  C_9
REMARK    6  A    between atoms: C_14  and  N_15
REMARK    7  A    between atoms: N_19  and  C_20
REMARK                            x       y       z     vdW  Elec       q    Type
REMARK                         _______ _______ _______ _____ _____    ______ ____
ROOT
ATOM      1  C   UNL     1       2.699   6.860  18.749  0.00  0.00    +0.000 A 
ATOM      2  C   UNL     1       2.380   6.767  20.087  0.00  0.00    +0.000 A 
ATOM      3  N   UNL     1       1.643   7.890  20.379  0.00  0.00    +0.000 N 
ATOM      4  C   UNL     1       1.147   8.341  21.594  0.00  0.00    +0.000 A 
ATOM      5  C   UNL     1       0.517   9.527  21.643  0.00  0.00    +0.000 A 
ATOM      6  C   UNL     1       0.353  10.343  20.425  0.00  0.00    +0.000 A 
ATOM      7  C   UNL     1       0.799   9.830  19.251  0.00  0.00    +0.000 A 
ATOM      8  C   UNL     1       1.485   8.588  19.195  0.00  0.00    +0.000 A 
ATOM      9  N   UNL     1       2.087   7.975  18.200  0.00  0.00    +0.000 NA
ENDROOT
BRANCH   1  13
ATOM     10  C   UNL     1       5.527   4.509  16.516  0.00  0.00    +0.000 A 
ATOM     11  C   UNL     1       4.225   4.024  16.710  0.00  0.00    +0.000 A 
ATOM     12  C   UNL     1       3.252   4.743  17.428  0.00  0.00    +0.000 A 
ATOM     13  C   UNL     1       3.581   6.009  17.946  0.00  0.00    +0.000 A 
ATOM     14  C   UNL     1       4.890   6.492  17.731  0.00  0.00    +0.000 A 
ATOM     15  C   UNL     1       5.855   5.763  17.027  0.00  0.00    +0.000 A 
ATOM     16 CL   UNL     1       7.378   6.543  16.801  0.00  0.00    +0.000 Cl
BRANCH  10  18
ATOM     17  C   UNL     1       6.332   3.930  14.345  0.00  0.00    +0.000 C 
ATOM     18  O   UNL     1       6.289   3.676  15.742  0.00  0.00    +0.000 OA
ENDBRANCH  10  18
BRANCH  12  19
ATOM     19  O   UNL     1       1.977   4.263  17.603  0.00  0.00    +0.000 OA
ATOM     20  C   UNL     1       1.839   3.065  18.363  0.00  0.00    +0.000 C 
ENDBRANCH  12  19
ENDBRANCH   1  13
BRANCH   6  21
ATOM     21  N   UNL     1      -0.242  11.599  20.562  0.00  0.00    +0.000 N 
ATOM     22  C   UNL     1      -0.588  12.474  19.426  0.00  0.00    +0.000 C 
ATOM     23  C   UNL     1      -2.066  12.367  19.069  0.00  0.00    +0.000 C 
ATOM     24  C   UNL     1      -3.072  12.622  20.195  0.00  0.00    +0.000 C 
ATOM     25  N   UNL     1      -2.504  13.378  21.314  0.00  0.00    +0.000 N 
ATOM     26  C   UNL     1      -1.747  12.589  22.308  0.00  0.00    +0.000 C 
ATOM     27  C   UNL     1      -0.303  12.308  21.867  0.00  0.00    +0.000 C 
BRANCH  25  28
ATOM     28  C   UNL     1      -2.858  14.681  21.599  0.00  0.00    +0.000 A 
ATOM     29  C   UNL     1      -2.152  15.802  21.188  0.00  0.00    +0.000 A 
ATOM     30  N   UNL     1      -2.487  17.088  21.452  0.00  0.00    +0.000 NA
ATOM     31  C   UNL     1      -3.598  17.257  22.177  0.00  0.00    +0.000 A 
ATOM     32  N   UNL     1      -4.383  16.279  22.644  0.00  0.00    +0.000 NA
ATOM     33  C   UNL     1      -3.984  15.022  22.339  0.00  0.00    +0.000 A 
ENDBRANCH  25  28
ENDBRANCH   6  21
TORSDOF 5
ENDMDL
MODEL 4
REMARK VINA RESULT:      -7.7      1.370      1.892
REMARK  Name = 
REMARK  7 active torsions:
REMARK  status: ('A' for Active; 'I' for Inactive)
REMARK    1  A    between atoms: C_1  and  O_2
REMARK    2  A    between atoms: O_2  and  C_3
REMARK    3  A    between atoms: C_5  and  O_6
REMARK    4  A    between atoms: O_6  and  C_7
REMARK    5  A    between atoms: C_8  and  C_9
REMARK    6  A    between atoms: C_14  and  N_15
REMARK    7  A    between atoms: N_19  and  C_20
REMARK                            x       y       z     vdW  Elec       q    Type
REMARK                         _______ _______ _______ _____ _____    ______ ____
ROOT
ATOM      1  C   UNL     1       2.636   6.971  18.811  0.00  0.00    +0.000 A 
ATOM      2  C   UNL     1       2.275   6.879  20.138  0.00  0.00    +0.000 A 
ATOM      3  N   UNL     1       1.599   8.041  20.428  0.00  0.00    +0.000 N 
ATOM      4  C   UNL     1       1.097   8.504  21.636  0.00  0.00    +0.000 A 
ATOM      5  C   UNL     1       0.539   9.725  21.686  0.00  0.00    +0.000 A 
ATOM      6  C   UNL     1       0.459  10.567  20.477  0.00  0.00    +0.000 A 
ATOM      7  C   UNL     1       0.906  10.045  19.308  0.00  0.00    +0.000 A 
ATOM      8  C   UNL     1       1.517   8.764  19.251  0.00  0.00    +0.000 A 
ATOM      9  N   UNL     1       2.109   8.129  18.263  0.00  0.00    +0.000 NA
ENDROOT
BRANCH   1  13
ATOM     10  C   UNL     1       5.378   4.491  16.611  0.00  0.00    +0.000 A 
ATOM     11  C   UNL     1       4.056   4.061  16.800  0.00  0.00    +0.000 A 
ATOM     12  C   UNL     1       3.109   4.824  17.507  0.00  0.00    +0.000 A 
ATOM     13  C   UNL     1       3.487   6.079  18.019  0.00  0.00    +0.000 A 
ATOM     14  C   UNL     1       4.816   6.507  17.809  0.00  0.00    +0.000 A 
ATOM     15  C   UNL     1       5.754   5.734  17.115  0.00  0.00    +0.000 A 
ATOM     16 CL   UNL     1       7.310   6.449  16.893  0.00  0.00    +0.000 Cl
BRANCH  10  18
ATOM     17  C   UNL     1       6.218   3.897  14.457  0.00  0.00    +0.000 C 
ATOM     18  O   UNL     1       6.109   3.622  15.846  0.00  0.00    +0.000 OA
ENDBRANCH  10  18
BRANCH  12  19
ATOM     19  O   UNL     1       1.815   4.398  17.678  0.00  0.00    +0.000 OA
ATOM     20  C   UNL     1       1.615   3.268  18.523  0.00  0.00    +0.000 C 
ENDBRANCH  12  19
ENDBRANCH   1  13
BRANCH   6  21
ATOM     21  N   UNL     1      -0.062  11.855  20.617  0.00  0.00    +0.000 N 
ATOM     22  C   UNL     1      -1.501  12.150  20.749  0.00  0.00    +0.000 C 
ATOM     23  C   UNL     1      -1.894  12.374  22.205  0.00  0.00    +0.000 C 
ATOM     24  C   UNL     1      -1.112  13.439  22.979  0.00  0.00    +0.000 C 
ATOM     25  N   UNL     1      -0.434  14.402  22.108  0.00  0.00    +0.000 N 
ATOM     26  C   UNL     1       0.877  13.976  21.571  0.00  0.00    +0.000 C 
ATOM     27  C   UNL     1       0.747  13.071  20.339  0.00  0.00    +0.000 C 
BRANCH  25  28
ATOM     28  C   UNL     1      -0.825  15.720  21.994  0.00  0.00    +0.000 A 
ATOM     29  C   UNL     1      -0.044  16.736  21.463  0.00  0.00    +0.000 A 
ATOM     30  N   UNL     1      -0.413  18.034  21.338  0.00  0.00    +0.000 NA
ATOM     31  C   UNL     1      -1.641  18.329  21.776  0.00  0.00    +0.000 A 
ATOM     32  N   UNL     1      -2.509  17.462  22.311  0.00  0.00    +0.000 NA
ATOM     33  C   UNL     1      -2.070  16.185  22.403  0.00  0.00    +0.000 A 
ENDBRANCH  25  28
ENDBRANCH   6  21
TORSDOF 5
ENDMDL
MODEL 5
REMARK VINA RESULT:      -7.6      2.985      3.958
REMARK  Name = 
REMARK  7 active torsions:
REMARK  status: ('A' for Active; 'I' for Inactive)
REMARK    1  A    between atoms: C_1  and  O_2
REMARK    2  A    between atoms: O_2  and  C_3
REMARK    3  A    between atoms: C_5  and  O_6
REMARK    4  A    between atoms: O_6  and  C_7
REMARK    5  A    between atoms: C_8  and  C_9
REMARK    6  A    between atoms: C_14  and  N_15
REMARK    7  A    between atoms: N_19  and  C_20
REMARK                            x       y       z     vdW  Elec       q    Type
REMARK                         _______ _______ _______ _____ _____    ______ ____
ROOT
ATOM      1  C   UNL     1       1.949   7.687  19.696  0.00  0.00    +0.000 A 
ATOM      2  C   UNL     1       1.810   8.656  18.725  0.00  0.00    +0.000 A 
ATOM      3  N   UNL     1       1.050   9.651  19.291  0.00  0.00    +0.000 N 
ATOM      4  C   UNL     1       0.539  10.813  18.729  0.00  0.00    +0.000 A 
ATOM      5  C   UNL     1      -0.256  11.602  19.471  0.00  0.00    +0.000 A 
ATOM      6  C   UNL     1      -0.585  11.244  20.863  0.00  0.00    +0.000 A 
ATOM      7  C   UNL     1      -0.011  10.133  21.387  0.00  0.00    +0.000 A 
ATOM      8  C   UNL     1       0.813   9.282  20.603  0.00  0.00    +0.000 A 
ATOM      9  N   UNL     1       1.365   8.120  20.875  0.00  0.00    +0.000 NA
ENDROOT
BRANCH   1  13
ATOM     10  C   UNL     1       3.455   3.659  19.540  0.00  0.00    +0.000 A 
ATOM     11  C   UNL     1       3.953   4.619  18.645  0.00  0.00    +0.000 A 
ATOM     12  C   UNL     1       3.505   5.953  18.644  0.00  0.00    +0.000 A 
ATOM     13  C   UNL     1       2.546   6.353  19.593  0.00  0.00    +0.000 A 
ATOM     14  C   UNL     1       2.065   5.381  20.497  0.00  0.00    +0.000 A 
ATOM     15  C   UNL     1       2.507   4.053  20.481  0.00  0.00    +0.000 A 
ATOM     16 CL   UNL     1       1.861   3.025  21.707  0.00  0.00    +0.000 Cl
BRANCH  10  18
ATOM     17  C   UNL     1       3.541   1.542  18.442  0.00  0.00    +0.000 C 
ATOM     18  O   UNL     1       4.071   2.444  19.403  0.00  0.00    +0.000 OA
ENDBRANCH  10  18
BRANCH  12  19
ATOM     19  O   UNL     1       4.006   6.886  17.771  0.00  0.00    +0.000 OA
ATOM     20  C   UNL     1       4.897   6.413  16.763  0.00  0.00    +0.000 C 
ENDBRANCH  12  19
ENDBRANCH   1  13
BRANCH   6  21
ATOM     21  N   UNL     1      -1.479  12.068  21.550  0.00  0.00    +0.000 N 
ATOM     22  C   UNL     1      -1.299  12.489  22.952  0.00  0.00    +0.000 C 
ATOM     23  C   UNL     1      -0.714  13.894  23.043  0.00  0.00    +0.000 C 
ATOM     24  C   UNL     1      -1.460  15.005  22.300  0.00  0.00    +0.000 C 
ATOM     25  N   UNL     1      -2.855  14.666  22.006  0.00  0.00    +0.000 N 
ATOM     26  C   UNL     1      -3.079  13.847  20.796  0.00  0.00    +0.000 C 
ATOM     27  C   UNL     1      -2.848  12.350  21.042  0.00  0.00    +0.000 C 
BRANCH  25  28
ATOM     28  C   UNL     1      -3.925  15.273  22.631  0.00  0.00    +0.000 A 
ATOM     29  C   UNL     1      -5.181  15.441  22.066  0.00  0.00    +0.000 A 
ATOM     30  N   UNL     1      -6.245  16.028  22.665  0.00  0.00    +0.000 NA
ATOM     31  C   UNL     1      -6.032  16.478  23.907  0.00  0.00    +0.000 A 
ATOM     32  N   UNL     1      -4.881  16.390  24.582  0.00  0.00    +0.000 NA
ATOM     33  C   UNL     1      -3.864  15.791  23.919  0.00  0.00    +0.000 A 
ENDBRANCH  25  28
ENDBRANCH   6  21
TORSDOF 5
ENDMDL
MODEL 6
REMARK VINA RESULT:      -7.5      1.165      1.381
REMARK  Name = 
REMARK  7 active torsions:
REMARK  status: ('A' for Active; 'I' for Inactive)
REMARK    1  A    between atoms: C_1  and  O_2
REMARK    2  A    between atoms: O_2  and  C_3
REMARK    3  A    between atoms: C_5  and  O_6
REMARK    4  A    between atoms: O_6  and  C_7
REMARK    5  A    between atoms: C_8  and  C_9
REMARK    6  A    between atoms: C_14  and  N_15
REMARK    7  A    between atoms: N_19  and  C_20
REMARK                            x       y       z     vdW  Elec       q    Type
REMARK                         _______ _______ _______ _____ _____    ______ ____
ROOT
ATOM      1  C   UNL     1       2.639   6.921  18.819  0.00  0.00    +0.000 A 
ATOM      2  C   UNL     1       2.184   6.761  20.110  0.00  0.00    +0.000 A 
ATOM      3  N   UNL     1       1.603   7.957  20.458  0.00  0.00    +0.000 N 
ATOM      4  C   UNL     1       1.069   8.371  21.671  0.00  0.00    +0.000 A 
ATOM      5  C   UNL     1       0.625   9.634  21.791  0.00  0.00    +0.000 A 
ATOM      6  C   UNL     1       0.703  10.571  20.656  0.00  0.00    +0.000 A 
ATOM      7  C   UNL     1       1.174  10.101  19.474  0.00  0.00    +0.000 A 
ATOM      8  C   UNL     1       1.665   8.775  19.344  0.00  0.00    +0.000 A 
ATOM      9  N   UNL     1       2.258   8.165  18.342  0.00  0.00    +0.000 NA
ENDROOT
BRANCH   1  13
ATOM     10  C   UNL     1       5.277   4.390  16.551  0.00  0.00    +0.000 A 
ATOM     11  C   UNL     1       3.944   3.997  16.751  0.00  0.00    +0.000 A 
ATOM     12  C   UNL     1       3.030   4.779  17.480  0.00  0.00    +0.000 A 
ATOM     13  C   UNL     1       3.452   6.015  18.005  0.00  0.00    +0.000 A 
ATOM     14  C   UNL     1       4.791   6.405  17.783  0.00  0.00    +0.000 A 
ATOM     15  C   UNL     1       5.697   5.613  17.068  0.00  0.00    +0.000 A 
ATOM     16 CL   UNL     1       7.270   6.284  16.836  0.00  0.00    +0.000 Cl
BRANCH  10  18
ATOM     17  C   UNL     1       6.215   3.880  14.417  0.00  0.00    +0.000 C 
ATOM     18  O   UNL     1       5.971   3.509  15.766  0.00  0.00    +0.000 OA
ENDBRANCH  10  18
BRANCH  12  19
ATOM     19  O   UNL     1       1.725   4.390  17.662  0.00  0.00    +0.000 OA
ATOM     20  C   UNL     1       1.498   3.283  18.532  0.00  0.00    +0.000 C 
ENDBRANCH  12  19
ENDBRANCH   1  13
BRANCH   6  21
ATOM     21  N   UNL     1       0.296  11.889  20.874  0.00  0.00    +0.000 N 
ATOM     22  C   UNL     1       1.173  13.061  20.695  0.00  0.00    +0.000 C 
ATOM     23  C   UNL     1       0.932  13.739  19.350  0.00  0.00    +0.000 C 
ATOM     24  C   UNL     1      -0.505  14.161  19.035  0.00  0.00    +0.000 C 
ATOM     25  N   UNL     1      -1.345  14.285  20.229  0.00  0.00    +0.000 N 
ATOM     26  C   UNL     1      -1.935  13.027  20.736  0.00  0.00    +0.000 C 
ATOM     27  C   UNL     1      -0.958  12.221  21.602  0.00  0.00    +0.000 C 
BRANCH  25  28
ATOM     28  C   UNL     1      -1.797  15.496  20.710  0.00  0.00    +0.000 A 
ATOM     29  C   UNL     1      -3.131  15.864  20.804  0.00  0.00    +0.000 A 
ATOM     30  N   UNL     1      -3.595  17.045  21.278  0.00  0.00    +0.000 NA
ATOM     31  C   UNL     1      -2.658  17.912  21.679  0.00  0.00    +0.000 A 
ATOM     32  N   UNL     1      -1.337  17.704  21.650  0.00  0.00    +0.000 NA
ATOM     33  C   UNL     1      -0.951  16.501  21.165  0.00  0.00    +0.000 A 
ENDBRANCH  25  28
ENDBRANCH   6  21
TORSDOF 5
ENDMDL
MODEL 7
REMARK VINA RESULT:      -7.5      0.939      1.498
REMARK  Name = 
REMARK  7 active torsions:
REMARK  status: ('A' for Active; 'I' for Inactive)
REMARK    1  A    between atoms: C_1  and  O_2
REMARK    2  A    between atoms: O_2  and  C_3
REMARK    3  A    between atoms: C_5  and  O_6
REMARK    4  A    between atoms: O_6  and  C_7
REMARK    5  A    between atoms: C_8  and  C_9
REMARK    6  A    between atoms: C_14  and  N_15
REMARK    7  A    between atoms: N_19  and  C_20
REMARK                            x       y       z     vdW  Elec       q    Type
REMARK                         _______ _______ _______ _____ _____    ______ ____
ROOT
ATOM      1  C   UNL     1       2.583   7.431  18.596  0.00  0.00    +0.000 A 
ATOM      2  C   UNL     1       2.189   7.522  19.913  0.00  0.00    +0.000 A 
ATOM      3  N   UNL     1       1.390   8.638  19.993  0.00  0.00    +0.000 N 
ATOM      4  C   UNL     1       0.804   9.240  21.098  0.00  0.00    +0.000 A 
ATOM      5  C   UNL     1       0.124  10.387  20.933  0.00  0.00    +0.000 A 
ATOM      6  C   UNL     1      -0.000  11.004  19.599  0.00  0.00    +0.000 A 
ATOM      7  C   UNL     1       0.536  10.345  18.541  0.00  0.00    +0.000 A 
ATOM      8  C   UNL     1       1.274   9.144  18.710  0.00  0.00    +0.000 A 
ATOM      9  N   UNL     1       1.960   8.420  17.852  0.00  0.00    +0.000 NA
ENDROOT
BRANCH   1  13
ATOM     10  C   UNL     1       5.633   4.908  16.909  0.00  0.00    +0.000 A 
ATOM     11  C   UNL     1       4.327   4.414  17.050  0.00  0.00    +0.000 A 
ATOM     12  C   UNL     1       3.284   5.187  17.591  0.00  0.00    +0.000 A 
ATOM     13  C   UNL     1       3.545   6.514  17.979  0.00  0.00    +0.000 A 
ATOM     14  C   UNL     1       4.860   7.003  17.818  0.00  0.00    +0.000 A 
ATOM     15  C   UNL     1       5.894   6.222  17.291  0.00  0.00    +0.000 A 
ATOM     16 CL   UNL     1       7.418   7.011  17.101  0.00  0.00    +0.000 Cl
BRANCH  10  18
ATOM     17  C   UNL     1       6.341   3.821  14.906  0.00  0.00    +0.000 C 
ATOM     18  O   UNL     1       6.473   4.009  16.308  0.00  0.00    +0.000 OA
ENDBRANCH  10  18
BRANCH  12  19
ATOM     19  O   UNL     1       2.007   4.697  17.716  0.00  0.00    +0.000 OA
ATOM     20  C   UNL     1       1.785   3.729  18.738  0.00  0.00    +0.000 C 
ENDBRANCH  12  19
ENDBRANCH   1  13
BRANCH   6  21
ATOM     21  N   UNL     1      -0.653  12.235  19.512  0.00  0.00    +0.000 N 
ATOM     22  C   UNL     1      -2.093  12.422  19.767  0.00  0.00    +0.000 C 
ATOM     23  C   UNL     1      -2.347  12.953  21.174  0.00  0.00    +0.000 C 
ATOM     24  C   UNL     1      -1.616  14.239  21.572  0.00  0.00    +0.000 C 
ATOM     25  N   UNL     1      -1.159  15.022  20.421  0.00  0.00    +0.000 N 
ATOM     26  C   UNL     1       0.125  14.600  19.823  0.00  0.00    +0.000 C 
ATOM     27  C   UNL     1      -0.031  13.416  18.857  0.00  0.00    +0.000 C 
BRANCH  25  28
ATOM     28  C   UNL     1      -1.716  16.233  20.066  0.00  0.00    +0.000 A 
ATOM     29  C   UNL     1      -1.159  17.127  19.163  0.00  0.00    +0.000 A 
ATOM     30  N   UNL     1      -1.693  18.317  18.796  0.00  0.00    +0.000 NA
ATOM     31  C   UNL     1      -2.857  18.629  19.376  0.00  0.00    +0.000 A 
ATOM     32  N   UNL     1      -3.516  17.873  20.262  0.00  0.00    +0.000 NA
ATOM     33  C   UNL     1      -2.921  16.699  20.578  0.00  0.00    +0.000 A 
ENDBRANCH  25  28
ENDBRANCH   6  21
TORSDOF 5
ENDMDL
MODEL 8
REMARK VINA RESULT:      -7.4      2.998      4.038
REMARK  Name = 
REMARK  7 active torsions:
REMARK  status: ('A' for Active; 'I' for Inactive)
REMARK    1  A    between atoms: C_1  and  O_2
REMARK    2  A    between atoms: O_2  and  C_3
REMARK    3  A    between atoms: C_5  and  O_6
REMARK    4  A    between atoms: O_6  and  C_7
REMARK    5  A    between atoms: C_8  and  C_9
REMARK    6  A    between atoms: C_14  and  N_15
REMARK    7  A    between atoms: N_19  and  C_20
REMARK                            x       y       z     vdW  Elec       q    Type
REMARK                         _______ _______ _______ _____ _____    ______ ____
ROOT
ATOM      1  C   UNL     1       1.998   7.630  19.734  0.00  0.00    +0.000 A 
ATOM      2  C   UNL     1       1.730   8.500  18.699  0.00  0.00    +0.000 A 
ATOM      3  N   UNL     1       1.132   9.597  19.273  0.00  0.00    +0.000 N 
ATOM      4  C   UNL     1       0.581  10.725  18.681  0.00  0.00    +0.000 A 
ATOM      5  C   UNL     1      -0.028  11.638  19.457  0.00  0.00    +0.000 A 
ATOM      6  C   UNL     1      -0.114  11.448  20.917  0.00  0.00    +0.000 A 
ATOM      7  C   UNL     1       0.494  10.362  21.454  0.00  0.00    +0.000 A 
ATOM      8  C   UNL     1       1.121   9.382  20.639  0.00  0.00    +0.000 A 
ATOM      9  N   UNL     1       1.660   8.221  20.940  0.00  0.00    +0.000 NA
ENDROOT
BRANCH   1  13
ATOM     10  C   UNL     1       3.216   3.504  19.694  0.00  0.00    +0.000 A 
ATOM     11  C   UNL     1       3.874   4.427  18.866  0.00  0.00    +0.000 A 
ATOM     12  C   UNL     1       3.527   5.790  18.833  0.00  0.00    +0.000 A 
ATOM     13  C   UNL     1       2.504   6.256  19.680  0.00  0.00    +0.000 A 
ATOM     14  C   UNL     1       1.862   5.320  20.519  0.00  0.00    +0.000 A 
ATOM     15  C   UNL     1       2.205   3.963  20.534  0.00  0.00    +0.000 A 
ATOM     16 CL   UNL     1       1.361   2.981  21.675  0.00  0.00    +0.000 Cl
BRANCH  10  18
ATOM     17  C   UNL     1       3.500   1.501  18.428  0.00  0.00    +0.000 C 
ATOM     18  O   UNL     1       3.753   2.247  19.609  0.00  0.00    +0.000 OA
ENDBRANCH  10  18
BRANCH  12  19
ATOM     19  O   UNL     1       4.183   6.687  18.027  0.00  0.00    +0.000 OA
ATOM     20  C   UNL     1       5.117   6.150  17.093  0.00  0.00    +0.000 C 
ENDBRANCH  12  19
ENDBRANCH   1  13
BRANCH   6  21
ATOM     21  N   UNL     1      -0.829  12.396  21.652  0.00  0.00    +0.000 N 
ATOM     22  C   UNL     1      -0.255  13.666  22.135  0.00  0.00    +0.000 C 
ATOM     23  C   UNL     1      -0.627  14.830  21.223  0.00  0.00    +0.000 C 
ATOM     24  C   UNL     1      -2.117  15.049  20.950  0.00  0.00    +0.000 C 
ATOM     25  N   UNL     1      -2.984  14.424  21.952  0.00  0.00    +0.000 N 
ATOM     26  C   UNL     1      -3.265  12.986  21.757  0.00  0.00    +0.000 C 
ATOM     27  C   UNL     1      -2.139  12.085  22.283  0.00  0.00    +0.000 C 
BRANCH  25  28
ATOM     28  C   UNL     1      -3.722  15.149  22.865  0.00  0.00    +0.000 A 
ATOM     29  C   UNL     1      -3.198  16.096  23.733  0.00  0.00    +0.000 A 
ATOM     30  N   UNL     1      -3.906  16.822  24.632  0.00  0.00    +0.000 NA
ATOM     31  C   UNL     1      -5.221  16.578  24.662  0.00  0.00    +0.000 A 
ATOM     32  N   UNL     1      -5.870  15.699  23.891  0.00  0.00    +0.000 NA
ATOM     33  C   UNL     1      -5.097  15.012  23.018  0.00  0.00    +0.000 A 
ENDBRANCH  25  28
ENDBRANCH   6  21
TORSDOF 5
ENDMDL
MODEL 9
REMARK VINA RESULT:      -7.3      3.099      4.277
REMARK  Name = 
REMARK  7 active torsions:
REMARK  status: ('A' for Active; 'I' for Inactive)
REMARK    1  A    between atoms: C_1  and  O_2
REMARK    2  A    between atoms: O_2  and  C_3
REMARK    3  A    between atoms: C_5  and  O_6
REMARK    4  A    between atoms: O_6  and  C_7
REMARK    5  A    between atoms: C_8  and  C_9
REMARK    6  A    between atoms: C_14  and  N_15
REMARK    7  A    between atoms: N_19  and  C_20
REMARK                            x       y       z     vdW  Elec       q    Type
REMARK                         _______ _______ _______ _____ _____    ______ ____
ROOT
ATOM      1  C   UNL     1       2.110   7.672  19.257  0.00  0.00    +0.000 A 
ATOM      2  C   UNL     1       1.819   8.458  18.162  0.00  0.00    +0.000 A 
ATOM      3  N   UNL     1       1.192   9.577  18.655  0.00  0.00    +0.000 N 
ATOM      4  C   UNL     1       0.612  10.644  17.984  0.00  0.00    +0.000 A 
ATOM      5  C   UNL     1      -0.022  11.594  18.693  0.00  0.00    +0.000 A 
ATOM      6  C   UNL     1      -0.105  11.508  20.163  0.00  0.00    +0.000 A 
ATOM      7  C   UNL     1       0.532  10.481  20.776  0.00  0.00    +0.000 A 
ATOM      8  C   UNL     1       1.185   9.461  20.034  0.00  0.00    +0.000 A 
ATOM      9  N   UNL     1       1.754   8.339  20.417  0.00  0.00    +0.000 NA
ENDROOT
BRANCH   1  13
ATOM     10  C   UNL     1       3.428   3.583  19.487  0.00  0.00    +0.000 A 
ATOM     11  C   UNL     1       4.133   4.493  18.683  0.00  0.00    +0.000 A 
ATOM     12  C   UNL     1       3.757   5.843  18.566  0.00  0.00    +0.000 A 
ATOM     13  C   UNL     1       2.652   6.312  19.302  0.00  0.00    +0.000 A 
ATOM     14  C   UNL     1       1.961   5.390  20.117  0.00  0.00    +0.000 A 
ATOM     15  C   UNL     1       2.335   4.045  20.217  0.00  0.00    +0.000 A 
ATOM     16 CL   UNL     1       1.418   3.083  21.318  0.00  0.00    +0.000 Cl
BRANCH  10  18
ATOM     17  C   UNL     1       4.704   1.950  20.670  0.00  0.00    +0.000 C 
ATOM     18  O   UNL     1       4.001   2.340  19.499  0.00  0.00    +0.000 OA
ENDBRANCH  10  18
BRANCH  12  19
ATOM     19  O   UNL     1       4.459   6.727  17.785  0.00  0.00    +0.000 OA
ATOM     20  C   UNL     1       5.766   6.329  17.377  0.00  0.00    +0.000 C 
ENDBRANCH  12  19
ENDBRANCH   1  13
BRANCH   6  21
ATOM     21  N   UNL     1      -0.845  12.488  20.828  0.00  0.00    +0.000 N 
ATOM     22  C   UNL     1      -1.950  13.245  20.212  0.00  0.00    +0.000 C 
ATOM     23  C   UNL     1      -3.308  12.667  20.599  0.00  0.00    +0.000 C 
ATOM     24  C   UNL     1      -3.599  12.524  22.095  0.00  0.00    +0.000 C 
ATOM     25  N   UNL     1      -2.751  13.379  22.931  0.00  0.00    +0.000 N 
ATOM     26  C   UNL     1      -1.409  12.845  23.246  0.00  0.00    +0.000 C 
ATOM     27  C   UNL     1      -0.397  13.080  22.117  0.00  0.00    +0.000 C 
BRANCH  25  28
ATOM     28  C   UNL     1      -3.231  14.475  23.617  0.00  0.00    +0.000 A 
ATOM     29  C   UNL     1      -2.507  15.209  24.545  0.00  0.00    +0.000 A 
ATOM     30  N   UNL     1      -2.958  16.291  25.224  0.00  0.00    +0.000 NA
ATOM     31  C   UNL     1      -4.216  16.657  24.954  0.00  0.00    +0.000 A 
ATOM     32  N   UNL     1      -5.037  16.052  24.088  0.00  0.00    +0.000 NA
ATOM     33  C   UNL     1      -4.516  14.979  23.448  0.00  0.00    +0.000 A 
ENDBRANCH  25  28
ENDBRANCH   6  21
TORSDOF 5
ENDMDL
