MODEL 1
REMARK VINA RESULT:      -9.3      0.000      0.000
REMARK  Name = 
REMARK  9 active torsions:
REMARK  status: ('A' for Active; 'I' for Inactive)
REMARK    1  A    between atoms: C_1  and  C_2
REMARK    2  A    between atoms: C_2  and  N_3
REMARK    3  A    between atoms: N_3  and  C_4
REMARK    4  A    between atoms: N_3  and  C_30
REMARK    5  A    between atoms: C_7  and  N_8
REMARK    6  A    between atoms: C_9  and  C_11
REMARK    7  A    between atoms: C_11  and  N_12
REMARK    8  A    between atoms: C_30  and  C_31
REMARK    9  A    between atoms: C_30  and  C_32
REMARK                            x       y       z     vdW  Elec       q    Type
REMARK                         _______ _______ _______ _____ _____    ______ ____
ROOT
ATOM      1  C   UNL     1       2.447   3.758  20.837  0.00  0.00    +0.000 C 
ENDROOT
BRANCH   1   2
ATOM      2  N   UNL     1       3.487   3.426  19.869  0.00  0.00    +0.000 N 
ATOM      3  C   UNL     1       4.562   2.624  20.113  0.00  0.00    +0.000 C 
ATOM      4  O   UNL     1       4.786   1.963  21.110  0.00  0.00    +0.000 OA
ATOM      5  N   UNL     1       5.466   2.785  19.063  0.00  0.00    +0.000 N 
ATOM      6  C   UNL     1       5.243   4.076  18.428  0.00  0.00    +0.000 C 
ATOM      7  C   UNL     1       5.915   5.173  19.305  0.00  0.00    +0.000 C 
ATOM      8  C   UNL     1       7.215   5.733  18.740  0.00  0.00    +0.000 C 
ATOM      9  O   UNL     1       7.854   4.842  17.833  0.00  0.00    +0.000 OA
ATOM     10  C   UNL     1       7.019   4.636  16.766  0.00  0.00    +0.000 A 
ATOM     11  C   UNL     1       7.528   4.926  15.496  0.00  0.00    +0.000 A 
ATOM     12  C   UNL     1       6.699   4.807  14.391  0.00  0.00    +0.000 A 
ATOM     13  C   UNL     1       5.389   4.357  14.568  0.00  0.00    +0.000 A 
ATOM     14  C   UNL     1       4.897   4.041  15.853  0.00  0.00    +0.000 A 
ATOM     15  C   UNL     1       5.697   4.204  16.992  0.00  0.00    +0.000 A 
ATOM     16  C   UNL     1       3.728   4.147  18.734  0.00  0.00    +0.000 C 
ATOM     17  O   UNL     1       2.886   4.829  18.163  0.00  0.00    +0.000 OA
ATOM     18  H   UNL     1       6.401   2.418  19.205  0.00  0.00    +0.000 HD
ENDBRANCH   1   2
BRANCH   1  20
ATOM     19  N   UNL     1       2.184   6.202  20.701  0.00  0.00    +0.000 N 
ATOM     20  C   UNL     1       1.555   4.976  20.568  0.00  0.00    +0.000 C 
ATOM     21  O   UNL     1       0.346   4.813  20.380  0.00  0.00    +0.000 OA
ATOM     22  H   UNL     1       3.161   6.184  20.964  0.00  0.00    +0.000 HD
BRANCH  19  26
ATOM     23  C   UNL     1       0.428  10.048  19.963  0.00  0.00    +0.000 A 
ATOM     24  C   UNL     1       0.208   9.373  21.169  0.00  0.00    +0.000 A 
ATOM     25  C   UNL     1       0.797   8.125  21.453  0.00  0.00    +0.000 A 
ATOM     26  C   UNL     1       1.603   7.482  20.518  0.00  0.00    +0.000 A 
ATOM     27  C   UNL     1       1.834   8.135  19.304  0.00  0.00    +0.000 A 
ATOM     28  C   UNL     1       1.255   9.391  19.036  0.00  0.00    +0.000 A 
BRANCH  23  29
ATOM     29  N   UNL     1      -0.129  11.306  19.662  0.00  0.00    +0.000 N 
BRANCH  29  30
ATOM     30  C   UNL     1       0.873  12.318  19.182  0.00  0.00    +0.000 C 
ATOM     31  C   UNL     1       0.204  13.464  18.415  0.00  0.00    +0.000 C 
ATOM     32  C   UNL     1       1.713  12.911  20.325  0.00  0.00    +0.000 C 
ENDBRANCH  29  30
BRANCH  29  34
ATOM     33  C   UNL     1      -1.947  10.222  18.237  0.00  0.00    +0.000 C 
ATOM     34  C   UNL     1      -1.485  11.408  19.073  0.00  0.00    +0.000 C 
ENDBRANCH  29  34
ENDBRANCH  23  29
ENDBRANCH  19  26
ENDBRANCH   1  20
TORSDOF 6
ENDMDL
MODEL 2
REMARK VINA RESULT:      -9.2      0.517      1.429
REMARK  Name = 
REMARK  9 active torsions:
REMARK  status: ('A' for Active; 'I' for Inactive)
REMARK    1  A    between atoms: C_1  and  C_2
REMARK    2  A    between atoms: C_2  and  N_3
REMARK    3  A    between atoms: N_3  and  C_4
REMARK    4  A    between atoms: N_3  and  C_30
REMARK    5  A    between atoms: C_7  and  N_8
REMARK    6  A    between atoms: C_9  and  C_11
REMARK    7  A    between atoms: C_11  and  N_12
REMARK    8  A    between atoms: C_30  and  C_31
REMARK    9  A    between atoms: C_30  and  C_32
REMARK                            x       y       z     vdW  Elec       q    Type
REMARK                         _______ _______ _______ _____ _____    ______ ____
ROOT
ATOM      1  C   UNL     1       2.464   3.853  20.780  0.00  0.00    +0.000 C 
ENDROOT
BRANCH   1   2
ATOM      2  N   UNL     1       3.495   3.499  19.810  0.00  0.00    +0.000 N 
ATOM      3  C   UNL     1       4.562   2.687  20.056  0.00  0.00    +0.000 C 
ATOM      4  O   UNL     1       4.783   2.033  21.058  0.00  0.00    +0.000 OA
ATOM      5  N   UNL     1       5.462   2.827  19.000  0.00  0.00    +0.000 N 
ATOM      6  C   UNL     1       5.251   4.114  18.353  0.00  0.00    +0.000 C 
ATOM      7  C   UNL     1       5.940   5.212  19.215  0.00  0.00    +0.000 C 
ATOM      8  C   UNL     1       7.244   5.751  18.638  0.00  0.00    +0.000 C 
ATOM      9  O   UNL     1       7.868   4.843  17.737  0.00  0.00    +0.000 OA
ATOM     10  C   UNL     1       7.025   4.637  16.677  0.00  0.00    +0.000 A 
ATOM     11  C   UNL     1       7.531   4.908  15.401  0.00  0.00    +0.000 A 
ATOM     12  C   UNL     1       6.694   4.787  14.302  0.00  0.00    +0.000 A 
ATOM     13  C   UNL     1       5.380   4.354  14.489  0.00  0.00    +0.000 A 
ATOM     14  C   UNL     1       4.891   4.057  15.780  0.00  0.00    +0.000 A 
ATOM     15  C   UNL     1       5.699   4.222  16.914  0.00  0.00    +0.000 A 
ATOM     16  C   UNL     1       3.739   4.205  18.666  0.00  0.00    +0.000 C 
ATOM     17  O   UNL     1       2.902   4.892  18.092  0.00  0.00    +0.000 OA
ATOM     18  H   UNL     1       6.394   2.450  19.140  0.00  0.00    +0.000 HD
ENDBRANCH   1   2
BRANCH   1  20
ATOM     19  N   UNL     1       2.327   6.299  20.533  0.00  0.00    +0.000 N 
ATOM     20  C   UNL     1       1.621   5.109  20.529  0.00  0.00    +0.000 C 
ATOM     21  O   UNL     1       0.391   5.011  20.466  0.00  0.00    +0.000 OA
ATOM     22  H   UNL     1       3.323   6.233  20.702  0.00  0.00    +0.000 HD
BRANCH  19  26
ATOM     23  C   UNL     1       0.721  10.202  19.753  0.00  0.00    +0.000 A 
ATOM     24  C   UNL     1       0.616   9.617  21.020  0.00  0.00    +0.000 A 
ATOM     25  C   UNL     1       1.161   8.352  21.315  0.00  0.00    +0.000 A 
ATOM     26  C   UNL     1       1.805   7.601  20.335  0.00  0.00    +0.000 A 
ATOM     27  C   UNL     1       1.919   8.162  19.061  0.00  0.00    +0.000 A 
ATOM     28  C   UNL     1       1.385   9.436  18.780  0.00  0.00    +0.000 A 
BRANCH  23  29
ATOM     29  N   UNL     1       0.206  11.474  19.437  0.00  0.00    +0.000 N 
BRANCH  29  30
ATOM     30  C   UNL     1      -1.271  11.610  19.670  0.00  0.00    +0.000 C 
ATOM     31  C   UNL     1      -1.683  13.070  19.887  0.00  0.00    +0.000 C 
ATOM     32  C   UNL     1      -2.110  11.024  18.522  0.00  0.00    +0.000 C 
ENDBRANCH  29  30
BRANCH  29  34
ATOM     33  C   UNL     1       1.818  13.211  18.490  0.00  0.00    +0.000 C 
ATOM     34  C   UNL     1       1.015  12.693  19.676  0.00  0.00    +0.000 C 
ENDBRANCH  29  34
ENDBRANCH  23  29
ENDBRANCH  19  26
ENDBRANCH   1  20
TORSDOF 6
ENDMDL
MODEL 3
REMARK VINA RESULT:      -9.0      0.751      1.298
REMARK  Name = 
REMARK  9 active torsions:
REMARK  status: ('A' for Active; 'I' for Inactive)
REMARK    1  A    between atoms: C_1  and  C_2
REMARK    2  A    between atoms: C_2  and  N_3
REMARK    3  A    between atoms: N_3  and  C_4
REMARK    4  A    between atoms: N_3  and  C_30
REMARK    5  A    between atoms: C_7  and  N_8
REMARK    6  A    between atoms: C_9  and  C_11
REMARK    7  A    between atoms: C_11  and  N_12
REMARK    8  A    between atoms: C_30  and  C_31
REMARK    9  A    between atoms: C_30  and  C_32
REMARK                            x       y       z     vdW  Elec       q    Type
REMARK                         _______ _______ _______ _____ _____    ______ ____
ROOT
ATOM      1  C   UNL     1       2.438   3.838  20.771  0.00  0.00    +0.000 C 
ENDROOT
BRANCH   1   2
ATOM      2  N   UNL     1       3.475   3.492  19.804  0.00  0.00    +0.000 N 
ATOM      3  C   UNL     1       4.543   2.683  20.051  0.00  0.00    +0.000 C 
ATOM      4  O   UNL     1       4.762   2.025  21.052  0.00  0.00    +0.000 OA
ATOM      5  N   UNL     1       5.447   2.830  18.999  0.00  0.00    +0.000 N 
ATOM      6  C   UNL     1       5.234   4.119  18.357  0.00  0.00    +0.000 C 
ATOM      7  C   UNL     1       5.916   5.215  19.226  0.00  0.00    +0.000 C 
ATOM      8  C   UNL     1       7.220   5.761  18.657  0.00  0.00    +0.000 C 
ATOM      9  O   UNL     1       7.850   4.859  17.754  0.00  0.00    +0.000 OA
ATOM     10  C   UNL     1       7.013   4.655  16.689  0.00  0.00    +0.000 A 
ATOM     11  C   UNL     1       7.522   4.933  15.416  0.00  0.00    +0.000 A 
ATOM     12  C   UNL     1       6.690   4.814  14.314  0.00  0.00    +0.000 A 
ATOM     13  C   UNL     1       5.377   4.376  14.495  0.00  0.00    +0.000 A 
ATOM     14  C   UNL     1       4.884   4.072  15.783  0.00  0.00    +0.000 A 
ATOM     15  C   UNL     1       5.687   4.234  16.920  0.00  0.00    +0.000 A 
ATOM     16  C   UNL     1       3.720   4.204  18.664  0.00  0.00    +0.000 C 
ATOM     17  O   UNL     1       2.883   4.890  18.090  0.00  0.00    +0.000 OA
ATOM     18  H   UNL     1       6.379   2.456  19.142  0.00  0.00    +0.000 HD
ENDBRANCH   1   2
BRANCH   1  20
ATOM     19  N   UNL     1       2.312   6.288  20.556  0.00  0.00    +0.000 N 
ATOM     20  C   UNL     1       1.602   5.101  20.531  0.00  0.00    +0.000 C 
ATOM     21  O   UNL     1       0.372   5.008  20.455  0.00  0.00    +0.000 OA
ATOM     22  H   UNL     1       3.305   6.217  20.734  0.00  0.00    +0.000 HD
BRANCH  19  26
ATOM     23  C   UNL     1       0.783  10.280  20.175  0.00  0.00    +0.000 A 
ATOM     24  C   UNL     1       1.330   9.608  19.077  0.00  0.00    +0.000 A 
ATOM     25  C   UNL     1       1.810   8.286  19.163  0.00  0.00    +0.000 A 
ATOM     26  C   UNL     1       1.796   7.595  20.371  0.00  0.00    +0.000 A 
ATOM     27  C   UNL     1       1.257   8.246  21.484  0.00  0.00    +0.000 A 
ATOM     28  C   UNL     1       0.763   9.563  21.383  0.00  0.00    +0.000 A 
BRANCH  23  29
ATOM     29  N   UNL     1       0.275  11.592  20.112  0.00  0.00    +0.000 N 
BRANCH  29  30
ATOM     30  C   UNL     1       0.499  12.271  18.791  0.00  0.00    +0.000 C 
ATOM     31  C   UNL     1      -0.770  12.965  18.283  0.00  0.00    +0.000 C 
ATOM     32  C   UNL     1       1.641  13.299  18.837  0.00  0.00    +0.000 C 
ENDBRANCH  29  30
BRANCH  29  34
ATOM     33  C   UNL     1      -0.825  12.792  22.077  0.00  0.00    +0.000 C 
ATOM     34  C   UNL     1      -0.978  11.948  20.819  0.00  0.00    +0.000 C 
ENDBRANCH  29  34
ENDBRANCH  23  29
ENDBRANCH  19  26
ENDBRANCH   1  20
TORSDOF 6
ENDMDL
MODEL 4
REMARK VINA RESULT:      -9.0      0.972      1.480
REMARK  Name = 
REMARK  9 active torsions:
REMARK  status: ('A' for Active; 'I' for Inactive)
REMARK    1  A    between atoms: C_1  and  C_2
REMARK    2  A    between atoms: C_2  and  N_3
REMARK    3  A    between atoms: N_3  and  C_4
REMARK    4  A    between atoms: N_3  and  C_30
REMARK    5  A    between atoms: C_7  and  N_8
REMARK    6  A    between atoms: C_9  and  C_11
REMARK    7  A    between atoms: C_11  and  N_12
REMARK    8  A    between atoms: C_30  and  C_31
REMARK    9  A    between atoms: C_30  and  C_32
REMARK                            x       y       z     vdW  Elec       q    Type
REMARK                         _______ _______ _______ _____ _____    ______ ____
ROOT
ATOM      1  C   UNL     1       2.580   4.080  20.959  0.00  0.00    +0.000 C 
ENDROOT
BRANCH   1   2
ATOM      2  N   UNL     1       3.528   3.667  19.930  0.00  0.00    +0.000 N 
ATOM      3  C   UNL     1       4.526   2.753  20.100  0.00  0.00    +0.000 C 
ATOM      4  O   UNL     1       4.732   2.049  21.071  0.00  0.00    +0.000 OA
ATOM      5  N   UNL     1       5.385   2.846  19.006  0.00  0.00    +0.000 N 
ATOM      6  C   UNL     1       5.264   4.167  18.407  0.00  0.00    +0.000 C 
ATOM      7  C   UNL     1       6.091   5.169  19.265  0.00  0.00    +0.000 C 
ATOM      8  C   UNL     1       7.410   5.606  18.640  0.00  0.00    +0.000 C 
ATOM      9  O   UNL     1       7.905   4.676  17.684  0.00  0.00    +0.000 OA
ATOM     10  C   UNL     1       6.999   4.582  16.661  0.00  0.00    +0.000 A 
ATOM     11  C   UNL     1       7.467   4.848  15.370  0.00  0.00    +0.000 A 
ATOM     12  C   UNL     1       6.573   4.840  14.310  0.00  0.00    +0.000 A 
ATOM     13  C   UNL     1       5.235   4.522  14.550  0.00  0.00    +0.000 A 
ATOM     14  C   UNL     1       4.781   4.228  15.854  0.00  0.00    +0.000 A 
ATOM     15  C   UNL     1       5.653   4.281  16.951  0.00  0.00    +0.000 A 
ATOM     16  C   UNL     1       3.783   4.385  18.796  0.00  0.00    +0.000 C 
ATOM     17  O   UNL     1       2.986   5.164  18.284  0.00  0.00    +0.000 OA
ATOM     18  H   UNL     1       6.283   2.382  19.089  0.00  0.00    +0.000 HD
ENDBRANCH   1   2
BRANCH   1  20
ATOM     19  N   UNL     1       2.118   6.497  20.867  0.00  0.00    +0.000 N 
ATOM     20  C   UNL     1       1.612   5.228  20.647  0.00  0.00    +0.000 C 
ATOM     21  O   UNL     1       0.441   4.970  20.349  0.00  0.00    +0.000 OA
ATOM     22  H   UNL     1       3.066   6.552  21.214  0.00  0.00    +0.000 HD
BRANCH  19  26
ATOM     23  C   UNL     1       0.080  10.251  20.452  0.00  0.00    +0.000 A 
ATOM     24  C   UNL     1       0.906   9.762  19.435  0.00  0.00    +0.000 A 
ATOM     25  C   UNL     1       1.562   8.518  19.528  0.00  0.00    +0.000 A 
ATOM     26  C   UNL     1       1.445   7.729  20.669  0.00  0.00    +0.000 A 
ATOM     27  C   UNL     1       0.629   8.199  21.700  0.00  0.00    +0.000 A 
ATOM     28  C   UNL     1      -0.038   9.436  21.590  0.00  0.00    +0.000 A 
BRANCH  23  29
ATOM     29  N   UNL     1      -0.606  11.479  20.375  0.00  0.00    +0.000 N 
BRANCH  29  30
ATOM     30  C   UNL     1      -0.741  12.186  21.693  0.00  0.00    +0.000 C 
ATOM     31  C   UNL     1       0.064  13.490  21.726  0.00  0.00    +0.000 C 
ATOM     32  C   UNL     1      -2.203  12.499  22.053  0.00  0.00    +0.000 C 
ENDBRANCH  29  30
BRANCH  29  34
ATOM     33  C   UNL     1      -1.484  12.149  18.074  0.00  0.00    +0.000 C 
ATOM     34  C   UNL     1      -0.461  12.349  19.184  0.00  0.00    +0.000 C 
ENDBRANCH  29  34
ENDBRANCH  23  29
ENDBRANCH  19  26
ENDBRANCH   1  20
TORSDOF 6
ENDMDL
MODEL 5
REMARK VINA RESULT:      -8.8      4.734      7.244
REMARK  Name = 
REMARK  9 active torsions:
REMARK  status: ('A' for Active; 'I' for Inactive)
REMARK    1  A    between atoms: C_1  and  C_2
REMARK    2  A    between atoms: C_2  and  N_3
REMARK    3  A    between atoms: N_3  and  C_4
REMARK    4  A    between atoms: N_3  and  C_30
REMARK    5  A    between atoms: C_7  and  N_8
REMARK    6  A    between atoms: C_9  and  C_11
REMARK    7  A    between atoms: C_11  and  N_12
REMARK    8  A    between atoms: C_30  and  C_31
REMARK    9  A    between atoms: C_30  and  C_32
REMARK                            x       y       z     vdW  Elec       q    Type
REMARK                         _______ _______ _______ _____ _____    ______ ____
ROOT
ATOM      1  C   UNL     1       7.841   5.769  17.829  0.00  0.00    +0.000 C 
ENDROOT
BRANCH   1   2
ATOM      2  N   UNL     1       6.621   4.969  17.824  0.00  0.00    +0.000 N 
ATOM      3  C   UNL     1       5.969   4.535  16.708  0.00  0.00    +0.000 C 
ATOM      4  O   UNL     1       6.333   4.629  15.550  0.00  0.00    +0.000 OA
ATOM      5  N   UNL     1       4.714   4.068  17.097  0.00  0.00    +0.000 N 
ATOM      6  C   UNL     1       4.336   4.693  18.356  0.00  0.00    +0.000 C 
ATOM      7  C   UNL     1       3.816   6.129  18.051  0.00  0.00    +0.000 C 
ATOM      8  C   UNL     1       2.304   6.293  18.145  0.00  0.00    +0.000 C 
ATOM      9  O   UNL     1       1.602   5.067  17.974  0.00  0.00    +0.000 OA
ATOM     10  C   UNL     1       1.967   4.213  18.982  0.00  0.00    +0.000 A 
ATOM     11  C   UNL     1       0.941   3.695  19.779  0.00  0.00    +0.000 A 
ATOM     12  C   UNL     1       1.265   2.888  20.858  0.00  0.00    +0.000 A 
ATOM     13  C   UNL     1       2.604   2.574  21.097  0.00  0.00    +0.000 A 
ATOM     14  C   UNL     1       3.628   3.082  20.268  0.00  0.00    +0.000 A 
ATOM     15  C   UNL     1       3.333   3.943  19.202  0.00  0.00    +0.000 A 
ATOM     16  C   UNL     1       5.777   4.861  18.892  0.00  0.00    +0.000 C 
ATOM     17  O   UNL     1       6.124   5.012  20.058  0.00  0.00    +0.000 OA
ATOM     18  H   UNL     1       4.036   3.910  16.359  0.00  0.00    +0.000 HD
ENDBRANCH   1   2
BRANCH   1  20
ATOM     19  N   UNL     1       8.587   8.022  18.488  0.00  0.00    +0.000 N 
ATOM     20  C   UNL     1       7.721   7.292  17.692  0.00  0.00    +0.000 C 
ATOM     21  O   UNL     1       6.812   7.769  17.005  0.00  0.00    +0.000 OA
ATOM     22  H   UNL     1       9.210   7.491  19.083  0.00  0.00    +0.000 HD
BRANCH  19  26
ATOM     23  C   UNL     1       9.045  12.275  18.830  0.00  0.00    +0.000 A 
ATOM     24  C   UNL     1       8.401  11.705  17.727  0.00  0.00    +0.000 A 
ATOM     25  C   UNL     1       8.207  10.314  17.602  0.00  0.00    +0.000 A 
ATOM     26  C   UNL     1       8.688   9.433  18.567  0.00  0.00    +0.000 A 
ATOM     27  C   UNL     1       9.338   9.979  19.676  0.00  0.00    +0.000 A 
ATOM     28  C   UNL     1       9.512  11.372  19.801  0.00  0.00    +0.000 A 
BRANCH  23  29
ATOM     29  N   UNL     1       9.232  13.661  18.992  0.00  0.00    +0.000 N 
BRANCH  29  30
ATOM     30  C   UNL     1      10.065  14.295  17.915  0.00  0.00    +0.000 C 
ATOM     31  C   UNL     1      10.102  15.822  18.045  0.00  0.00    +0.000 C 
ATOM     32  C   UNL     1      11.508  13.766  17.890  0.00  0.00    +0.000 C 
ENDBRANCH  29  30
BRANCH  29  34
ATOM     33  C   UNL     1       8.030  14.514  21.075  0.00  0.00    +0.000 C 
ATOM     34  C   UNL     1       8.153  14.505  19.557  0.00  0.00    +0.000 C 
ENDBRANCH  29  34
ENDBRANCH  23  29
ENDBRANCH  19  26
ENDBRANCH   1  20
TORSDOF 6
ENDMDL
MODEL 6
REMARK VINA RESULT:      -8.6      5.409      7.686
REMARK  Name = 
REMARK  9 active torsions:
REMARK  status: ('A' for Active; 'I' for Inactive)
REMARK    1  A    between atoms: C_1  and  C_2
REMARK    2  A    between atoms: C_2  and  N_3
REMARK    3  A    between atoms: N_3  and  C_4
REMARK    4  A    between atoms: N_3  and  C_30
REMARK    5  A    between atoms: C_7  and  N_8
REMARK    6  A    between atoms: C_9  and  C_11
REMARK    7  A    between atoms: C_11  and  N_12
REMARK    8  A    between atoms: C_30  and  C_31
REMARK    9  A    between atoms: C_30  and  C_32
REMARK                            x       y       z     vdW  Elec       q    Type
REMARK                         _______ _______ _______ _____ _____    ______ ____
ROOT
ATOM      1  C   UNL     1       7.053   7.002  17.211  0.00  0.00    +0.000 C 
ENDROOT
BRANCH   1   2
ATOM      2  N   UNL     1       6.368   5.985  18.001  0.00  0.00    +0.000 N 
ATOM      3  C   UNL     1       6.876   4.760  18.318  0.00  0.00    +0.000 C 
ATOM      4  O   UNL     1       8.002   4.346  18.111  0.00  0.00    +0.000 OA
ATOM      5  N   UNL     1       5.835   3.978  18.815  0.00  0.00    +0.000 N 
ATOM      6  C   UNL     1       4.566   4.489  18.317  0.00  0.00    +0.000 C 
ATOM      7  C   UNL     1       4.378   3.987  16.856  0.00  0.00    +0.000 C 
ATOM      8  C   UNL     1       3.363   2.862  16.695  0.00  0.00    +0.000 C 
ATOM      9  O   UNL     1       3.159   2.124  17.895  0.00  0.00    +0.000 OA
ATOM     10  C   UNL     1       2.656   2.972  18.846  0.00  0.00    +0.000 A 
ATOM     11  C   UNL     1       1.439   2.616  19.437  0.00  0.00    +0.000 A 
ATOM     12  C   UNL     1       0.852   3.478  20.349  0.00  0.00    +0.000 A 
ATOM     13  C   UNL     1       1.511   4.661  20.692  0.00  0.00    +0.000 A 
ATOM     14  C   UNL     1       2.753   4.994  20.108  0.00  0.00    +0.000 A 
ATOM     15  C   UNL     1       3.343   4.166  19.143  0.00  0.00    +0.000 A 
ATOM     16  C   UNL     1       5.019   5.965  18.211  0.00  0.00    +0.000 C 
ATOM     17  O   UNL     1       4.305   6.961  18.178  0.00  0.00    +0.000 OA
ATOM     18  H   UNL     1       6.010   2.982  18.896  0.00  0.00    +0.000 HD
ENDBRANCH   1   2
BRANCH   1  20
ATOM     19  N   UNL     1       7.829   9.333  17.383  0.00  0.00    +0.000 N 
ATOM     20  C   UNL     1       7.877   8.068  17.943  0.00  0.00    +0.000 C 
ATOM     21  O   UNL     1       8.609   7.732  18.880  0.00  0.00    +0.000 OA
ATOM     22  H   UNL     1       7.265   9.437  16.549  0.00  0.00    +0.000 HD
BRANCH  19  26
ATOM     23  C   UNL     1       9.999  12.762  18.780  0.00  0.00    +0.000 A 
ATOM     24  C   UNL     1       8.806  12.905  18.064  0.00  0.00    +0.000 A 
ATOM     25  C   UNL     1       8.054  11.799  17.621  0.00  0.00    +0.000 A 
ATOM     26  C   UNL     1       8.493  10.496  17.846  0.00  0.00    +0.000 A 
ATOM     27  C   UNL     1       9.684  10.328  18.555  0.00  0.00    +0.000 A 
ATOM     28  C   UNL     1      10.420  11.441  19.010  0.00  0.00    +0.000 A 
BRANCH  23  29
ATOM     29  N   UNL     1      10.758  13.849  19.255  0.00  0.00    +0.000 N 
BRANCH  29  30
ATOM     30  C   UNL     1      10.882  14.981  18.277  0.00  0.00    +0.000 C 
ATOM     31  C   UNL     1      10.318  16.290  18.842  0.00  0.00    +0.000 C 
ATOM     32  C   UNL     1      12.332  15.222  17.825  0.00  0.00    +0.000 C 
ENDBRANCH  29  30
BRANCH  29  34
ATOM     33  C   UNL     1       9.562  13.650  21.501  0.00  0.00    +0.000 C 
ATOM     34  C   UNL     1      10.710  14.232  20.686  0.00  0.00    +0.000 C 
ENDBRANCH  29  34
ENDBRANCH  23  29
ENDBRANCH  19  26
ENDBRANCH   1  20
TORSDOF 6
ENDMDL
MODEL 7
REMARK VINA RESULT:      -8.6      5.114      7.472
REMARK  Name = 
REMARK  9 active torsions:
REMARK  status: ('A' for Active; 'I' for Inactive)
REMARK    1  A    between atoms: C_1  and  C_2
REMARK    2  A    between atoms: C_2  and  N_3
REMARK    3  A    between atoms: N_3  and  C_4
REMARK    4  A    between atoms: N_3  and  C_30
REMARK    5  A    between atoms: C_7  and  N_8
REMARK    6  A    between atoms: C_9  and  C_11
REMARK    7  A    between atoms: C_11  and  N_12
REMARK    8  A    between atoms: C_30  and  C_31
REMARK    9  A    between atoms: C_30  and  C_32
REMARK                            x       y       z     vdW  Elec       q    Type
REMARK                         _______ _______ _______ _____ _____    ______ ____
ROOT
ATOM      1  C   UNL     1       8.205   6.446  18.271  0.00  0.00    +0.000 C 
ENDROOT
BRANCH   1   2
ATOM      2  N   UNL     1       7.032   5.637  17.954  0.00  0.00    +0.000 N 
ATOM      3  C   UNL     1       6.503   5.471  16.709  0.00  0.00    +0.000 C 
ATOM      4  O   UNL     1       6.962   5.855  15.649  0.00  0.00    +0.000 OA
ATOM      5  N   UNL     1       5.244   4.889  16.850  0.00  0.00    +0.000 N 
ATOM      6  C   UNL     1       4.726   5.176  18.180  0.00  0.00    +0.000 C 
ATOM      7  C   UNL     1       4.163   6.627  18.181  0.00  0.00    +0.000 C 
ATOM      8  C   UNL     1       2.642   6.721  18.164  0.00  0.00    +0.000 C 
ATOM      9  O   UNL     1       2.021   5.555  17.634  0.00  0.00    +0.000 OA
ATOM     10  C   UNL     1       2.339   4.492  18.438  0.00  0.00    +0.000 A 
ATOM     11  C   UNL     1       1.275   3.766  18.983  0.00  0.00    +0.000 A 
ATOM     12  C   UNL     1       1.543   2.728  19.862  0.00  0.00    +0.000 A 
ATOM     13  C   UNL     1       2.871   2.403  20.148  0.00  0.00    +0.000 A 
ATOM     14  C   UNL     1       3.936   3.127  19.569  0.00  0.00    +0.000 A 
ATOM     15  C   UNL     1       3.692   4.214  18.719  0.00  0.00    +0.000 A 
ATOM     16  C   UNL     1       6.105   5.247  18.878  0.00  0.00    +0.000 C 
ATOM     17  O   UNL     1       6.340   5.119  20.074  0.00  0.00    +0.000 OA
ATOM     18  H   UNL     1       4.642   4.896  16.034  0.00  0.00    +0.000 HD
ENDBRANCH   1   2
BRANCH   1  20
ATOM     19  N   UNL     1       8.930   8.693  18.970  0.00  0.00    +0.000 N 
ATOM     20  C   UNL     1       8.107   7.969  18.124  0.00  0.00    +0.000 C 
ATOM     21  O   UNL     1       7.247   8.453  17.381  0.00  0.00    +0.000 OA
ATOM     22  H   UNL     1       9.510   8.158  19.603  0.00  0.00    +0.000 HD
BRANCH  19  26
ATOM     23  C   UNL     1       9.374  12.943  19.364  0.00  0.00    +0.000 A 
ATOM     24  C   UNL     1       9.075  12.360  18.128  0.00  0.00    +0.000 A 
ATOM     25  C   UNL     1       8.891  10.971  17.973  0.00  0.00    +0.000 A 
ATOM     26  C   UNL     1       9.039  10.104  19.052  0.00  0.00    +0.000 A 
ATOM     27  C   UNL     1       9.342  10.662  20.296  0.00  0.00    +0.000 A 
ATOM     28  C   UNL     1       9.506  12.054  20.444  0.00  0.00    +0.000 A 
BRANCH  23  29
ATOM     29  N   UNL     1       9.540  14.329  19.551  0.00  0.00    +0.000 N 
BRANCH  29  30
ATOM     30  C   UNL     1       9.222  14.800  20.941  0.00  0.00    +0.000 C 
ATOM     31  C   UNL     1      10.399  15.550  21.574  0.00  0.00    +0.000 C 
ATOM     32  C   UNL     1       7.976  15.699  20.995  0.00  0.00    +0.000 C 
ENDBRANCH  29  30
BRANCH  29  34
ATOM     33  C   UNL     1      10.204  15.920  17.670  0.00  0.00    +0.000 C 
ATOM     34  C   UNL     1      10.625  15.059  18.853  0.00  0.00    +0.000 C 
ENDBRANCH  29  34
ENDBRANCH  23  29
ENDBRANCH  19  26
ENDBRANCH   1  20
TORSDOF 6
ENDMDL
MODEL 8
REMARK VINA RESULT:      -8.6      5.394      7.622
REMARK  Name = 
REMARK  9 active torsions:
REMARK  status: ('A' for Active; 'I' for Inactive)
REMARK    1  A    between atoms: C_1  and  C_2
REMARK    2  A    between atoms: C_2  and  N_3
REMARK    3  A    between atoms: N_3  and  C_4
REMARK    4  A    between atoms: N_3  and  C_30
REMARK    5  A    between atoms: C_7  and  N_8
REMARK    6  A    between atoms: C_9  and  C_11
REMARK    7  A    between atoms: C_11  and  N_12
REMARK    8  A    between atoms: C_30  and  C_31
REMARK    9  A    between atoms: C_30  and  C_32
REMARK                            x       y       z     vdW  Elec       q    Type
REMARK                         _______ _______ _______ _____ _____    ______ ____
ROOT
ATOM      1  C   UNL     1       7.078   6.959  17.281  0.00  0.00    +0.000 C 
ENDROOT
BRANCH   1   2
ATOM      2  N   UNL     1       6.396   5.986  18.128  0.00  0.00    +0.000 N 
ATOM      3  C   UNL     1       6.951   4.840  18.615  0.00  0.00    +0.000 C 
ATOM      4  O   UNL     1       8.112   4.484  18.535  0.00  0.00    +0.000 OA
ATOM      5  N   UNL     1       5.923   4.045  19.121  0.00  0.00    +0.000 N 
ATOM      6  C   UNL     1       4.669   4.413  18.481  0.00  0.00    +0.000 C 
ATOM      7  C   UNL     1       4.625   3.747  17.075  0.00  0.00    +0.000 C 
ATOM      8  C   UNL     1       3.694   2.544  16.968  0.00  0.00    +0.000 C 
ATOM      9  O   UNL     1       3.443   1.925  18.226  0.00  0.00    +0.000 OA
ATOM     10  C   UNL     1       2.818   2.834  19.039  0.00  0.00    +0.000 A 
ATOM     11  C   UNL     1       1.583   2.460  19.578  0.00  0.00    +0.000 A 
ATOM     12  C   UNL     1       0.875   3.372  20.346  0.00  0.00    +0.000 A 
ATOM     13  C   UNL     1       1.433   4.626  20.600  0.00  0.00    +0.000 A 
ATOM     14  C   UNL     1       2.694   4.980  20.073  0.00  0.00    +0.000 A 
ATOM     15  C   UNL     1       3.406   4.097  19.250  0.00  0.00    +0.000 A 
ATOM     16  C   UNL     1       5.038   5.897  18.244  0.00  0.00    +0.000 C 
ATOM     17  O   UNL     1       4.270   6.832  18.051  0.00  0.00    +0.000 OA
ATOM     18  H   UNL     1       6.151   3.078  19.324  0.00  0.00    +0.000 HD
ENDBRANCH   1   2
BRANCH   1  20
ATOM     19  N   UNL     1       7.778   9.319  17.323  0.00  0.00    +0.000 N 
ATOM     20  C   UNL     1       7.869   8.089  17.951  0.00  0.00    +0.000 C 
ATOM     21  O   UNL     1       8.615   7.827  18.900  0.00  0.00    +0.000 OA
ATOM     22  H   UNL     1       7.209   9.360  16.488  0.00  0.00    +0.000 HD
BRANCH  19  26
ATOM     23  C   UNL     1       9.512  13.060  18.513  0.00  0.00    +0.000 A 
ATOM     24  C   UNL     1      10.086  11.844  18.898  0.00  0.00    +0.000 A 
ATOM     25  C   UNL     1       9.558  10.600  18.496  0.00  0.00    +0.000 A 
ATOM     26  C   UNL     1       8.405  10.527  17.719  0.00  0.00    +0.000 A 
ATOM     27  C   UNL     1       7.812  11.729  17.326  0.00  0.00    +0.000 A 
ATOM     28  C   UNL     1       8.357  12.968  17.718  0.00  0.00    +0.000 A 
BRANCH  23  29
ATOM     29  N   UNL     1      10.031  14.317  18.880  0.00  0.00    +0.000 N 
BRANCH  29  30
ATOM     30  C   UNL     1      11.013  14.264  20.015  0.00  0.00    +0.000 C 
ATOM     31  C   UNL     1      12.333  14.960  19.662  0.00  0.00    +0.000 C 
ATOM     32  C   UNL     1      10.460  14.881  21.310  0.00  0.00    +0.000 C 
ENDBRANCH  29  30
BRANCH  29  34
ATOM     33  C   UNL     1       9.456  16.630  17.969  0.00  0.00    +0.000 C 
ATOM     34  C   UNL     1      10.283  15.356  17.854  0.00  0.00    +0.000 C 
ENDBRANCH  29  34
ENDBRANCH  23  29
ENDBRANCH  19  26
ENDBRANCH   1  20
TORSDOF 6
ENDMDL
MODEL 9
REMARK VINA RESULT:      -8.5      5.038      7.321
REMARK  Name = 
REMARK  9 active torsions:
REMARK  status: ('A' for Active; 'I' for Inactive)
REMARK    1  A    between atoms: C_1  and  C_2
REMARK    2  A    between atoms: C_2  and  N_3
REMARK    3  A    between atoms: N_3  and  C_4
REMARK    4  A    between atoms: N_3  and  C_30
REMARK    5  A    between atoms: C_7  and  N_8
REMARK    6  A    between atoms: C_9  and  C_11
REMARK    7  A    between atoms: C_11  and  N_12
REMARK    8  A    between atoms: C_30  and  C_31
REMARK    9  A    between atoms: C_30  and  C_32
REMARK                            x       y       z     vdW  Elec       q    Type
REMARK                         _______ _______ _______ _____ _____    ______ ____
ROOT
ATOM      1  C   UNL     1       8.101   6.418  18.168  0.00  0.00    +0.000 C 
ENDROOT
BRANCH   1   2
ATOM      2  N   UNL     1       6.905   5.633  17.884  0.00  0.00    +0.000 N 
ATOM      3  C   UNL     1       6.329   5.492  16.656  0.00  0.00    +0.000 C 
ATOM      4  O   UNL     1       6.756   5.882  15.586  0.00  0.00    +0.000 OA
ATOM      5  N   UNL     1       5.066   4.929  16.836  0.00  0.00    +0.000 N 
ATOM      6  C   UNL     1       4.600   5.207  18.187  0.00  0.00    +0.000 C 
ATOM      7  C   UNL     1       4.063   6.667  18.225  0.00  0.00    +0.000 C 
ATOM      8  C   UNL     1       2.544   6.787  18.264  0.00  0.00    +0.000 C 
ATOM      9  O   UNL     1       1.885   5.638  17.743  0.00  0.00    +0.000 OA
ATOM     10  C   UNL     1       2.213   4.559  18.521  0.00  0.00    +0.000 A 
ATOM     11  C   UNL     1       1.156   3.844  19.095  0.00  0.00    +0.000 A 
ATOM     12  C   UNL     1       1.438   2.790  19.951  0.00  0.00    +0.000 A 
ATOM     13  C   UNL     1       2.770   2.439  20.185  0.00  0.00    +0.000 A 
ATOM     14  C   UNL     1       3.826   3.153  19.577  0.00  0.00    +0.000 A 
ATOM     15  C   UNL     1       3.570   4.255  18.750  0.00  0.00    +0.000 A 
ATOM     16  C   UNL     1       6.004   5.246  18.835  0.00  0.00    +0.000 C 
ATOM     17  O   UNL     1       6.279   5.098  20.021  0.00  0.00    +0.000 OA
ATOM     18  H   UNL     1       4.436   4.957  16.041  0.00  0.00    +0.000 HD
ENDBRANCH   1   2
BRANCH   1  20
ATOM     19  N   UNL     1       8.887   8.633  18.903  0.00  0.00    +0.000 N 
ATOM     20  C   UNL     1       8.016   7.946  18.076  0.00  0.00    +0.000 C 
ATOM     21  O   UNL     1       7.127   8.464  17.392  0.00  0.00    +0.000 OA
ATOM     22  H   UNL     1       9.491   8.071  19.490  0.00  0.00    +0.000 HD
BRANCH  19  26
ATOM     23  C   UNL     1       9.175  12.909  19.123  0.00  0.00    +0.000 A 
ATOM     24  C   UNL     1       9.308  12.116  20.268  0.00  0.00    +0.000 A 
ATOM     25  C   UNL     1       9.251  10.709  20.223  0.00  0.00    +0.000 A 
ATOM     26  C   UNL     1       9.018  10.038  19.025  0.00  0.00    +0.000 A 
ATOM     27  C   UNL     1       8.878  10.809  17.868  0.00  0.00    +0.000 A 
ATOM     28  C   UNL     1       8.954  12.215  17.921  0.00  0.00    +0.000 A 
BRANCH  23  29
ATOM     29  N   UNL     1       9.251  14.315  19.135  0.00  0.00    +0.000 N 
BRANCH  29  30
ATOM     30  C   UNL     1      10.624  14.855  18.852  0.00  0.00    +0.000 C 
ATOM     31  C   UNL     1      11.720  13.993  19.489  0.00  0.00    +0.000 C 
ATOM     32  C   UNL     1      10.912  14.987  17.347  0.00  0.00    +0.000 C 
ENDBRANCH  29  30
BRANCH  29  34
ATOM     33  C   UNL     1       6.874  15.157  19.520  0.00  0.00    +0.000 C 
ATOM     34  C   UNL     1       8.119  15.135  18.643  0.00  0.00    +0.000 C 
ENDBRANCH  29  34
ENDBRANCH  23  29
ENDBRANCH  19  26
ENDBRANCH   1  20
TORSDOF 6
ENDMDL
