MODEL 1
REMARK VINA RESULT:      -8.0      0.000      0.000
REMARK  Name = 
REMARK  10 active torsions:
REMARK  status: ('A' for Active; 'I' for Inactive)
REMARK    1  A    between atoms: C_1  and  C_2
REMARK    2  A    between atoms: N_4  and  C_5
REMARK    3  A    between atoms: C_6  and  O_7
REMARK    4  A    between atoms: O_7  and  C_8
REMARK    5  A    between atoms: C_12  and  C_13
REMARK    6  A    between atoms: C_18  and  C_19
REMARK    7  A    between atoms: N_21  and  C_22
REMARK    8  A    between atoms: C_22  and  C_23
REMARK    9  A    between atoms: C_26  and  C_27
REMARK   10  A    between atoms: C_27  and  O_29
REMARK                            x       y       z     vdW  Elec       q    Type
REMARK                         _______ _______ _______ _____ _____    ______ ____
ROOT
ATOM      1  C   UNL     1       1.162   3.338  21.562  0.00  0.00    +0.000 C 
ATOM      2  C   UNL     1       2.512   3.101  20.979  0.00  0.00    +0.000 A 
ATOM      3  N   UNL     1       3.268   2.115  21.471  0.00  0.00    +0.000 NA
ATOM      4  N   UNL     1       4.381   2.157  20.733  0.00  0.00    +0.000 N 
ATOM      5  C   UNL     1       5.421   1.183  20.960  0.00  0.00    +0.000 C 
ATOM      6  C   UNL     1       4.414   3.189  19.815  0.00  0.00    +0.000 A 
ATOM      7  C   UNL     1       3.161   3.799  19.911  0.00  0.00    +0.000 A 
ENDROOT
BRANCH   7   8
ATOM      8  C   UNL     1       2.571   4.896  19.144  0.00  0.00    +0.000 C 
ATOM      9  O   UNL     1       1.841   4.692  18.175  0.00  0.00    +0.000 OA
ATOM     10  N   UNL     1       2.908   6.165  19.564  0.00  0.00    +0.000 N 
ATOM     11  H   UNL     1       3.726   6.222  20.149  0.00  0.00    +0.000 HD
BRANCH  10  12
ATOM     12  C   UNL     1       2.617   7.351  18.812  0.00  0.00    +0.000 C 
ATOM     13  C   UNL     1       3.693   7.876  17.892  0.00  0.00    +0.000 C 
ATOM     14  C   UNL     1       2.440   7.323  17.304  0.00  0.00    +0.000 C 
BRANCH  12  15
ATOM     15  C   UNL     1       1.590   8.166  19.562  0.00  0.00    +0.000 A 
ATOM     16  C   UNL     1       1.155   9.409  19.093  0.00  0.00    +0.000 A 
ATOM     17  C   UNL     1       0.528  10.310  19.953  0.00  0.00    +0.000 A 
ATOM     18  C   UNL     1       0.326   9.974  21.297  0.00  0.00    +0.000 A 
ATOM     19  C   UNL     1       0.638   8.693  21.753  0.00  0.00    +0.000 A 
ATOM     20  C   UNL     1       1.258   7.798  20.885  0.00  0.00    +0.000 A 
BRANCH  18  21
ATOM     21  C   UNL     1      -0.191  11.013  22.213  0.00  0.00    +0.000 C 
ATOM     22  O   UNL     1      -0.412  12.163  21.862  0.00  0.00    +0.000 OA
BRANCH  21  23
ATOM     23  O   UNL     1      -0.331  10.597  23.493  0.00  0.00    +0.000 OA
ATOM     24  H   UNL     1      -0.432  11.312  24.148  0.00  0.00    +0.000 HD
ENDBRANCH  21  23
ENDBRANCH  18  21
ENDBRANCH  12  15
ENDBRANCH  10  12
ENDBRANCH   7   8
BRANCH   6  25
ATOM     25  O   UNL     1       5.513   3.332  19.062  0.00  0.00    +0.000 OA
BRANCH  25  26
ATOM     26  C   UNL     1       5.627   4.280  18.072  0.00  0.00    +0.000 A 
ATOM     27  C   UNL     1       5.068   4.137  16.801  0.00  0.00    +0.000 A 
ATOM     28  C   UNL     1       5.379   5.056  15.802  0.00  0.00    +0.000 A 
ATOM     29  C   UNL     1       6.196   6.153  16.085  0.00  0.00    +0.000 A 
ATOM     30  C   UNL     1       6.724   6.339  17.371  0.00  0.00    +0.000 A 
ATOM     31  C   UNL     1       6.430   5.390  18.365  0.00  0.00    +0.000 A 
BRANCH  30  32
ATOM     32  C   UNL     1       7.626   7.510  17.676  0.00  0.00    +0.000 C 
ATOM     33  F   UNL     1       8.422   7.316  18.764  0.00  0.00    +0.000 F 
ATOM     34  F   UNL     1       8.462   7.807  16.645  0.00  0.00    +0.000 F 
ATOM     35  F   UNL     1       6.920   8.649  17.928  0.00  0.00    +0.000 F 
ENDBRANCH  30  32
ENDBRANCH  25  26
ENDBRANCH   6  25
TORSDOF 8
ENDMDL
MODEL 2
REMARK VINA RESULT:      -7.9      3.798      7.941
REMARK  Name = 
REMARK  10 active torsions:
REMARK  status: ('A' for Active; 'I' for Inactive)
REMARK    1  A    between atoms: C_1  and  C_2
REMARK    2  A    between atoms: N_4  and  C_5
REMARK    3  A    between atoms: C_6  and  O_7
REMARK    4  A    between atoms: O_7  and  C_8
REMARK    5  A    between atoms: C_12  and  C_13
REMARK    6  A    between atoms: C_18  and  C_19
REMARK    7  A    between atoms: N_21  and  C_22
REMARK    8  A    between atoms: C_22  and  C_23
REMARK    9  A    between atoms: C_26  and  C_27
REMARK   10  A    between atoms: C_27  and  O_29
REMARK                            x       y       z     vdW  Elec       q    Type
REMARK                         _______ _______ _______ _____ _____    ______ ____
ROOT
ATOM      1  C   UNL     1       3.143   3.168  17.024  0.00  0.00    +0.000 C 
ATOM      2  C   UNL     1       2.707   4.132  18.072  0.00  0.00    +0.000 A 
ATOM      3  N   UNL     1       1.728   3.781  18.911  0.00  0.00    +0.000 NA
ATOM      4  N   UNL     1       1.597   4.837  19.720  0.00  0.00    +0.000 N 
ATOM      5  C   UNL     1       0.643   4.788  20.802  0.00  0.00    +0.000 C 
ATOM      6  C   UNL     1       2.410   5.905  19.395  0.00  0.00    +0.000 A 
ATOM      7  C   UNL     1       3.205   5.447  18.342  0.00  0.00    +0.000 A 
ENDROOT
BRANCH   7   8
ATOM      8  C   UNL     1       4.304   6.092  17.623  0.00  0.00    +0.000 C 
ATOM      9  O   UNL     1       4.104   6.833  16.662  0.00  0.00    +0.000 OA
ATOM     10  N   UNL     1       5.570   5.792  18.077  0.00  0.00    +0.000 N 
ATOM     11  H   UNL     1       5.638   4.964  18.648  0.00  0.00    +0.000 HD
BRANCH  10  12
ATOM     12  C   UNL     1       6.769   6.139  17.370  0.00  0.00    +0.000 C 
ATOM     13  C   UNL     1       7.298   7.542  17.540  0.00  0.00    +0.000 C 
ATOM     14  C   UNL     1       8.080   6.400  18.092  0.00  0.00    +0.000 C 
BRANCH  12  15
ATOM     15  C   UNL     1       6.879   5.271  16.139  0.00  0.00    +0.000 A 
ATOM     16  C   UNL     1       7.334   5.783  14.920  0.00  0.00    +0.000 A 
ATOM     17  C   UNL     1       7.068   5.110  13.727  0.00  0.00    +0.000 A 
ATOM     18  C   UNL     1       6.345   3.911  13.742  0.00  0.00    +0.000 A 
ATOM     19  C   UNL     1       5.993   3.322  14.957  0.00  0.00    +0.000 A 
ATOM     20  C   UNL     1       6.267   3.997  16.142  0.00  0.00    +0.000 A 
BRANCH  18  21
ATOM     21  C   UNL     1       5.943   3.315  12.451  0.00  0.00    +0.000 C 
ATOM     22  O   UNL     1       4.828   3.456  11.969  0.00  0.00    +0.000 OA
BRANCH  21  23
ATOM     23  O   UNL     1       6.895   2.539  11.883  0.00  0.00    +0.000 OA
ATOM     24  H   UNL     1       6.633   1.612  11.734  0.00  0.00    +0.000 HD
ENDBRANCH  21  23
ENDBRANCH  18  21
ENDBRANCH  12  15
ENDBRANCH  10  12
ENDBRANCH   7   8
BRANCH   6  25
ATOM     25  O   UNL     1       2.313   7.022  20.129  0.00  0.00    +0.000 OA
BRANCH  25  26
ATOM     26  C   UNL     1       1.704   8.169  19.675  0.00  0.00    +0.000 A 
ATOM     27  C   UNL     1       1.900   8.688  18.395  0.00  0.00    +0.000 A 
ATOM     28  C   UNL     1       1.391   9.944  18.073  0.00  0.00    +0.000 A 
ATOM     29  C   UNL     1       0.634  10.656  19.007  0.00  0.00    +0.000 A 
ATOM     30  C   UNL     1       0.385  10.125  20.281  0.00  0.00    +0.000 A 
ATOM     31  C   UNL     1       0.929   8.870  20.607  0.00  0.00    +0.000 A 
BRANCH  30  32
ATOM     32  C   UNL     1      -0.413  10.900  21.301  0.00  0.00    +0.000 C 
ATOM     33  F   UNL     1       0.292  11.902  21.897  0.00  0.00    +0.000 F 
ATOM     34  F   UNL     1      -1.518  11.483  20.764  0.00  0.00    +0.000 F 
ATOM     35  F   UNL     1      -0.860  10.106  22.313  0.00  0.00    +0.000 F 
ENDBRANCH  30  32
ENDBRANCH  25  26
ENDBRANCH   6  25
TORSDOF 8
ENDMDL
MODEL 3
REMARK VINA RESULT:      -7.8      1.749      2.280
REMARK  Name = 
REMARK  10 active torsions:
REMARK  status: ('A' for Active; 'I' for Inactive)
REMARK    1  A    between atoms: C_1  and  C_2
REMARK    2  A    between atoms: N_4  and  C_5
REMARK    3  A    between atoms: C_6  and  O_7
REMARK    4  A    between atoms: O_7  and  C_8
REMARK    5  A    between atoms: C_12  and  C_13
REMARK    6  A    between atoms: C_18  and  C_19
REMARK    7  A    between atoms: N_21  and  C_22
REMARK    8  A    between atoms: C_22  and  C_23
REMARK    9  A    between atoms: C_26  and  C_27
REMARK   10  A    between atoms: C_27  and  O_29
REMARK                            x       y       z     vdW  Elec       q    Type
REMARK                         _______ _______ _______ _____ _____    ______ ____
ROOT
ATOM      1  C   UNL     1       0.725   2.374  18.740  0.00  0.00    +0.000 C 
ATOM      2  C   UNL     1       2.150   2.588  19.116  0.00  0.00    +0.000 A 
ATOM      3  N   UNL     1       2.857   1.560  19.594  0.00  0.00    +0.000 NA
ATOM      4  N   UNL     1       4.073   2.071  19.809  0.00  0.00    +0.000 N 
ATOM      5  C   UNL     1       5.129   1.213  20.290  0.00  0.00    +0.000 C 
ATOM      6  C   UNL     1       4.172   3.425  19.556  0.00  0.00    +0.000 A 
ATOM      7  C   UNL     1       2.927   3.788  19.036  0.00  0.00    +0.000 A 
ENDROOT
BRANCH   7   8
ATOM      8  C   UNL     1       2.445   5.066  18.512  0.00  0.00    +0.000 C 
ATOM      9  O   UNL     1       1.631   5.124  17.591  0.00  0.00    +0.000 OA
ATOM     10  N   UNL     1       2.982   6.191  19.098  0.00  0.00    +0.000 N 
ATOM     11  H   UNL     1       3.838   6.044  19.610  0.00  0.00    +0.000 HD
BRANCH  10  12
ATOM     12  C   UNL     1       2.810   7.516  18.577  0.00  0.00    +0.000 C 
ATOM     13  C   UNL     1       3.983   8.144  17.863  0.00  0.00    +0.000 C 
ATOM     14  C   UNL     1       2.763   7.791  17.084  0.00  0.00    +0.000 C 
BRANCH  12  15
ATOM     15  C   UNL     1       1.759   8.230  19.392  0.00  0.00    +0.000 A 
ATOM     16  C   UNL     1       1.230   9.460  18.991  0.00  0.00    +0.000 A 
ATOM     17  C   UNL     1       0.576  10.283  19.910  0.00  0.00    +0.000 A 
ATOM     18  C   UNL     1       0.441   9.879  21.243  0.00  0.00    +0.000 A 
ATOM     19  C   UNL     1       0.849   8.602  21.632  0.00  0.00    +0.000 A 
ATOM     20  C   UNL     1       1.495   7.786  20.708  0.00  0.00    +0.000 A 
BRANCH  18  21
ATOM     21  C   UNL     1      -0.109  10.842  22.219  0.00  0.00    +0.000 C 
ATOM     22  O   UNL     1      -0.337  10.554  23.386  0.00  0.00    +0.000 OA
BRANCH  21  23
ATOM     23  O   UNL     1      -0.405  12.052  21.691  0.00  0.00    +0.000 OA
ATOM     24  H   UNL     1      -1.358  12.237  21.599  0.00  0.00    +0.000 HD
ENDBRANCH  21  23
ENDBRANCH  18  21
ENDBRANCH  12  15
ENDBRANCH  10  12
ENDBRANCH   7   8
BRANCH   6  25
ATOM     25  O   UNL     1       5.345   4.029  19.786  0.00  0.00    +0.000 OA
BRANCH  25  26
ATOM     26  C   UNL     1       6.053   4.692  18.810  0.00  0.00    +0.000 A 
ATOM     27  C   UNL     1       6.861   5.801  19.067  0.00  0.00    +0.000 A 
ATOM     28  C   UNL     1       7.401   6.523  18.005  0.00  0.00    +0.000 A 
ATOM     29  C   UNL     1       7.186   6.105  16.689  0.00  0.00    +0.000 A 
ATOM     30  C   UNL     1       6.419   4.963  16.418  0.00  0.00    +0.000 A 
ATOM     31  C   UNL     1       5.853   4.258  17.494  0.00  0.00    +0.000 A 
BRANCH  30  32
ATOM     32  C   UNL     1       6.165   4.520  14.997  0.00  0.00    +0.000 C 
ATOM     33  F   UNL     1       6.020   3.172  14.864  0.00  0.00    +0.000 F 
ATOM     34  F   UNL     1       5.040   5.075  14.471  0.00  0.00    +0.000 F 
ATOM     35  F   UNL     1       7.183   4.870  14.161  0.00  0.00    +0.000 F 
ENDBRANCH  30  32
ENDBRANCH  25  26
ENDBRANCH   6  25
TORSDOF 8
ENDMDL
MODEL 4
REMARK VINA RESULT:      -7.7      3.165      7.613
REMARK  Name = 
REMARK  10 active torsions:
REMARK  status: ('A' for Active; 'I' for Inactive)
REMARK    1  A    between atoms: C_1  and  C_2
REMARK    2  A    between atoms: N_4  and  C_5
REMARK    3  A    between atoms: C_6  and  O_7
REMARK    4  A    between atoms: O_7  and  C_8
REMARK    5  A    between atoms: C_12  and  C_13
REMARK    6  A    between atoms: C_18  and  C_19
REMARK    7  A    between atoms: N_21  and  C_22
REMARK    8  A    between atoms: C_22  and  C_23
REMARK    9  A    between atoms: C_26  and  C_27
REMARK   10  A    between atoms: C_27  and  O_29
REMARK                            x       y       z     vdW  Elec       q    Type
REMARK                         _______ _______ _______ _____ _____    ______ ____
ROOT
ATOM      1  C   UNL     1       2.861   3.205  16.736  0.00  0.00    +0.000 C 
ATOM      2  C   UNL     1       2.588   3.903  18.022  0.00  0.00    +0.000 A 
ATOM      3  N   UNL     1       1.720   3.363  18.883  0.00  0.00    +0.000 NA
ATOM      4  N   UNL     1       1.719   4.208  19.919  0.00  0.00    +0.000 N 
ATOM      5  C   UNL     1       0.915   3.908  21.079  0.00  0.00    +0.000 C 
ATOM      6  C   UNL     1       2.505   5.329  19.738  0.00  0.00    +0.000 A 
ATOM      7  C   UNL     1       3.144   5.128  18.512  0.00  0.00    +0.000 A 
ENDROOT
BRANCH   7   8
ATOM      8  C   UNL     1       4.153   5.928  17.817  0.00  0.00    +0.000 C 
ATOM      9  O   UNL     1       3.844   6.827  17.036  0.00  0.00    +0.000 OA
ATOM     10  N   UNL     1       5.464   5.589  18.075  0.00  0.00    +0.000 N 
ATOM     11  H   UNL     1       5.602   4.673  18.472  0.00  0.00    +0.000 HD
BRANCH  10  12
ATOM     12  C   UNL     1       6.576   6.098  17.326  0.00  0.00    +0.000 C 
ATOM     13  C   UNL     1       6.898   7.567  17.463  0.00  0.00    +0.000 C 
ATOM     14  C   UNL     1       7.856   6.560  18.002  0.00  0.00    +0.000 C 
BRANCH  12  15
ATOM     15  C   UNL     1       6.775   5.237  16.101  0.00  0.00    +0.000 A 
ATOM     16  C   UNL     1       7.360   5.744  14.937  0.00  0.00    +0.000 A 
ATOM     17  C   UNL     1       7.188   5.089  13.716  0.00  0.00    +0.000 A 
ATOM     18  C   UNL     1       6.428   3.915  13.649  0.00  0.00    +0.000 A 
ATOM     19  C   UNL     1       5.944   3.328  14.819  0.00  0.00    +0.000 A 
ATOM     20  C   UNL     1       6.126   3.984  16.032  0.00  0.00    +0.000 A 
BRANCH  18  21
ATOM     21  C   UNL     1       6.132   3.342  12.320  0.00  0.00    +0.000 C 
ATOM     22  O   UNL     1       6.994   2.884  11.583  0.00  0.00    +0.000 OA
BRANCH  21  23
ATOM     23  O   UNL     1       4.831   3.434  11.958  0.00  0.00    +0.000 OA
ATOM     24  H   UNL     1       4.638   3.147  11.047  0.00  0.00    +0.000 HD
ENDBRANCH  21  23
ENDBRANCH  18  21
ENDBRANCH  12  15
ENDBRANCH  10  12
ENDBRANCH   7   8
BRANCH   6  25
ATOM     25  O   UNL     1       2.529   6.250  20.710  0.00  0.00    +0.000 OA
BRANCH  25  26
ATOM     26  C   UNL     1       1.734   7.372  20.703  0.00  0.00    +0.000 A 
ATOM     27  C   UNL     1       0.818   7.672  21.713  0.00  0.00    +0.000 A 
ATOM     28  C   UNL     1      -0.074   8.728  21.546  0.00  0.00    +0.000 A 
ATOM     29  C   UNL     1      -0.013   9.525  20.399  0.00  0.00    +0.000 A 
ATOM     30  C   UNL     1       0.935   9.268  19.399  0.00  0.00    +0.000 A 
ATOM     31  C   UNL     1       1.812   8.181  19.562  0.00  0.00    +0.000 A 
BRANCH  30  32
ATOM     32  C   UNL     1       0.990  10.112  18.149  0.00  0.00    +0.000 C 
ATOM     33  F   UNL     1       2.023   9.792  17.320  0.00  0.00    +0.000 F 
ATOM     34  F   UNL     1      -0.141  10.009  17.400  0.00  0.00    +0.000 F 
ATOM     35  F   UNL     1       1.135  11.438  18.431  0.00  0.00    +0.000 F 
ENDBRANCH  30  32
ENDBRANCH  25  26
ENDBRANCH   6  25
TORSDOF 8
ENDMDL
MODEL 5
REMARK VINA RESULT:      -7.6      4.652      9.127
REMARK  Name = 
REMARK  10 active torsions:
REMARK  status: ('A' for Active; 'I' for Inactive)
REMARK    1  A    between atoms: C_1  and  C_2
REMARK    2  A    between atoms: N_4  and  C_5
REMARK    3  A    between atoms: C_6  and  O_7
REMARK    4  A    between atoms: O_7  and  C_8
REMARK    5  A    between atoms: C_12  and  C_13
REMARK    6  A    between atoms: C_18  and  C_19
REMARK    7  A    between atoms: N_21  and  C_22
REMARK    8  A    between atoms: C_22  and  C_23
REMARK    9  A    between atoms: C_26  and  C_27
REMARK   10  A    between atoms: C_27  and  O_29
REMARK                            x       y       z     vdW  Elec       q    Type
REMARK                         _______ _______ _______ _____ _____    ______ ____
ROOT
ATOM      1  C   UNL     1       0.709   9.227  22.940  0.00  0.00    +0.000 C 
ATOM      2  C   UNL     1      -0.194  10.310  22.462  0.00  0.00    +0.000 A 
ATOM      3  N   UNL     1      -1.048  10.871  23.322  0.00  0.00    +0.000 NA
ATOM      4  N   UNL     1      -1.681  11.798  22.597  0.00  0.00    +0.000 N 
ATOM      5  C   UNL     1      -2.661  12.648  23.230  0.00  0.00    +0.000 C 
ATOM      6  C   UNL     1      -1.323  11.817  21.263  0.00  0.00    +0.000 A 
ATOM      7  C   UNL     1      -0.292  10.881  21.152  0.00  0.00    +0.000 A 
ENDROOT
BRANCH   7   8
ATOM      8  C   UNL     1       0.541  10.507  20.009  0.00  0.00    +0.000 C 
ATOM      9  O   UNL     1       0.794  11.300  19.104  0.00  0.00    +0.000 OA
ATOM     10  N   UNL     1       0.997   9.206  20.004  0.00  0.00    +0.000 N 
ATOM     11  H   UNL     1       0.498   8.572  20.608  0.00  0.00    +0.000 HD
BRANCH  10  12
ATOM     12  C   UNL     1       1.629   8.592  18.873  0.00  0.00    +0.000 C 
ATOM     13  C   UNL     1       1.293   9.136  17.505  0.00  0.00    +0.000 C 
ATOM     14  C   UNL     1       2.671   9.321  18.042  0.00  0.00    +0.000 C 
BRANCH  12  15
ATOM     15  C   UNL     1       1.972   7.164  19.221  0.00  0.00    +0.000 A 
ATOM     16  C   UNL     1       2.219   6.207  18.231  0.00  0.00    +0.000 A 
ATOM     17  C   UNL     1       2.147   4.846  18.529  0.00  0.00    +0.000 A 
ATOM     18  C   UNL     1       1.828   4.426  19.827  0.00  0.00    +0.000 A 
ATOM     19  C   UNL     1       1.704   5.363  20.854  0.00  0.00    +0.000 A 
ATOM     20  C   UNL     1       1.784   6.718  20.548  0.00  0.00    +0.000 A 
BRANCH  18  21
ATOM     21  C   UNL     1       1.600   2.986  20.065  0.00  0.00    +0.000 C 
ATOM     22  O   UNL     1       1.945   2.116  19.278  0.00  0.00    +0.000 OA
BRANCH  21  23
ATOM     23  O   UNL     1       0.913   2.718  21.200  0.00  0.00    +0.000 OA
ATOM     24  H   UNL     1       0.332   1.937  21.152  0.00  0.00    +0.000 HD
ENDBRANCH  21  23
ENDBRANCH  18  21
ENDBRANCH  12  15
ENDBRANCH  10  12
ENDBRANCH   7   8
BRANCH   6  25
ATOM     25  O   UNL     1      -1.940  12.688  20.454  0.00  0.00    +0.000 OA
BRANCH  25  26
ATOM     26  C   UNL     1      -2.993  12.341  19.639  0.00  0.00    +0.000 A 
ATOM     27  C   UNL     1      -4.330  12.447  20.024  0.00  0.00    +0.000 A 
ATOM     28  C   UNL     1      -5.328  11.910  19.214  0.00  0.00    +0.000 A 
ATOM     29  C   UNL     1      -4.999  11.323  17.989  0.00  0.00    +0.000 A 
ATOM     30  C   UNL     1      -3.664  11.256  17.565  0.00  0.00    +0.000 A 
ATOM     31  C   UNL     1      -2.661  11.772  18.403  0.00  0.00    +0.000 A 
BRANCH  30  32
ATOM     32  C   UNL     1      -3.301  10.602  16.253  0.00  0.00    +0.000 C 
ATOM     33  F   UNL     1      -4.337  10.535  15.373  0.00  0.00    +0.000 F 
ATOM     34  F   UNL     1      -2.297  11.254  15.606  0.00  0.00    +0.000 F 
ATOM     35  F   UNL     1      -2.870   9.320  16.421  0.00  0.00    +0.000 F 
ENDBRANCH  30  32
ENDBRANCH  25  26
ENDBRANCH   6  25
TORSDOF 8
ENDMDL
MODEL 6
REMARK VINA RESULT:      -7.6      0.396      1.140
REMARK  Name = 
REMARK  10 active torsions:
REMARK  status: ('A' for Active; 'I' for Inactive)
REMARK    1  A    between atoms: C_1  and  C_2
REMARK    2  A    between atoms: N_4  and  C_5
REMARK    3  A    between atoms: C_6  and  O_7
REMARK    4  A    between atoms: O_7  and  C_8
REMARK    5  A    between atoms: C_12  and  C_13
REMARK    6  A    between atoms: C_18  and  C_19
REMARK    7  A    between atoms: N_21  and  C_22
REMARK    8  A    between atoms: C_22  and  C_23
REMARK    9  A    between atoms: C_26  and  C_27
REMARK   10  A    between atoms: C_27  and  O_29
REMARK                            x       y       z     vdW  Elec       q    Type
REMARK                         _______ _______ _______ _____ _____    ______ ____
ROOT
ATOM      1  C   UNL     1       1.038   3.142  21.561  0.00  0.00    +0.000 C 
ATOM      2  C   UNL     1       2.430   3.003  21.050  0.00  0.00    +0.000 A 
ATOM      3  N   UNL     1       3.209   2.036  21.541  0.00  0.00    +0.000 NA
ATOM      4  N   UNL     1       4.359   2.170  20.873  0.00  0.00    +0.000 N 
ATOM      5  C   UNL     1       5.435   1.241  21.118  0.00  0.00    +0.000 C 
ATOM      6  C   UNL     1       4.388   3.245  20.006  0.00  0.00    +0.000 A 
ATOM      7  C   UNL     1       3.100   3.784  20.054  0.00  0.00    +0.000 A 
ENDROOT
BRANCH   7   8
ATOM      8  C   UNL     1       2.495   4.884  19.303  0.00  0.00    +0.000 C 
ATOM      9  O   UNL     1       1.793   4.685  18.313  0.00  0.00    +0.000 OA
ATOM     10  N   UNL     1       2.787   6.151  19.762  0.00  0.00    +0.000 N 
ATOM     11  H   UNL     1       3.591   6.215  20.367  0.00  0.00    +0.000 HD
BRANCH  10  12
ATOM     12  C   UNL     1       2.480   7.348  19.035  0.00  0.00    +0.000 C 
ATOM     13  C   UNL     1       3.274   7.628  17.782  0.00  0.00    +0.000 C 
ATOM     14  C   UNL     1       1.823   7.310  17.666  0.00  0.00    +0.000 C 
BRANCH  12  15
ATOM     15  C   UNL     1       1.906   8.366  19.991  0.00  0.00    +0.000 A 
ATOM     16  C   UNL     1       1.434   8.001  21.255  0.00  0.00    +0.000 A 
ATOM     17  C   UNL     1       0.569   8.841  21.958  0.00  0.00    +0.000 A 
ATOM     18  C   UNL     1       0.169  10.062  21.401  0.00  0.00    +0.000 A 
ATOM     19  C   UNL     1       0.729  10.500  20.200  0.00  0.00    +0.000 A 
ATOM     20  C   UNL     1       1.595   9.658  19.509  0.00  0.00    +0.000 A 
BRANCH  18  21
ATOM     21  C   UNL     1      -0.871  10.847  22.098  0.00  0.00    +0.000 C 
ATOM     22  O   UNL     1      -1.517  11.731  21.553  0.00  0.00    +0.000 OA
BRANCH  21  23
ATOM     23  O   UNL     1      -0.997  10.550  23.412  0.00  0.00    +0.000 OA
ATOM     24  H   UNL     1      -1.468   9.717  23.600  0.00  0.00    +0.000 HD
ENDBRANCH  21  23
ENDBRANCH  18  21
ENDBRANCH  12  15
ENDBRANCH  10  12
ENDBRANCH   7   8
BRANCH   6  25
ATOM     25  O   UNL     1       5.518   3.480  19.326  0.00  0.00    +0.000 OA
BRANCH  25  26
ATOM     26  C   UNL     1       5.596   4.373  18.283  0.00  0.00    +0.000 A 
ATOM     27  C   UNL     1       4.989   4.164  17.044  0.00  0.00    +0.000 A 
ATOM     28  C   UNL     1       5.262   5.027  15.985  0.00  0.00    +0.000 A 
ATOM     29  C   UNL     1       6.091   6.135  16.178  0.00  0.00    +0.000 A 
ATOM     30  C   UNL     1       6.667   6.388  17.431  0.00  0.00    +0.000 A 
ATOM     31  C   UNL     1       6.411   5.494  18.486  0.00  0.00    +0.000 A 
BRANCH  30  32
ATOM     32  C   UNL     1       7.582   7.571  17.639  0.00  0.00    +0.000 C 
ATOM     33  F   UNL     1       6.919   8.748  17.811  0.00  0.00    +0.000 F 
ATOM     34  F   UNL     1       8.383   7.426  18.728  0.00  0.00    +0.000 F 
ATOM     35  F   UNL     1       8.418   7.765  16.580  0.00  0.00    +0.000 F 
ENDBRANCH  30  32
ENDBRANCH  25  26
ENDBRANCH   6  25
TORSDOF 8
ENDMDL
MODEL 7
REMARK VINA RESULT:      -7.6      6.995     10.858
REMARK  Name = 
REMARK  10 active torsions:
REMARK  status: ('A' for Active; 'I' for Inactive)
REMARK    1  A    between atoms: C_1  and  C_2
REMARK    2  A    between atoms: N_4  and  C_5
REMARK    3  A    between atoms: C_6  and  O_7
REMARK    4  A    between atoms: O_7  and  C_8
REMARK    5  A    between atoms: C_12  and  C_13
REMARK    6  A    between atoms: C_18  and  C_19
REMARK    7  A    between atoms: N_21  and  C_22
REMARK    8  A    between atoms: C_22  and  C_23
REMARK    9  A    between atoms: C_26  and  C_27
REMARK   10  A    between atoms: C_27  and  O_29
REMARK                            x       y       z     vdW  Elec       q    Type
REMARK                         _______ _______ _______ _____ _____    ______ ____
ROOT
ATOM      1  C   UNL     1      -7.326  14.995  19.757  0.00  0.00    +0.000 C 
ATOM      2  C   UNL     1      -6.448  14.727  20.929  0.00  0.00    +0.000 A 
ATOM      3  N   UNL     1      -6.442  15.592  21.948  0.00  0.00    +0.000 NA
ATOM      4  N   UNL     1      -5.584  15.060  22.824  0.00  0.00    +0.000 N 
ATOM      5  C   UNL     1      -5.363  15.717  24.089  0.00  0.00    +0.000 C 
ATOM      6  C   UNL     1      -4.965  13.907  22.382  0.00  0.00    +0.000 A 
ATOM      7  C   UNL     1      -5.562  13.624  21.152  0.00  0.00    +0.000 A 
ENDROOT
BRANCH   7   8
ATOM      8  C   UNL     1      -5.384  12.494  20.239  0.00  0.00    +0.000 C 
ATOM      9  O   UNL     1      -5.894  11.397  20.457  0.00  0.00    +0.000 OA
ATOM     10  N   UNL     1      -4.588  12.736  19.140  0.00  0.00    +0.000 N 
ATOM     11  H   UNL     1      -3.988  13.543  19.212  0.00  0.00    +0.000 HD
BRANCH  10  12
ATOM     12  C   UNL     1      -4.114  11.706  18.262  0.00  0.00    +0.000 C 
ATOM     13  C   UNL     1      -5.132  10.739  17.707  0.00  0.00    +0.000 C 
ATOM     14  C   UNL     1      -4.455  11.692  16.782  0.00  0.00    +0.000 C 
BRANCH  12  15
ATOM     15  C   UNL     1      -2.669  11.412  18.588  0.00  0.00    +0.000 A 
ATOM     16  C   UNL     1      -1.737  12.437  18.774  0.00  0.00    +0.000 A 
ATOM     17  C   UNL     1      -0.369  12.175  18.684  0.00  0.00    +0.000 A 
ATOM     18  C   UNL     1       0.081  10.878  18.408  0.00  0.00    +0.000 A 
ATOM     19  C   UNL     1      -0.828   9.821  18.346  0.00  0.00    +0.000 A 
ATOM     20  C   UNL     1      -2.189  10.091  18.443  0.00  0.00    +0.000 A 
BRANCH  18  21
ATOM     21  C   UNL     1       1.523  10.671  18.158  0.00  0.00    +0.000 C 
ATOM     22  O   UNL     1       2.040   9.564  18.114  0.00  0.00    +0.000 OA
BRANCH  21  23
ATOM     23  O   UNL     1       2.233  11.817  18.052  0.00  0.00    +0.000 OA
ATOM     24  H   UNL     1       1.710  12.634  18.149  0.00  0.00    +0.000 HD
ENDBRANCH  21  23
ENDBRANCH  18  21
ENDBRANCH  12  15
ENDBRANCH  10  12
ENDBRANCH   7   8
BRANCH   6  25
ATOM     25  O   UNL     1      -4.057  13.329  23.180  0.00  0.00    +0.000 OA
BRANCH  25  26
ATOM     26  C   UNL     1      -2.716  13.281  22.881  0.00  0.00    +0.000 A 
ATOM     27  C   UNL     1      -1.960  14.407  22.552  0.00  0.00    +0.000 A 
ATOM     28  C   UNL     1      -0.655  14.253  22.089  0.00  0.00    +0.000 A 
ATOM     29  C   UNL     1      -0.082  12.981  22.013  0.00  0.00    +0.000 A 
ATOM     30  C   UNL     1      -0.812  11.844  22.389  0.00  0.00    +0.000 A 
ATOM     31  C   UNL     1      -2.138  12.006  22.826  0.00  0.00    +0.000 A 
BRANCH  30  32
ATOM     32  C   UNL     1      -0.204  10.465  22.287  0.00  0.00    +0.000 C 
ATOM     33  F   UNL     1      -0.963   9.587  21.575  0.00  0.00    +0.000 F 
ATOM     34  F   UNL     1       1.019  10.477  21.692  0.00  0.00    +0.000 F 
ATOM     35  F   UNL     1      -0.022   9.894  23.511  0.00  0.00    +0.000 F 
ENDBRANCH  30  32
ENDBRANCH  25  26
ENDBRANCH   6  25
TORSDOF 8
ENDMDL
MODEL 8
REMARK VINA RESULT:      -7.5      7.120      9.854
REMARK  Name = 
REMARK  10 active torsions:
REMARK  status: ('A' for Active; 'I' for Inactive)
REMARK    1  A    between atoms: C_1  and  C_2
REMARK    2  A    between atoms: N_4  and  C_5
REMARK    3  A    between atoms: C_6  and  O_7
REMARK    4  A    between atoms: O_7  and  C_8
REMARK    5  A    between atoms: C_12  and  C_13
REMARK    6  A    between atoms: C_18  and  C_19
REMARK    7  A    between atoms: N_21  and  C_22
REMARK    8  A    between atoms: C_22  and  C_23
REMARK    9  A    between atoms: C_26  and  C_27
REMARK   10  A    between atoms: C_27  and  O_29
REMARK                            x       y       z     vdW  Elec       q    Type
REMARK                         _______ _______ _______ _____ _____    ______ ____
ROOT
ATOM      1  C   UNL     1      -6.810  11.239  19.101  0.00  0.00    +0.000 C 
ATOM      2  C   UNL     1      -5.366  11.492  18.838  0.00  0.00    +0.000 A 
ATOM      3  N   UNL     1      -4.802  10.963  17.748  0.00  0.00    +0.000 NA
ATOM      4  N   UNL     1      -3.536  11.387  17.797  0.00  0.00    +0.000 N 
ATOM      5  C   UNL     1      -2.629  11.040  16.729  0.00  0.00    +0.000 C 
ATOM      6  C   UNL     1      -3.226  12.121  18.925  0.00  0.00    +0.000 A 
ATOM      7  C   UNL     1      -4.436  12.261  19.609  0.00  0.00    +0.000 A 
ENDROOT
BRANCH   7   8
ATOM      8  C   UNL     1      -4.766  12.997  20.830  0.00  0.00    +0.000 C 
ATOM      9  O   UNL     1      -5.334  14.087  20.796  0.00  0.00    +0.000 OA
ATOM     10  N   UNL     1      -4.374  12.401  22.009  0.00  0.00    +0.000 N 
ATOM     11  H   UNL     1      -3.668  11.688  21.918  0.00  0.00    +0.000 HD
BRANCH  10  12
ATOM     12  C   UNL     1      -4.403  13.064  23.280  0.00  0.00    +0.000 C 
ATOM     13  C   UNL     1      -5.753  13.312  23.909  0.00  0.00    +0.000 C 
ATOM     14  C   UNL     1      -4.818  12.345  24.552  0.00  0.00    +0.000 C 
BRANCH  12  15
ATOM     15  C   UNL     1      -3.172  13.929  23.408  0.00  0.00    +0.000 A 
ATOM     16  C   UNL     1      -3.242  15.323  23.318  0.00  0.00    +0.000 A 
ATOM     17  C   UNL     1      -2.098  16.073  23.046  0.00  0.00    +0.000 A 
ATOM     18  C   UNL     1      -0.865  15.435  22.864  0.00  0.00    +0.000 A 
ATOM     19  C   UNL     1      -0.752  14.060  23.074  0.00  0.00    +0.000 A 
ATOM     20  C   UNL     1      -1.898  13.320  23.351  0.00  0.00    +0.000 A 
BRANCH  18  21
ATOM     21  C   UNL     1       0.288  16.243  22.417  0.00  0.00    +0.000 C 
ATOM     22  O   UNL     1       0.197  17.130  21.579  0.00  0.00    +0.000 OA
BRANCH  21  23
ATOM     23  O   UNL     1       1.467  15.869  22.965  0.00  0.00    +0.000 OA
ATOM     24  H   UNL     1       1.404  15.155  23.625  0.00  0.00    +0.000 HD
ENDBRANCH  21  23
ENDBRANCH  18  21
ENDBRANCH  12  15
ENDBRANCH  10  12
ENDBRANCH   7   8
BRANCH   6  25
ATOM     25  O   UNL     1      -1.967  12.550  19.077  0.00  0.00    +0.000 OA
BRANCH  25  26
ATOM     26  C   UNL     1      -0.951  11.751  19.548  0.00  0.00    +0.000 A 
ATOM     27  C   UNL     1       0.187  11.436  18.805  0.00  0.00    +0.000 A 
ATOM     28  C   UNL     1       1.081  10.480  19.281  0.00  0.00    +0.000 A 
ATOM     29  C   UNL     1       0.874   9.884  20.528  0.00  0.00    +0.000 A 
ATOM     30  C   UNL     1      -0.238  10.228  21.310  0.00  0.00    +0.000 A 
ATOM     31  C   UNL     1      -1.151  11.171  20.807  0.00  0.00    +0.000 A 
BRANCH  30  32
ATOM     32  C   UNL     1      -0.478   9.570  22.647  0.00  0.00    +0.000 C 
ATOM     33  F   UNL     1      -0.920   8.285  22.550  0.00  0.00    +0.000 F 
ATOM     34  F   UNL     1       0.644   9.526  23.415  0.00  0.00    +0.000 F 
ATOM     35  F   UNL     1      -1.413  10.232  23.384  0.00  0.00    +0.000 F 
ENDBRANCH  30  32
ENDBRANCH  25  26
ENDBRANCH   6  25
TORSDOF 8
ENDMDL
MODEL 9
REMARK VINA RESULT:      -7.4      1.848      2.415
REMARK  Name = 
REMARK  10 active torsions:
REMARK  status: ('A' for Active; 'I' for Inactive)
REMARK    1  A    between atoms: C_1  and  C_2
REMARK    2  A    between atoms: N_4  and  C_5
REMARK    3  A    between atoms: C_6  and  O_7
REMARK    4  A    between atoms: O_7  and  C_8
REMARK    5  A    between atoms: C_12  and  C_13
REMARK    6  A    between atoms: C_18  and  C_19
REMARK    7  A    between atoms: N_21  and  C_22
REMARK    8  A    between atoms: C_22  and  C_23
REMARK    9  A    between atoms: C_26  and  C_27
REMARK   10  A    between atoms: C_27  and  O_29
REMARK                            x       y       z     vdW  Elec       q    Type
REMARK                         _______ _______ _______ _____ _____    ______ ____
ROOT
ATOM      1  C   UNL     1       0.699   3.270  18.981  0.00  0.00    +0.000 C 
ATOM      2  C   UNL     1       2.144   3.324  19.335  0.00  0.00    +0.000 A 
ATOM      3  N   UNL     1       2.714   2.257  19.903  0.00  0.00    +0.000 NA
ATOM      4  N   UNL     1       3.990   2.618  20.069  0.00  0.00    +0.000 N 
ATOM      5  C   UNL     1       4.929   1.672  20.624  0.00  0.00    +0.000 C 
ATOM      6  C   UNL     1       4.265   3.919  19.695  0.00  0.00    +0.000 A 
ATOM      7  C   UNL     1       3.074   4.397  19.146  0.00  0.00    +0.000 A 
ENDROOT
BRANCH   7   8
ATOM      8  C   UNL     1       2.759   5.677  18.510  0.00  0.00    +0.000 C 
ATOM      9  O   UNL     1       3.024   5.896  17.329  0.00  0.00    +0.000 OA
ATOM     10  N   UNL     1       2.175   6.621  19.327  0.00  0.00    +0.000 N 
ATOM     11  H   UNL     1       2.281   6.459  20.316  0.00  0.00    +0.000 HD
BRANCH  10  12
ATOM     12  C   UNL     1       2.004   7.995  18.954  0.00  0.00    +0.000 C 
ATOM     13  C   UNL     1       2.810   8.507  17.785  0.00  0.00    +0.000 C 
ATOM     14  C   UNL     1       1.330   8.395  17.652  0.00  0.00    +0.000 C 
BRANCH  12  15
ATOM     15  C   UNL     1       1.568   8.780  20.167  0.00  0.00    +0.000 A 
ATOM     16  C   UNL     1       0.952   8.161  21.259  0.00  0.00    +0.000 A 
ATOM     17  C   UNL     1       0.215   8.912  22.176  0.00  0.00    +0.000 A 
ATOM     18  C   UNL     1       0.090  10.297  22.010  0.00  0.00    +0.000 A 
ATOM     19  C   UNL     1       0.800  10.948  21.001  0.00  0.00    +0.000 A 
ATOM     20  C   UNL     1       1.538  10.191  20.095  0.00  0.00    +0.000 A 
BRANCH  18  21
ATOM     21  C   UNL     1      -0.830  11.033  22.903  0.00  0.00    +0.000 C 
ATOM     22  O   UNL     1      -0.745  12.236  23.103  0.00  0.00    +0.000 OA
BRANCH  21  23
ATOM     23  O   UNL     1      -1.731  10.246  23.535  0.00  0.00    +0.000 OA
ATOM     24  H   UNL     1      -1.407   9.355  23.763  0.00  0.00    +0.000 HD
ENDBRANCH  21  23
ENDBRANCH  18  21
ENDBRANCH  12  15
ENDBRANCH  10  12
ENDBRANCH   7   8
BRANCH   6  25
ATOM     25  O   UNL     1       5.512   4.378  19.868  0.00  0.00    +0.000 OA
BRANCH  25  26
ATOM     26  C   UNL     1       6.246   4.959  18.860  0.00  0.00    +0.000 A 
ATOM     27  C   UNL     1       7.098   6.046  19.058  0.00  0.00    +0.000 A 
ATOM     28  C   UNL     1       7.666   6.688  17.960  0.00  0.00    +0.000 A 
ATOM     29  C   UNL     1       7.435   6.208  16.668  0.00  0.00    +0.000 A 
ATOM     30  C   UNL     1       6.622   5.085  16.457  0.00  0.00    +0.000 A 
ATOM     31  C   UNL     1       6.028   4.462  17.568  0.00  0.00    +0.000 A 
BRANCH  30  32
ATOM     32  C   UNL     1       6.351   4.577  15.061  0.00  0.00    +0.000 C 
ATOM     33  F   UNL     1       7.351   4.849  14.178  0.00  0.00    +0.000 F 
ATOM     34  F   UNL     1       6.170   3.229  15.024  0.00  0.00    +0.000 F 
ATOM     35  F   UNL     1       5.223   5.123  14.527  0.00  0.00    +0.000 F 
ENDBRANCH  30  32
ENDBRANCH  25  26
ENDBRANCH   6  25
TORSDOF 8
ENDMDL
