MODEL 1
REMARK VINA RESULT:      -7.7      0.000      0.000
REMARK  Name = 
REMARK  8 active torsions:
REMARK  status: ('A' for Active; 'I' for Inactive)
REMARK    1  A    between atoms: C_1  and  C_2
REMARK    2  A    between atoms: C_2  and  C_3
REMARK    3  A    between atoms: C_3  and  N_4
REMARK    4  A    between atoms: C_3  and  C_25
REMARK    5  A    between atoms: C_5  and  C_7
REMARK    6  A    between atoms: C_8  and  S_9
REMARK    7  A    between atoms: S_9  and  C_10
REMARK    8  A    between atoms: C_11  and  C_12
REMARK                            x       y       z     vdW  Elec       q    Type
REMARK                         _______ _______ _______ _____ _____    ______ ____
ROOT
ATOM      1  C   UNL     1      -2.312  11.877  19.335  0.00  0.00    +0.000 A 
ATOM      2  C   UNL     1      -3.185  12.490  20.278  0.00  0.00    +0.000 A 
ATOM      3  C   UNL     1      -4.534  12.645  19.887  0.00  0.00    +0.000 A 
ATOM      4  N   UNL     1      -4.958  12.277  18.640  0.00  0.00    +0.000 NA
ATOM      5  C   UNL     1      -4.129  11.688  17.770  0.00  0.00    +0.000 A 
ATOM      6  C   UNL     1      -4.658  11.273  16.550  0.00  0.00    +0.000 A 
ATOM      7  C   UNL     1      -3.883  10.638  15.579  0.00  0.00    +0.000 A 
ATOM      8  C   UNL     1      -2.553  10.373  15.833  0.00  0.00    +0.000 A 
ATOM      9  C   UNL     1      -2.019  10.749  17.063  0.00  0.00    +0.000 A 
ATOM     10  C   UNL     1      -2.780  11.444  18.054  0.00  0.00    +0.000 A 
ENDROOT
BRANCH   3  11
ATOM     11  C   UNL     1      -5.676  13.097  20.747  0.00  0.00    +0.000 A 
ATOM     12  C   UNL     1      -5.916  14.434  21.108  0.00  0.00    +0.000 A 
ATOM     13  C   UNL     1      -6.914  14.786  22.030  0.00  0.00    +0.000 A 
ATOM     14  C   UNL     1      -7.752  13.814  22.563  0.00  0.00    +0.000 A 
ATOM     15  C   UNL     1      -7.612  12.495  22.152  0.00  0.00    +0.000 A 
ATOM     16  C   UNL     1      -6.589  12.147  21.260  0.00  0.00    +0.000 A 
ENDBRANCH   3  11
BRANCH   1  18
ATOM     17  N   UNL     1      -0.717  10.228  20.200  0.00  0.00    +0.000 N 
ATOM     18  C   UNL     1      -0.915  11.512  19.726  0.00  0.00    +0.000 C 
ATOM     19  O   UNL     1      -0.015  12.339  19.669  0.00  0.00    +0.000 OA
ATOM     20  H   UNL     1      -1.482   9.567  20.216  0.00  0.00    +0.000 HD
BRANCH  17  21
ATOM     21  C   UNL     1       0.540   9.847  20.843  0.00  0.00    +0.000 C 
BRANCH  21  22
ATOM     22  C   UNL     1       1.333   8.934  19.923  0.00  0.00    +0.000 A 
ATOM     23  C   UNL     1       1.821   7.712  20.416  0.00  0.00    +0.000 A 
ATOM     24  C   UNL     1       2.468   6.815  19.569  0.00  0.00    +0.000 A 
ATOM     25  C   UNL     1       2.647   7.128  18.223  0.00  0.00    +0.000 A 
ATOM     26  C   UNL     1       2.190   8.345  17.724  0.00  0.00    +0.000 A 
ATOM     27  C   UNL     1       1.540   9.246  18.567  0.00  0.00    +0.000 A 
ENDBRANCH  21  22
BRANCH  21  29
ATOM     28  C   UNL     1      -0.650   9.983  23.111  0.00  0.00    +0.000 C 
ATOM     29  C   UNL     1       0.318   9.196  22.231  0.00  0.00    +0.000 C 
ENDBRANCH  21  29
ENDBRANCH  17  21
ENDBRANCH   1  18
BRANCH   2  30
ATOM     30  S   UNL     1      -2.636  12.911  21.950  0.00  0.00    +0.000 S 
ATOM     31  C   UNL     1      -2.074  14.621  21.720  0.00  0.00    +0.000 C 
ENDBRANCH   2  30
TORSDOF 6
ENDMDL
MODEL 2
REMARK VINA RESULT:      -7.6      0.572      1.050
REMARK  Name = 
REMARK  8 active torsions:
REMARK  status: ('A' for Active; 'I' for Inactive)
REMARK    1  A    between atoms: C_1  and  C_2
REMARK    2  A    between atoms: C_2  and  C_3
REMARK    3  A    between atoms: C_3  and  N_4
REMARK    4  A    between atoms: C_3  and  C_25
REMARK    5  A    between atoms: C_5  and  C_7
REMARK    6  A    between atoms: C_8  and  S_9
REMARK    7  A    between atoms: S_9  and  C_10
REMARK    8  A    between atoms: C_11  and  C_12
REMARK                            x       y       z     vdW  Elec       q    Type
REMARK                         _______ _______ _______ _____ _____    ______ ____
ROOT
ATOM      1  C   UNL     1      -2.026  11.855  19.579  0.00  0.00    +0.000 A 
ATOM      2  C   UNL     1      -2.786  12.468  20.614  0.00  0.00    +0.000 A 
ATOM      3  C   UNL     1      -4.161  12.666  20.360  0.00  0.00    +0.000 A 
ATOM      4  N   UNL     1      -4.715  12.339  19.154  0.00  0.00    +0.000 NA
ATOM      5  C   UNL     1      -3.991  11.750  18.195  0.00  0.00    +0.000 A 
ATOM      6  C   UNL     1      -4.646  11.378  17.024  0.00  0.00    +0.000 A 
ATOM      7  C   UNL     1      -3.988  10.746  15.969  0.00  0.00    +0.000 A 
ATOM      8  C   UNL     1      -2.647  10.441  16.086  0.00  0.00    +0.000 A 
ATOM      9  C   UNL     1      -1.986  10.774  17.265  0.00  0.00    +0.000 A 
ATOM     10  C   UNL     1      -2.627  11.465  18.340  0.00  0.00    +0.000 A 
ENDROOT
BRANCH   3  11
ATOM     11  C   UNL     1      -5.201  13.128  21.337  0.00  0.00    +0.000 A 
ATOM     12  C   UNL     1      -5.192  14.381  21.973  0.00  0.00    +0.000 A 
ATOM     13  C   UNL     1      -6.109  14.707  22.984  0.00  0.00    +0.000 A 
ATOM     14  C   UNL     1      -7.112  13.812  23.339  0.00  0.00    +0.000 A 
ATOM     15  C   UNL     1      -7.215  12.604  22.662  0.00  0.00    +0.000 A 
ATOM     16  C   UNL     1      -6.273  12.271  21.679  0.00  0.00    +0.000 A 
ENDBRANCH   3  11
BRANCH   1  18
ATOM     17  N   UNL     1      -0.406  10.176  20.335  0.00  0.00    +0.000 N 
ATOM     18  C   UNL     1      -0.608  11.445  19.823  0.00  0.00    +0.000 C 
ATOM     19  O   UNL     1       0.312  12.227  19.621  0.00  0.00    +0.000 OA
ATOM     20  H   UNL     1      -1.190   9.552  20.471  0.00  0.00    +0.000 HD
BRANCH  17  21
ATOM     21  C   UNL     1       0.901   9.768  20.846  0.00  0.00    +0.000 C 
BRANCH  21  22
ATOM     22  C   UNL     1       1.487   8.684  19.957  0.00  0.00    +0.000 A 
ATOM     23  C   UNL     1       1.758   8.968  18.608  0.00  0.00    +0.000 A 
ATOM     24  C   UNL     1       2.381   8.023  17.797  0.00  0.00    +0.000 A 
ATOM     25  C   UNL     1       2.734   6.779  18.316  0.00  0.00    +0.000 A 
ATOM     26  C   UNL     1       2.450   6.473  19.645  0.00  0.00    +0.000 A 
ATOM     27  C   UNL     1       1.828   7.416  20.462  0.00  0.00    +0.000 A 
ENDBRANCH  21  22
BRANCH  21  29
ATOM     28  C   UNL     1      -0.557   9.439  22.930  0.00  0.00    +0.000 C 
ATOM     29  C   UNL     1       0.839   9.312  22.326  0.00  0.00    +0.000 C 
ENDBRANCH  21  29
ENDBRANCH  17  21
ENDBRANCH   1  18
BRANCH   2  30
ATOM     30  S   UNL     1      -2.065  12.835  22.234  0.00  0.00    +0.000 S 
ATOM     31  C   UNL     1      -1.421  14.510  21.964  0.00  0.00    +0.000 C 
ENDBRANCH   2  30
TORSDOF 6
ENDMDL
MODEL 3
REMARK VINA RESULT:      -7.3      0.846      1.534
REMARK  Name = 
REMARK  8 active torsions:
REMARK  status: ('A' for Active; 'I' for Inactive)
REMARK    1  A    between atoms: C_1  and  C_2
REMARK    2  A    between atoms: C_2  and  C_3
REMARK    3  A    between atoms: C_3  and  N_4
REMARK    4  A    between atoms: C_3  and  C_25
REMARK    5  A    between atoms: C_5  and  C_7
REMARK    6  A    between atoms: C_8  and  S_9
REMARK    7  A    between atoms: S_9  and  C_10
REMARK    8  A    between atoms: C_11  and  C_12
REMARK                            x       y       z     vdW  Elec       q    Type
REMARK                         _______ _______ _______ _____ _____    ______ ____
ROOT
ATOM      1  C   UNL     1      -1.846  11.786  19.403  0.00  0.00    +0.000 A 
ATOM      2  C   UNL     1      -2.535  12.557  20.381  0.00  0.00    +0.000 A 
ATOM      3  C   UNL     1      -3.908  12.797  20.149  0.00  0.00    +0.000 A 
ATOM      4  N   UNL     1      -4.522  12.358  19.008  0.00  0.00    +0.000 NA
ATOM      5  C   UNL     1      -3.864  11.622  18.105  0.00  0.00    +0.000 A 
ATOM      6  C   UNL     1      -4.581  11.149  17.009  0.00  0.00    +0.000 A 
ATOM      7  C   UNL     1      -3.995  10.362  16.017  0.00  0.00    +0.000 A 
ATOM      8  C   UNL     1      -2.667  10.003  16.127  0.00  0.00    +0.000 A 
ATOM      9  C   UNL     1      -1.947  10.437  17.236  0.00  0.00    +0.000 A 
ATOM     10  C   UNL     1      -2.512  11.284  18.240  0.00  0.00    +0.000 A 
ENDROOT
BRANCH   3  11
ATOM     11  C   UNL     1      -4.886  13.425  21.096  0.00  0.00    +0.000 A 
ATOM     12  C   UNL     1      -5.881  12.719  21.793  0.00  0.00    +0.000 A 
ATOM     13  C   UNL     1      -6.859  13.374  22.556  0.00  0.00    +0.000 A 
ATOM     14  C   UNL     1      -6.826  14.756  22.705  0.00  0.00    +0.000 A 
ATOM     15  C   UNL     1      -5.798  15.478  22.114  0.00  0.00    +0.000 A 
ATOM     16  C   UNL     1      -4.846  14.820  21.324  0.00  0.00    +0.000 A 
ENDBRANCH   3  11
BRANCH   1  18
ATOM     17  N   UNL     1      -0.282  10.097  20.248  0.00  0.00    +0.000 N 
ATOM     18  C   UNL     1      -0.442  11.333  19.649  0.00  0.00    +0.000 C 
ATOM     19  O   UNL     1       0.506  12.058  19.374  0.00  0.00    +0.000 OA
ATOM     20  H   UNL     1      -1.088   9.519  20.445  0.00  0.00    +0.000 HD
BRANCH  17  21
ATOM     21  C   UNL     1       1.018   9.670  20.763  0.00  0.00    +0.000 C 
BRANCH  21  22
ATOM     22  C   UNL     1       1.585   8.569  19.883  0.00  0.00    +0.000 A 
ATOM     23  C   UNL     1       1.901   8.850  18.543  0.00  0.00    +0.000 A 
ATOM     24  C   UNL     1       2.508   7.885  17.743  0.00  0.00    +0.000 A 
ATOM     25  C   UNL     1       2.800   6.626  18.262  0.00  0.00    +0.000 A 
ATOM     26  C   UNL     1       2.472   6.324  19.582  0.00  0.00    +0.000 A 
ATOM     27  C   UNL     1       1.865   7.286  20.388  0.00  0.00    +0.000 A 
ENDBRANCH  21  22
BRANCH  21  29
ATOM     28  C   UNL     1      -0.483   9.086  22.759  0.00  0.00    +0.000 C 
ATOM     29  C   UNL     1       0.948   9.227  22.246  0.00  0.00    +0.000 C 
ENDBRANCH  21  29
ENDBRANCH  17  21
ENDBRANCH   1  18
BRANCH   2  30
ATOM     30  S   UNL     1      -1.736  13.075  21.920  0.00  0.00    +0.000 S 
ATOM     31  C   UNL     1      -2.527  11.966  23.120  0.00  0.00    +0.000 C 
ENDBRANCH   2  30
TORSDOF 6
ENDMDL
MODEL 4
REMARK VINA RESULT:      -6.6      5.467      8.399
REMARK  Name = 
REMARK  8 active torsions:
REMARK  status: ('A' for Active; 'I' for Inactive)
REMARK    1  A    between atoms: C_1  and  C_2
REMARK    2  A    between atoms: C_2  and  C_3
REMARK    3  A    between atoms: C_3  and  N_4
REMARK    4  A    between atoms: C_3  and  C_25
REMARK    5  A    between atoms: C_5  and  C_7
REMARK    6  A    between atoms: C_8  and  S_9
REMARK    7  A    between atoms: S_9  and  C_10
REMARK    8  A    between atoms: C_11  and  C_12
REMARK                            x       y       z     vdW  Elec       q    Type
REMARK                         _______ _______ _______ _____ _____    ______ ____
ROOT
ATOM      1  C   UNL     1       1.364  15.584  19.560  0.00  0.00    +0.000 A 
ATOM      2  C   UNL     1       2.756  15.287  19.550  0.00  0.00    +0.000 A 
ATOM      3  C   UNL     1       3.554  16.013  18.638  0.00  0.00    +0.000 A 
ATOM      4  N   UNL     1       2.999  16.910  17.768  0.00  0.00    +0.000 NA
ATOM      5  C   UNL     1       1.691  17.189  17.798  0.00  0.00    +0.000 A 
ATOM      6  C   UNL     1       1.217  18.171  16.931  0.00  0.00    +0.000 A 
ATOM      7  C   UNL     1      -0.126  18.546  16.892  0.00  0.00    +0.000 A 
ATOM      8  C   UNL     1      -1.024  17.958  17.759  0.00  0.00    +0.000 A 
ATOM      9  C   UNL     1      -0.559  17.002  18.657  0.00  0.00    +0.000 A 
ATOM     10  C   UNL     1       0.803  16.565  18.683  0.00  0.00    +0.000 A 
ENDROOT
BRANCH   3  11
ATOM     11  C   UNL     1       5.051  16.013  18.551  0.00  0.00    +0.000 A 
ATOM     12  C   UNL     1       5.874  17.042  19.039  0.00  0.00    +0.000 A 
ATOM     13  C   UNL     1       7.258  17.059  18.806  0.00  0.00    +0.000 A 
ATOM     14  C   UNL     1       7.871  16.005  18.138  0.00  0.00    +0.000 A 
ATOM     15  C   UNL     1       7.105  14.921  17.731  0.00  0.00    +0.000 A 
ATOM     16  C   UNL     1       5.719  14.929  17.935  0.00  0.00    +0.000 A 
ENDBRANCH   3  11
BRANCH   1  18
ATOM     17  N   UNL     1      -0.152  13.803  20.298  0.00  0.00    +0.000 N 
ATOM     18  C   UNL     1       0.474  14.997  20.608  0.00  0.00    +0.000 C 
ATOM     19  O   UNL     1       0.281  15.585  21.665  0.00  0.00    +0.000 OA
ATOM     20  H   UNL     1       0.047  13.338  19.422  0.00  0.00    +0.000 HD
BRANCH  17  21
ATOM     21  C   UNL     1      -1.229  13.276  21.133  0.00  0.00    +0.000 C 
BRANCH  21  22
ATOM     22  C   UNL     1      -0.940  11.827  21.492  0.00  0.00    +0.000 A 
ATOM     23  C   UNL     1      -0.494  10.944  20.494  0.00  0.00    +0.000 A 
ATOM     24  C   UNL     1      -0.133   9.638  20.815  0.00  0.00    +0.000 A 
ATOM     25  C   UNL     1      -0.221   9.190  22.132  0.00  0.00    +0.000 A 
ATOM     26  C   UNL     1      -0.684  10.046  23.129  0.00  0.00    +0.000 A 
ATOM     27  C   UNL     1      -1.045  11.356  22.813  0.00  0.00    +0.000 A 
ENDBRANCH  21  22
BRANCH  21  29
ATOM     28  C   UNL     1      -3.757  13.522  21.481  0.00  0.00    +0.000 C 
ATOM     29  C   UNL     1      -2.620  13.426  20.468  0.00  0.00    +0.000 C 
ENDBRANCH  21  29
ENDBRANCH  17  21
ENDBRANCH   1  18
BRANCH   2  30
ATOM     30  S   UNL     1       3.496  14.152  20.751  0.00  0.00    +0.000 S 
ATOM     31  C   UNL     1       3.902  15.286  22.108  0.00  0.00    +0.000 C 
ENDBRANCH   2  30
TORSDOF 6
ENDMDL
MODEL 5
REMARK VINA RESULT:      -6.5      5.702      8.553
REMARK  Name = 
REMARK  8 active torsions:
REMARK  status: ('A' for Active; 'I' for Inactive)
REMARK    1  A    between atoms: C_1  and  C_2
REMARK    2  A    between atoms: C_2  and  C_3
REMARK    3  A    between atoms: C_3  and  N_4
REMARK    4  A    between atoms: C_3  and  C_25
REMARK    5  A    between atoms: C_5  and  C_7
REMARK    6  A    between atoms: C_8  and  S_9
REMARK    7  A    between atoms: S_9  and  C_10
REMARK    8  A    between atoms: C_11  and  C_12
REMARK                            x       y       z     vdW  Elec       q    Type
REMARK                         _______ _______ _______ _____ _____    ______ ____
ROOT
ATOM      1  C   UNL     1       1.721  15.613  19.619  0.00  0.00    +0.000 A 
ATOM      2  C   UNL     1       3.128  15.401  19.650  0.00  0.00    +0.000 A 
ATOM      3  C   UNL     1       3.902  16.139  18.727  0.00  0.00    +0.000 A 
ATOM      4  N   UNL     1       3.315  16.968  17.812  0.00  0.00    +0.000 NA
ATOM      5  C   UNL     1       1.993  17.169  17.804  0.00  0.00    +0.000 A 
ATOM      6  C   UNL     1       1.482  18.087  16.891  0.00  0.00    +0.000 A 
ATOM      7  C   UNL     1       0.120  18.380  16.809  0.00  0.00    +0.000 A 
ATOM      8  C   UNL     1      -0.762  17.771  17.679  0.00  0.00    +0.000 A 
ATOM      9  C   UNL     1      -0.261  16.878  18.623  0.00  0.00    +0.000 A 
ATOM     10  C   UNL     1       1.123  16.526  18.694  0.00  0.00    +0.000 A 
ENDROOT
BRANCH   3  11
ATOM     11  C   UNL     1       5.398  16.226  18.672  0.00  0.00    +0.000 A 
ATOM     12  C   UNL     1       6.155  17.264  19.242  0.00  0.00    +0.000 A 
ATOM     13  C   UNL     1       7.539  17.371  19.039  0.00  0.00    +0.000 A 
ATOM     14  C   UNL     1       8.221  16.398  18.319  0.00  0.00    +0.000 A 
ATOM     15  C   UNL     1       7.524  15.303  17.826  0.00  0.00    +0.000 A 
ATOM     16  C   UNL     1       6.136  15.222  18.002  0.00  0.00    +0.000 A 
ENDBRANCH   3  11
BRANCH   1  18
ATOM     17  N   UNL     1       0.267  13.790  20.377  0.00  0.00    +0.000 N 
ATOM     18  C   UNL     1       0.843  15.013  20.670  0.00  0.00    +0.000 C 
ATOM     19  O   UNL     1       0.617  15.613  21.713  0.00  0.00    +0.000 OA
ATOM     20  H   UNL     1       0.492  13.316  19.513  0.00  0.00    +0.000 HD
BRANCH  17  21
ATOM     21  C   UNL     1      -0.798  13.237  21.213  0.00  0.00    +0.000 C 
BRANCH  21  22
ATOM     22  C   UNL     1      -0.387  11.870  21.733  0.00  0.00    +0.000 A 
ATOM     23  C   UNL     1      -1.098  11.294  22.799  0.00  0.00    +0.000 A 
ATOM     24  C   UNL     1      -0.803  10.003  23.231  0.00  0.00    +0.000 A 
ATOM     25  C   UNL     1       0.211   9.273  22.614  0.00  0.00    +0.000 A 
ATOM     26  C   UNL     1       0.941   9.839  21.572  0.00  0.00    +0.000 A 
ATOM     27  C   UNL     1       0.649  11.130  21.134  0.00  0.00    +0.000 A 
ENDBRANCH  21  22
BRANCH  21  29
ATOM     28  C   UNL     1      -2.127  12.261  19.249  0.00  0.00    +0.000 C 
ATOM     29  C   UNL     1      -2.157  13.175  20.472  0.00  0.00    +0.000 C 
ENDBRANCH  21  29
ENDBRANCH  17  21
ENDBRANCH   1  18
BRANCH   2  30
ATOM     30  S   UNL     1       3.906  14.357  20.908  0.00  0.00    +0.000 S 
ATOM     31  C   UNL     1       4.241  15.569  22.217  0.00  0.00    +0.000 C 
ENDBRANCH   2  30
TORSDOF 6
ENDMDL
MODEL 6
REMARK VINA RESULT:      -6.4      5.550      8.440
REMARK  Name = 
REMARK  8 active torsions:
REMARK  status: ('A' for Active; 'I' for Inactive)
REMARK    1  A    between atoms: C_1  and  C_2
REMARK    2  A    between atoms: C_2  and  C_3
REMARK    3  A    between atoms: C_3  and  N_4
REMARK    4  A    between atoms: C_3  and  C_25
REMARK    5  A    between atoms: C_5  and  C_7
REMARK    6  A    between atoms: C_8  and  S_9
REMARK    7  A    between atoms: S_9  and  C_10
REMARK    8  A    between atoms: C_11  and  C_12
REMARK                            x       y       z     vdW  Elec       q    Type
REMARK                         _______ _______ _______ _____ _____    ______ ____
ROOT
ATOM      1  C   UNL     1       1.424  15.673  19.497  0.00  0.00    +0.000 A 
ATOM      2  C   UNL     1       2.816  15.375  19.482  0.00  0.00    +0.000 A 
ATOM      3  C   UNL     1       3.610  16.099  18.564  0.00  0.00    +0.000 A 
ATOM      4  N   UNL     1       3.052  16.994  17.694  0.00  0.00    +0.000 NA
ATOM      5  C   UNL     1       1.744  17.273  17.730  0.00  0.00    +0.000 A 
ATOM      6  C   UNL     1       1.267  18.253  16.863  0.00  0.00    +0.000 A 
ATOM      7  C   UNL     1      -0.076  18.629  16.828  0.00  0.00    +0.000 A 
ATOM      8  C   UNL     1      -0.971  18.043  17.701  0.00  0.00    +0.000 A 
ATOM      9  C   UNL     1      -0.502  17.089  18.599  0.00  0.00    +0.000 A 
ATOM     10  C   UNL     1       0.859  16.652  18.620  0.00  0.00    +0.000 A 
ENDROOT
BRANCH   3  11
ATOM     11  C   UNL     1       5.107  16.097  18.471  0.00  0.00    +0.000 A 
ATOM     12  C   UNL     1       5.864  15.073  17.878  0.00  0.00    +0.000 A 
ATOM     13  C   UNL     1       7.266  15.053  17.943  0.00  0.00    +0.000 A 
ATOM     14  C   UNL     1       7.956  16.100  18.542  0.00  0.00    +0.000 A 
ATOM     15  C   UNL     1       7.246  17.180  19.050  0.00  0.00    +0.000 A 
ATOM     16  C   UNL     1       5.846  17.175  19.013  0.00  0.00    +0.000 A 
ENDBRANCH   3  11
BRANCH   1  18
ATOM     17  N   UNL     1       0.032  13.825  20.310  0.00  0.00    +0.000 N 
ATOM     18  C   UNL     1       0.538  15.089  20.551  0.00  0.00    +0.000 C 
ATOM     19  O   UNL     1       0.245  15.735  21.549  0.00  0.00    +0.000 OA
ATOM     20  H   UNL     1       0.311  13.314  19.482  0.00  0.00    +0.000 HD
BRANCH  17  21
ATOM     21  C   UNL     1      -1.034  13.267  21.139  0.00  0.00    +0.000 C 
BRANCH  21  22
ATOM     22  C   UNL     1      -0.730  11.814  21.462  0.00  0.00    +0.000 A 
ATOM     23  C   UNL     1      -0.831  11.365  22.789  0.00  0.00    +0.000 A 
ATOM     24  C   UNL     1      -0.650  10.018  23.096  0.00  0.00    +0.000 A 
ATOM     25  C   UNL     1      -0.355   9.103  22.087  0.00  0.00    +0.000 A 
ATOM     26  C   UNL     1      -0.229   9.537  20.770  0.00  0.00    +0.000 A 
ATOM     27  C   UNL     1      -0.411  10.883  20.456  0.00  0.00    +0.000 A 
ENDBRANCH  21  22
BRANCH  21  29
ATOM     28  C   UNL     1      -3.552  12.816  21.329  0.00  0.00    +0.000 C 
ATOM     29  C   UNL     1      -2.431  13.420  20.486  0.00  0.00    +0.000 C 
ENDBRANCH  21  29
ENDBRANCH  17  21
ENDBRANCH   1  18
BRANCH   2  30
ATOM     30  S   UNL     1       3.560  14.243  20.682  0.00  0.00    +0.000 S 
ATOM     31  C   UNL     1       3.933  15.373  22.053  0.00  0.00    +0.000 C 
ENDBRANCH   2  30
TORSDOF 6
ENDMDL
MODEL 7
REMARK VINA RESULT:      -6.4      4.490     10.660
REMARK  Name = 
REMARK  8 active torsions:
REMARK  status: ('A' for Active; 'I' for Inactive)
REMARK    1  A    between atoms: C_1  and  C_2
REMARK    2  A    between atoms: C_2  and  C_3
REMARK    3  A    between atoms: C_3  and  N_4
REMARK    4  A    between atoms: C_3  and  C_25
REMARK    5  A    between atoms: C_5  and  C_7
REMARK    6  A    between atoms: C_8  and  S_9
REMARK    7  A    between atoms: S_9  and  C_10
REMARK    8  A    between atoms: C_11  and  C_12
REMARK                            x       y       z     vdW  Elec       q    Type
REMARK                         _______ _______ _______ _____ _____    ______ ____
ROOT
ATOM      1  C   UNL     1       3.070   5.855  18.301  0.00  0.00    +0.000 A 
ATOM      2  C   UNL     1       4.112   5.905  17.334  0.00  0.00    +0.000 A 
ATOM      3  C   UNL     1       4.440   4.691  16.689  0.00  0.00    +0.000 A 
ATOM      4  N   UNL     1       3.823   3.519  17.028  0.00  0.00    +0.000 NA
ATOM      5  C   UNL     1       2.835   3.489  17.929  0.00  0.00    +0.000 A 
ATOM      6  C   UNL     1       2.206   2.269  18.162  0.00  0.00    +0.000 A 
ATOM      7  C   UNL     1       1.157   2.131  19.070  0.00  0.00    +0.000 A 
ATOM      8  C   UNL     1       0.690   3.241  19.747  0.00  0.00    +0.000 A 
ATOM      9  C   UNL     1       1.284   4.475  19.497  0.00  0.00    +0.000 A 
ATOM     10  C   UNL     1       2.393   4.632  18.608  0.00  0.00    +0.000 A 
ENDROOT
BRANCH   3  11
ATOM     11  C   UNL     1       5.369   4.511  15.526  0.00  0.00    +0.000 A 
ATOM     12  C   UNL     1       6.743   4.803  15.555  0.00  0.00    +0.000 A 
ATOM     13  C   UNL     1       7.537   4.750  14.399  0.00  0.00    +0.000 A 
ATOM     14  C   UNL     1       6.993   4.331  13.190  0.00  0.00    +0.000 A 
ATOM     15  C   UNL     1       5.663   3.937  13.144  0.00  0.00    +0.000 A 
ATOM     16  C   UNL     1       4.867   4.027  14.294  0.00  0.00    +0.000 A 
ENDBRANCH   3  11
BRANCH   1  18
ATOM     17  N   UNL     1       2.058   8.071  18.025  0.00  0.00    +0.000 N 
ATOM     18  C   UNL     1       2.536   7.115  18.903  0.00  0.00    +0.000 C 
ATOM     19  O   UNL     1       2.575   7.295  20.113  0.00  0.00    +0.000 OA
ATOM     20  H   UNL     1       2.024   7.879  17.033  0.00  0.00    +0.000 HD
BRANCH  17  21
ATOM     21  C   UNL     1       1.753   9.427  18.478  0.00  0.00    +0.000 C 
BRANCH  21  22
ATOM     22  C   UNL     1       0.261   9.689  18.352  0.00  0.00    +0.000 A 
ATOM     23  C   UNL     1      -0.426  10.300  19.414  0.00  0.00    +0.000 A 
ATOM     24  C   UNL     1      -1.771  10.637  19.286  0.00  0.00    +0.000 A 
ATOM     25  C   UNL     1      -2.453  10.360  18.104  0.00  0.00    +0.000 A 
ATOM     26  C   UNL     1      -1.793   9.732  17.050  0.00  0.00    +0.000 A 
ATOM     27  C   UNL     1      -0.446   9.394  17.171  0.00  0.00    +0.000 A 
ENDBRANCH  21  22
BRANCH  21  29
ATOM     28  C   UNL     1       2.299  11.919  18.216  0.00  0.00    +0.000 C 
ATOM     29  C   UNL     1       2.580  10.500  17.727  0.00  0.00    +0.000 C 
ENDBRANCH  21  29
ENDBRANCH  17  21
ENDBRANCH   1  18
BRANCH   2  30
ATOM     30  S   UNL     1       4.876   7.470  16.838  0.00  0.00    +0.000 S 
ATOM     31  C   UNL     1       6.508   7.331  17.620  0.00  0.00    +0.000 C 
ENDBRANCH   2  30
TORSDOF 6
ENDMDL
MODEL 8
REMARK VINA RESULT:      -6.2      4.696      8.162
REMARK  Name = 
REMARK  8 active torsions:
REMARK  status: ('A' for Active; 'I' for Inactive)
REMARK    1  A    between atoms: C_1  and  C_2
REMARK    2  A    between atoms: C_2  and  C_3
REMARK    3  A    between atoms: C_3  and  N_4
REMARK    4  A    between atoms: C_3  and  C_25
REMARK    5  A    between atoms: C_5  and  C_7
REMARK    6  A    between atoms: C_8  and  S_9
REMARK    7  A    between atoms: S_9  and  C_10
REMARK    8  A    between atoms: C_11  and  C_12
REMARK                            x       y       z     vdW  Elec       q    Type
REMARK                         _______ _______ _______ _____ _____    ______ ____
ROOT
ATOM      1  C   UNL     1       2.889   6.649  18.806  0.00  0.00    +0.000 A 
ATOM      2  C   UNL     1       2.174   7.778  19.296  0.00  0.00    +0.000 A 
ATOM      3  C   UNL     1       1.418   7.589  20.475  0.00  0.00    +0.000 A 
ATOM      4  N   UNL     1       1.333   6.363  21.073  0.00  0.00    +0.000 NA
ATOM      5  C   UNL     1       2.022   5.314  20.609  0.00  0.00    +0.000 A 
ATOM      6  C   UNL     1       1.942   4.120  21.321  0.00  0.00    +0.000 A 
ATOM      7  C   UNL     1       2.632   2.971  20.931  0.00  0.00    +0.000 A 
ATOM      8  C   UNL     1       3.452   3.012  19.822  0.00  0.00    +0.000 A 
ATOM      9  C   UNL     1       3.571   4.209  19.122  0.00  0.00    +0.000 A 
ATOM     10  C   UNL     1       2.838   5.385  19.473  0.00  0.00    +0.000 A 
ENDROOT
BRANCH   3  11
ATOM     11  C   UNL     1       0.723   8.646  21.279  0.00  0.00    +0.000 A 
ATOM     12  C   UNL     1       0.838   8.786  22.673  0.00  0.00    +0.000 A 
ATOM     13  C   UNL     1       0.057   9.702  23.394  0.00  0.00    +0.000 A 
ATOM     14  C   UNL     1      -0.813  10.559  22.730  0.00  0.00    +0.000 A 
ATOM     15  C   UNL     1      -0.879  10.521  21.344  0.00  0.00    +0.000 A 
ATOM     16  C   UNL     1      -0.122   9.579  20.634  0.00  0.00    +0.000 A 
ENDBRANCH   3  11
BRANCH   1  18
ATOM     17  N   UNL     1       5.133   6.316  17.874  0.00  0.00    +0.000 N 
ATOM     18  C   UNL     1       3.853   6.799  17.672  0.00  0.00    +0.000 C 
ATOM     19  O   UNL     1       3.521   7.370  16.641  0.00  0.00    +0.000 OA
ATOM     20  H   UNL     1       5.365   5.834  18.733  0.00  0.00    +0.000 HD
BRANCH  17  21
ATOM     21  C   UNL     1       6.215   6.633  16.945  0.00  0.00    +0.000 C 
BRANCH  21  22
ATOM     22  C   UNL     1       6.282   5.579  15.853  0.00  0.00    +0.000 A 
ATOM     23  C   UNL     1       5.390   4.494  15.885  0.00  0.00    +0.000 A 
ATOM     24  C   UNL     1       5.367   3.565  14.847  0.00  0.00    +0.000 A 
ATOM     25  C   UNL     1       6.239   3.699  13.768  0.00  0.00    +0.000 A 
ATOM     26  C   UNL     1       7.146   4.756  13.733  0.00  0.00    +0.000 A 
ATOM     27  C   UNL     1       7.172   5.689  14.769  0.00  0.00    +0.000 A 
ENDBRANCH  21  22
BRANCH  21  29
ATOM     28  C   UNL     1       7.721   5.886  18.881  0.00  0.00    +0.000 C 
ATOM     29  C   UNL     1       7.580   6.792  17.660  0.00  0.00    +0.000 C 
ENDBRANCH  21  29
ENDBRANCH  17  21
ENDBRANCH   1  18
BRANCH   2  30
ATOM     30  S   UNL     1       2.346   9.414  18.541  0.00  0.00    +0.000 S 
ATOM     31  C   UNL     1       0.824   9.512  17.557  0.00  0.00    +0.000 C 
ENDBRANCH   2  30
TORSDOF 6
ENDMDL
MODEL 9
REMARK VINA RESULT:      -6.2      2.623      3.731
REMARK  Name = 
REMARK  8 active torsions:
REMARK  status: ('A' for Active; 'I' for Inactive)
REMARK    1  A    between atoms: C_1  and  C_2
REMARK    2  A    between atoms: C_2  and  C_3
REMARK    3  A    between atoms: C_3  and  N_4
REMARK    4  A    between atoms: C_3  and  C_25
REMARK    5  A    between atoms: C_5  and  C_7
REMARK    6  A    between atoms: C_8  and  S_9
REMARK    7  A    between atoms: S_9  and  C_10
REMARK    8  A    between atoms: C_11  and  C_12
REMARK                            x       y       z     vdW  Elec       q    Type
REMARK                         _______ _______ _______ _____ _____    ______ ____
ROOT
ATOM      1  C   UNL     1      -2.117  12.041  19.522  0.00  0.00    +0.000 A 
ATOM      2  C   UNL     1      -2.944  12.759  20.430  0.00  0.00    +0.000 A 
ATOM      3  C   UNL     1      -4.318  12.839  20.111  0.00  0.00    +0.000 A 
ATOM      4  N   UNL     1      -4.810  12.303  18.953  0.00  0.00    +0.000 NA
ATOM      5  C   UNL     1      -4.022  11.618  18.116  0.00  0.00    +0.000 A 
ATOM      6  C   UNL     1      -4.615  11.037  16.998  0.00  0.00    +0.000 A 
ATOM      7  C   UNL     1      -3.888  10.292  16.070  0.00  0.00    +0.000 A 
ATOM      8  C   UNL     1      -2.537  10.085  16.269  0.00  0.00    +0.000 A 
ATOM      9  C   UNL     1      -1.938  10.628  17.402  0.00  0.00    +0.000 A 
ATOM     10  C   UNL     1      -2.652  11.435  18.341  0.00  0.00    +0.000 A 
ENDROOT
BRANCH   3  11
ATOM     11  C   UNL     1      -5.415  13.382  20.977  0.00  0.00    +0.000 A 
ATOM     12  C   UNL     1      -6.238  12.597  21.802  0.00  0.00    +0.000 A 
ATOM     13  C   UNL     1      -7.339  13.138  22.483  0.00  0.00    +0.000 A 
ATOM     14  C   UNL     1      -7.607  14.500  22.416  0.00  0.00    +0.000 A 
ATOM     15  C   UNL     1      -6.756  15.325  21.693  0.00  0.00    +0.000 A 
ATOM     16  C   UNL     1      -5.679  14.772  20.987  0.00  0.00    +0.000 A 
ENDBRANCH   3  11
BRANCH   1  18
ATOM     17  N   UNL     1       0.272  12.490  19.198  0.00  0.00    +0.000 N 
ATOM     18  C   UNL     1      -0.690  11.753  19.865  0.00  0.00    +0.000 C 
ATOM     19  O   UNL     1      -0.405  10.870  20.664  0.00  0.00    +0.000 OA
ATOM     20  H   UNL     1      -0.002  13.224  18.558  0.00  0.00    +0.000 HD
BRANCH  17  21
ATOM     21  C   UNL     1       1.685  12.122  19.264  0.00  0.00    +0.000 C 
BRANCH  21  22
ATOM     22  C   UNL     1       2.532  13.365  19.481  0.00  0.00    +0.000 A 
ATOM     23  C   UNL     1       2.972  14.104  18.370  0.00  0.00    +0.000 A 
ATOM     24  C   UNL     1       3.668  15.297  18.545  0.00  0.00    +0.000 A 
ATOM     25  C   UNL     1       3.945  15.766  19.827  0.00  0.00    +0.000 A 
ATOM     26  C   UNL     1       3.536  15.032  20.939  0.00  0.00    +0.000 A 
ATOM     27  C   UNL     1       2.837  13.838  20.770  0.00  0.00    +0.000 A 
ENDBRANCH  21  22
BRANCH  21  29
ATOM     28  C   UNL     1       1.811   9.848  18.085  0.00  0.00    +0.000 C 
ATOM     29  C   UNL     1       2.149  11.335  18.012  0.00  0.00    +0.000 C 
ENDBRANCH  21  29
ENDBRANCH  17  21
ENDBRANCH   1  18
BRANCH   2  30
ATOM     30  S   UNL     1      -2.303  13.406  21.995  0.00  0.00    +0.000 S 
ATOM     31  C   UNL     1      -2.678  12.037  23.125  0.00  0.00    +0.000 C 
ENDBRANCH   2  30
TORSDOF 6
ENDMDL
