MODEL 1
REMARK VINA RESULT:      -6.6      0.000      0.000
REMARK  Name = 
REMARK  5 active torsions:
REMARK  status: ('A' for Active; 'I' for Inactive)
REMARK    1  A    between atoms: C_1  and  N_2
REMARK    2  A    between atoms: N_2  and  C_3
REMARK    3  A    between atoms: N_2  and  C_4
REMARK    4  A    between atoms: N_16  and  S_17
REMARK    5  A    between atoms: S_17  and  C_20
REMARK                            x       y       z     vdW  Elec       q    Type
REMARK                         _______ _______ _______ _____ _____    ______ ____
ROOT
ATOM      1  C   UNL     1       1.370   9.052  19.502  0.00  0.00    +0.000 C 
ATOM      2  C   UNL     1       1.851   9.072  18.021  0.00  0.00    +0.000 C 
ATOM      3  C   UNL     1       3.150   8.262  17.799  0.00  0.00    +0.000 C 
ATOM      4  C   UNL     1       3.064   6.944  18.500  0.00  0.00    +0.000 A 
ATOM      5  C   UNL     1       2.155   6.650  19.493  0.00  0.00    +0.000 A 
ATOM      6  C   UNL     1       2.369   5.317  19.911  0.00  0.00    +0.000 A 
ATOM      7  C   UNL     1       1.705   4.504  20.853  0.00  0.00    +0.000 A 
ATOM      8  C   UNL     1       2.166   3.211  21.081  0.00  0.00    +0.000 A 
ATOM      9 BR   UNL     1       1.265   2.118  22.331  0.00  0.00    +0.000 Br
ATOM     10  C   UNL     1       3.275   2.725  20.402  0.00  0.00    +0.000 A 
ATOM     11  C   UNL     1       3.943   3.512  19.449  0.00  0.00    +0.000 A 
ATOM     12  C   UNL     1       3.471   4.815  19.200  0.00  0.00    +0.000 A 
ATOM     13  N   UNL     1       3.875   5.835  18.340  0.00  0.00    +0.000 N 
ATOM     14  C   UNL     1       1.119   7.599  19.986  0.00  0.00    +0.000 C 
ENDROOT
BRANCH   1  16
ATOM     15  C   UNL     1       0.556  11.135  20.577  0.00  0.00    +0.000 C 
ATOM     16  N   UNL     1       0.229   9.975  19.747  0.00  0.00    +0.000 NA
ATOM     17  C   UNL     1      -0.389  10.421  18.493  0.00  0.00    +0.000 C 
ENDBRANCH   1  16
BRANCH  13  18
ATOM     18  S   UNL     1       5.070   5.680  17.114  0.00  0.00    +0.000 S 
ATOM     19  O   UNL     1       5.427   4.273  17.109  0.00  0.00    +0.000 OA
ATOM     20  O   UNL     1       4.564   6.332  15.922  0.00  0.00    +0.000 OA
BRANCH  18  21
ATOM     21  C   UNL     1       6.480   6.603  17.668  0.00  0.00    +0.000 A 
ATOM     22  C   UNL     1       7.308   6.024  18.640  0.00  0.00    +0.000 A 
ATOM     23  C   UNL     1       8.411   6.729  19.122  0.00  0.00    +0.000 A 
ATOM     24  C   UNL     1       8.690   8.005  18.634  0.00  0.00    +0.000 A 
ATOM     25  C   UNL     1       7.877   8.570  17.649  0.00  0.00    +0.000 A 
ATOM     26  C   UNL     1       6.772   7.871  17.158  0.00  0.00    +0.000 A 
ENDBRANCH  18  21
ENDBRANCH  13  18
TORSDOF 3
ENDMDL
MODEL 2
REMARK VINA RESULT:      -6.5      6.863      9.032
REMARK  Name = 
REMARK  5 active torsions:
REMARK  status: ('A' for Active; 'I' for Inactive)
REMARK    1  A    between atoms: C_1  and  N_2
REMARK    2  A    between atoms: N_2  and  C_3
REMARK    3  A    between atoms: N_2  and  C_4
REMARK    4  A    between atoms: N_16  and  S_17
REMARK    5  A    between atoms: S_17  and  C_20
REMARK                            x       y       z     vdW  Elec       q    Type
REMARK                         _______ _______ _______ _____ _____    ______ ____
ROOT
ATOM      1  C   UNL     1       3.075  14.947  19.242  0.00  0.00    +0.000 C 
ATOM      2  C   UNL     1       2.613  14.019  18.081  0.00  0.00    +0.000 C 
ATOM      3  C   UNL     1       2.134  12.632  18.574  0.00  0.00    +0.000 C 
ATOM      4  C   UNL     1       1.237  12.786  19.761  0.00  0.00    +0.000 A 
ATOM      5  C   UNL     1       1.154  13.927  20.529  0.00  0.00    +0.000 A 
ATOM      6  C   UNL     1       0.204  13.706  21.552  0.00  0.00    +0.000 A 
ATOM      7  C   UNL     1      -0.295  14.540  22.574  0.00  0.00    +0.000 A 
ATOM      8  C   UNL     1      -1.225  14.029  23.476  0.00  0.00    +0.000 A 
ATOM      9 BR   UNL     1      -1.904  15.153  24.834  0.00  0.00    +0.000 Br
ATOM     10  C   UNL     1      -1.651  12.712  23.383  0.00  0.00    +0.000 A 
ATOM     11  C   UNL     1      -1.177  11.868  22.364  0.00  0.00    +0.000 A 
ATOM     12  C   UNL     1      -0.250  12.383  21.438  0.00  0.00    +0.000 A 
ATOM     13  N   UNL     1       0.400  11.843  20.328  0.00  0.00    +0.000 N 
ATOM     14  C   UNL     1       1.930  15.170  20.266  0.00  0.00    +0.000 C 
ENDROOT
BRANCH   1  16
ATOM     15  C   UNL     1       5.158  16.147  18.624  0.00  0.00    +0.000 C 
ATOM     16  N   UNL     1       3.701  16.206  18.755  0.00  0.00    +0.000 NA
ATOM     17  C   UNL     1       3.109  16.654  17.490  0.00  0.00    +0.000 C 
ENDBRANCH   1  16
BRANCH  13  18
ATOM     18  S   UNL     1       0.064  10.307  19.636  0.00  0.00    +0.000 S 
ATOM     19  O   UNL     1       1.225   9.994  18.824  0.00  0.00    +0.000 OA
ATOM     20  O   UNL     1      -0.364   9.427  20.706  0.00  0.00    +0.000 OA
BRANCH  18  21
ATOM     21  C   UNL     1      -1.321  10.537  18.550  0.00  0.00    +0.000 A 
ATOM     22  C   UNL     1      -1.369   9.778  17.374  0.00  0.00    +0.000 A 
ATOM     23  C   UNL     1      -2.427   9.949  16.480  0.00  0.00    +0.000 A 
ATOM     24  C   UNL     1      -3.434  10.871  16.761  0.00  0.00    +0.000 A 
ATOM     25  C   UNL     1      -3.396  11.609  17.946  0.00  0.00    +0.000 A 
ATOM     26  C   UNL     1      -2.342  11.443  18.848  0.00  0.00    +0.000 A 
ENDBRANCH  18  21
ENDBRANCH  13  18
TORSDOF 3
ENDMDL
MODEL 3
REMARK VINA RESULT:      -6.4      0.556      1.096
REMARK  Name = 
REMARK  5 active torsions:
REMARK  status: ('A' for Active; 'I' for Inactive)
REMARK    1  A    between atoms: C_1  and  N_2
REMARK    2  A    between atoms: N_2  and  C_3
REMARK    3  A    between atoms: N_2  and  C_4
REMARK    4  A    between atoms: N_16  and  S_17
REMARK    5  A    between atoms: S_17  and  C_20
REMARK                            x       y       z     vdW  Elec       q    Type
REMARK                         _______ _______ _______ _____ _____    ______ ____
ROOT
ATOM      1  C   UNL     1       1.017   9.275  19.952  0.00  0.00    +0.000 C 
ATOM      2  C   UNL     1       1.373   9.417  18.443  0.00  0.00    +0.000 C 
ATOM      3  C   UNL     1       2.668   8.662  18.057  0.00  0.00    +0.000 C 
ATOM      4  C   UNL     1       2.670   7.295  18.662  0.00  0.00    +0.000 A 
ATOM      5  C   UNL     1       1.853   6.904  19.700  0.00  0.00    +0.000 A 
ATOM      6  C   UNL     1       2.131   5.550  19.999  0.00  0.00    +0.000 A 
ATOM      7  C   UNL     1       1.565   4.653  20.928  0.00  0.00    +0.000 A 
ATOM      8  C   UNL     1       2.074   3.360  21.021  0.00  0.00    +0.000 A 
ATOM      9 BR   UNL     1       1.303   2.153  22.254  0.00  0.00    +0.000 Br
ATOM     10  C   UNL     1       3.134   2.957  20.221  0.00  0.00    +0.000 A 
ATOM     11  C   UNL     1       3.703   3.831  19.279  0.00  0.00    +0.000 A 
ATOM     12  C   UNL     1       3.182   5.134  19.167  0.00  0.00    +0.000 A 
ATOM     13  N   UNL     1       3.491   6.225  18.356  0.00  0.00    +0.000 N 
ATOM     14  C   UNL     1       0.840   7.784  20.344  0.00  0.00    +0.000 C 
ENDROOT
BRANCH   1  16
ATOM     15  C   UNL     1       0.266  11.341  21.104  0.00  0.00    +0.000 C 
ATOM     16  N   UNL     1      -0.121  10.144  20.356  0.00  0.00    +0.000 NA
ATOM     17  C   UNL     1      -0.950  10.526  19.206  0.00  0.00    +0.000 C 
ENDBRANCH   1  16
BRANCH  13  18
ATOM     18  S   UNL     1       4.584   6.193  17.030  0.00  0.00    +0.000 S 
ATOM     19  O   UNL     1       4.697   4.794  16.664  0.00  0.00    +0.000 OA
ATOM     20  O   UNL     1       4.142   7.188  16.072  0.00  0.00    +0.000 OA
BRANCH  18  21
ATOM     21  C   UNL     1       6.154   6.725  17.662  0.00  0.00    +0.000 A 
ATOM     22  C   UNL     1       6.641   7.974  17.254  0.00  0.00    +0.000 A 
ATOM     23  C   UNL     1       7.885   8.417  17.707  0.00  0.00    +0.000 A 
ATOM     24  C   UNL     1       8.638   7.618  18.566  0.00  0.00    +0.000 A 
ATOM     25  C   UNL     1       8.140   6.384  18.990  0.00  0.00    +0.000 A 
ATOM     26  C   UNL     1       6.895   5.934  18.544  0.00  0.00    +0.000 A 
ENDBRANCH  18  21
ENDBRANCH  13  18
TORSDOF 3
ENDMDL
MODEL 4
REMARK VINA RESULT:      -6.3      6.823      9.009
REMARK  Name = 
REMARK  5 active torsions:
REMARK  status: ('A' for Active; 'I' for Inactive)
REMARK    1  A    between atoms: C_1  and  N_2
REMARK    2  A    between atoms: N_2  and  C_3
REMARK    3  A    between atoms: N_2  and  C_4
REMARK    4  A    between atoms: N_16  and  S_17
REMARK    5  A    between atoms: S_17  and  C_20
REMARK                            x       y       z     vdW  Elec       q    Type
REMARK                         _______ _______ _______ _____ _____    ______ ____
ROOT
ATOM      1  C   UNL     1       3.144  14.719  19.338  0.00  0.00    +0.000 C 
ATOM      2  C   UNL     1       2.676  13.793  18.177  0.00  0.00    +0.000 C 
ATOM      3  C   UNL     1       2.142  12.428  18.673  0.00  0.00    +0.000 C 
ATOM      4  C   UNL     1       1.226  12.624  19.839  0.00  0.00    +0.000 A 
ATOM      5  C   UNL     1       1.164  13.774  20.594  0.00  0.00    +0.000 A 
ATOM      6  C   UNL     1       0.187  13.595  21.599  0.00  0.00    +0.000 A 
ATOM      7  C   UNL     1      -0.306  14.455  22.602  0.00  0.00    +0.000 A 
ATOM      8  C   UNL     1      -1.271  13.984  23.488  0.00  0.00    +0.000 A 
ATOM      9 BR   UNL     1      -1.942  15.143  24.821  0.00  0.00    +0.000 Br
ATOM     10  C   UNL     1      -1.737  12.680  23.400  0.00  0.00    +0.000 A 
ATOM     11  C   UNL     1      -1.270  11.810  22.399  0.00  0.00    +0.000 A 
ATOM     12  C   UNL     1      -0.308  12.285  21.488  0.00  0.00    +0.000 A 
ATOM     13  N   UNL     1       0.347  11.714  20.398  0.00  0.00    +0.000 N 
ATOM     14  C   UNL     1       1.986  14.989  20.336  0.00  0.00    +0.000 C 
ENDROOT
BRANCH   1  16
ATOM     15  C   UNL     1       4.013  16.980  19.875  0.00  0.00    +0.000 C 
ATOM     16  N   UNL     1       3.820  15.952  18.852  0.00  0.00    +0.000 NA
ATOM     17  C   UNL     1       5.103  15.649  18.206  0.00  0.00    +0.000 C 
ENDBRANCH   1  16
BRANCH  13  18
ATOM     18  S   UNL     1      -0.024  10.182  19.714  0.00  0.00    +0.000 S 
ATOM     19  O   UNL     1       1.164   9.800  18.972  0.00  0.00    +0.000 OA
ATOM     20  O   UNL     1      -0.550   9.344  20.773  0.00  0.00    +0.000 OA
BRANCH  18  21
ATOM     21  C   UNL     1      -1.335  10.455  18.551  0.00  0.00    +0.000 A 
ATOM     22  C   UNL     1      -2.336  11.375  18.890  0.00  0.00    +0.000 A 
ATOM     23  C   UNL     1      -3.400  11.599  18.014  0.00  0.00    +0.000 A 
ATOM     24  C   UNL     1      -3.462  10.910  16.804  0.00  0.00    +0.000 A 
ATOM     25  C   UNL     1      -2.450  10.012  16.457  0.00  0.00    +0.000 A 
ATOM     26  C   UNL     1      -1.380   9.784  17.326  0.00  0.00    +0.000 A 
ENDBRANCH  18  21
ENDBRANCH  13  18
TORSDOF 3
ENDMDL
MODEL 5
REMARK VINA RESULT:      -6.3      4.892      7.554
REMARK  Name = 
REMARK  5 active torsions:
REMARK  status: ('A' for Active; 'I' for Inactive)
REMARK    1  A    between atoms: C_1  and  N_2
REMARK    2  A    between atoms: N_2  and  C_3
REMARK    3  A    between atoms: N_2  and  C_4
REMARK    4  A    between atoms: N_16  and  S_17
REMARK    5  A    between atoms: S_17  and  C_20
REMARK                            x       y       z     vdW  Elec       q    Type
REMARK                         _______ _______ _______ _____ _____    ______ ____
ROOT
ATOM      1  C   UNL     1      -2.330  10.930  16.747  0.00  0.00    +0.000 C 
ATOM      2  C   UNL     1      -2.682   9.859  17.820  0.00  0.00    +0.000 C 
ATOM      3  C   UNL     1      -1.458   9.421  18.659  0.00  0.00    +0.000 C 
ATOM      4  C   UNL     1      -0.667  10.618  19.082  0.00  0.00    +0.000 A 
ATOM      5  C   UNL     1      -0.778  11.865  18.509  0.00  0.00    +0.000 A 
ATOM      6  C   UNL     1       0.116  12.739  19.168  0.00  0.00    +0.000 A 
ATOM      7  C   UNL     1       0.375  14.117  19.017  0.00  0.00    +0.000 A 
ATOM      8  C   UNL     1       1.354  14.716  19.804  0.00  0.00    +0.000 A 
ATOM      9 BR   UNL     1       1.687  16.566  19.611  0.00  0.00    +0.000 Br
ATOM     10  C   UNL     1       2.080  13.969  20.720  0.00  0.00    +0.000 A 
ATOM     11  C   UNL     1       1.829  12.598  20.898  0.00  0.00    +0.000 A 
ATOM     12  C   UNL     1       0.828  11.989  20.118  0.00  0.00    +0.000 A 
ATOM     13  N   UNL     1       0.324  10.691  20.044  0.00  0.00    +0.000 N 
ATOM     14  C   UNL     1      -1.720  12.197  17.404  0.00  0.00    +0.000 C 
ENDROOT
BRANCH   1  16
ATOM     15  C   UNL     1      -3.628  10.241  14.747  0.00  0.00    +0.000 C 
ATOM     16  N   UNL     1      -3.464  11.215  15.827  0.00  0.00    +0.000 NA
ATOM     17  C   UNL     1      -4.729  11.366  16.554  0.00  0.00    +0.000 C 
ENDBRANCH   1  16
BRANCH  13  18
ATOM     18  S   UNL     1       0.722   9.413  21.122  0.00  0.00    +0.000 S 
ATOM     19  O   UNL     1       1.690   9.981  22.043  0.00  0.00    +0.000 OA
ATOM     20  O   UNL     1      -0.520   8.837  21.598  0.00  0.00    +0.000 OA
BRANCH  18  21
ATOM     21  C   UNL     1       1.546   8.176  20.152  0.00  0.00    +0.000 A 
ATOM     22  C   UNL     1       1.664   6.887  20.689  0.00  0.00    +0.000 A 
ATOM     23  C   UNL     1       2.329   5.893  19.970  0.00  0.00    +0.000 A 
ATOM     24  C   UNL     1       2.870   6.183  18.718  0.00  0.00    +0.000 A 
ATOM     25  C   UNL     1       2.730   7.462  18.175  0.00  0.00    +0.000 A 
ATOM     26  C   UNL     1       2.064   8.463  18.886  0.00  0.00    +0.000 A 
ENDBRANCH  18  21
ENDBRANCH  13  18
TORSDOF 3
ENDMDL
MODEL 6
REMARK VINA RESULT:      -6.2      7.499      9.216
REMARK  Name = 
REMARK  5 active torsions:
REMARK  status: ('A' for Active; 'I' for Inactive)
REMARK    1  A    between atoms: C_1  and  N_2
REMARK    2  A    between atoms: N_2  and  C_3
REMARK    3  A    between atoms: N_2  and  C_4
REMARK    4  A    between atoms: N_16  and  S_17
REMARK    5  A    between atoms: S_17  and  C_20
REMARK                            x       y       z     vdW  Elec       q    Type
REMARK                         _______ _______ _______ _____ _____    ______ ____
ROOT
ATOM      1  C   UNL     1      -2.785  13.671  23.794  0.00  0.00    +0.000 C 
ATOM      2  C   UNL     1      -1.289  13.881  23.417  0.00  0.00    +0.000 C 
ATOM      3  C   UNL     1      -0.760  12.810  22.433  0.00  0.00    +0.000 C 
ATOM      4  C   UNL     1      -1.746  12.587  21.332  0.00  0.00    +0.000 A 
ATOM      5  C   UNL     1      -3.067  12.975  21.381  0.00  0.00    +0.000 A 
ATOM      6  C   UNL     1      -3.686  12.605  20.165  0.00  0.00    +0.000 A 
ATOM      7  C   UNL     1      -4.993  12.796  19.673  0.00  0.00    +0.000 A 
ATOM      8  C   UNL     1      -5.332  12.285  18.423  0.00  0.00    +0.000 A 
ATOM      9 BR   UNL     1      -7.080  12.557  17.759  0.00  0.00    +0.000 Br
ATOM     10  C   UNL     1      -4.401  11.583  17.671  0.00  0.00    +0.000 A 
ATOM     11  C   UNL     1      -3.089  11.393  18.135  0.00  0.00    +0.000 A 
ATOM     12  C   UNL     1      -2.734  11.922  19.390  0.00  0.00    +0.000 A 
ATOM     13  N   UNL     1      -1.553  11.929  20.131  0.00  0.00    +0.000 N 
ATOM     14  C   UNL     1      -3.686  13.691  22.530  0.00  0.00    +0.000 C 
ENDROOT
BRANCH   1  16
ATOM     15  C   UNL     1      -2.156  15.254  25.599  0.00  0.00    +0.000 C 
ATOM     16  N   UNL     1      -3.239  14.590  24.873  0.00  0.00    +0.000 NA
ATOM     17  C   UNL     1      -4.186  15.592  24.371  0.00  0.00    +0.000 C 
ENDBRANCH   1  16
BRANCH  13  18
ATOM     18  S   UNL     1      -0.025  11.386  19.561  0.00  0.00    +0.000 S 
ATOM     19  O   UNL     1       0.624  10.796  20.717  0.00  0.00    +0.000 OA
ATOM     20  O   UNL     1      -0.255  10.617  18.354  0.00  0.00    +0.000 OA
BRANCH  18  21
ATOM     21  C   UNL     1       0.884  12.839  19.101  0.00  0.00    +0.000 A 
ATOM     22  C   UNL     1       2.222  12.685  18.715  0.00  0.00    +0.000 A 
ATOM     23  C   UNL     1       2.980  13.806  18.373  0.00  0.00    +0.000 A 
ATOM     24  C   UNL     1       2.403  15.074  18.411  0.00  0.00    +0.000 A 
ATOM     25  C   UNL     1       1.063  15.223  18.773  0.00  0.00    +0.000 A 
ATOM     26  C   UNL     1       0.295  14.106  19.115  0.00  0.00    +0.000 A 
ENDBRANCH  18  21
ENDBRANCH  13  18
TORSDOF 3
ENDMDL
MODEL 7
REMARK VINA RESULT:      -6.2      6.834      9.990
REMARK  Name = 
REMARK  5 active torsions:
REMARK  status: ('A' for Active; 'I' for Inactive)
REMARK    1  A    between atoms: C_1  and  N_2
REMARK    2  A    between atoms: N_2  and  C_3
REMARK    3  A    between atoms: N_2  and  C_4
REMARK    4  A    between atoms: N_16  and  S_17
REMARK    5  A    between atoms: S_17  and  C_20
REMARK                            x       y       z     vdW  Elec       q    Type
REMARK                         _______ _______ _______ _____ _____    ______ ____
ROOT
ATOM      1  C   UNL     1      -4.884  12.160  18.425  0.00  0.00    +0.000 C 
ATOM      2  C   UNL     1      -3.707  11.145  18.517  0.00  0.00    +0.000 C 
ATOM      3  C   UNL     1      -2.368  11.812  18.914  0.00  0.00    +0.000 C 
ATOM      4  C   UNL     1      -2.579  12.760  20.051  0.00  0.00    +0.000 A 
ATOM      5  C   UNL     1      -3.807  13.255  20.431  0.00  0.00    +0.000 A 
ATOM      6  C   UNL     1      -3.617  14.112  21.539  0.00  0.00    +0.000 A 
ATOM      7  C   UNL     1      -4.524  14.837  22.339  0.00  0.00    +0.000 A 
ATOM      8  C   UNL     1      -4.035  15.639  23.367  0.00  0.00    +0.000 A 
ATOM      9 BR   UNL     1      -5.253  16.597  24.448  0.00  0.00    +0.000 Br
ATOM     10  C   UNL     1      -2.670  15.738  23.599  0.00  0.00    +0.000 A 
ATOM     11  C   UNL     1      -1.749  15.013  22.823  0.00  0.00    +0.000 A 
ATOM     12  C   UNL     1      -2.238  14.186  21.794  0.00  0.00    +0.000 A 
ATOM     13  N   UNL     1      -1.626  13.344  20.865  0.00  0.00    +0.000 N 
ATOM     14  C   UNL     1      -5.094  12.893  19.776  0.00  0.00    +0.000 C 
ENDROOT
BRANCH   1  16
ATOM     15  C   UNL     1      -6.745  10.548  18.735  0.00  0.00    +0.000 C 
ATOM     16  N   UNL     1      -6.123  11.551  17.870  0.00  0.00    +0.000 NA
ATOM     17  C   UNL     1      -7.113  12.571  17.503  0.00  0.00    +0.000 C 
ENDBRANCH   1  16
BRANCH  13  18
ATOM     18  S   UNL     1       0.041  12.927  20.857  0.00  0.00    +0.000 S 
ATOM     19  O   UNL     1       0.477  13.132  19.489  0.00  0.00    +0.000 OA
ATOM     20  O   UNL     1       0.673  13.623  21.960  0.00  0.00    +0.000 OA
BRANCH  18  21
ATOM     21  C   UNL     1       0.124  11.189  21.207  0.00  0.00    +0.000 A 
ATOM     22  C   UNL     1      -0.483  10.722  22.380  0.00  0.00    +0.000 A 
ATOM     23  C   UNL     1      -0.416   9.367  22.706  0.00  0.00    +0.000 A 
ATOM     24  C   UNL     1       0.251   8.481  21.862  0.00  0.00    +0.000 A 
ATOM     25  C   UNL     1       0.835   8.944  20.681  0.00  0.00    +0.000 A 
ATOM     26  C   UNL     1       0.770  10.299  20.346  0.00  0.00    +0.000 A 
ENDBRANCH  18  21
ENDBRANCH  13  18
TORSDOF 3
ENDMDL
MODEL 8
REMARK VINA RESULT:      -6.2      6.977      9.051
REMARK  Name = 
REMARK  5 active torsions:
REMARK  status: ('A' for Active; 'I' for Inactive)
REMARK    1  A    between atoms: C_1  and  N_2
REMARK    2  A    between atoms: N_2  and  C_3
REMARK    3  A    between atoms: N_2  and  C_4
REMARK    4  A    between atoms: N_16  and  S_17
REMARK    5  A    between atoms: S_17  and  C_20
REMARK                            x       y       z     vdW  Elec       q    Type
REMARK                         _______ _______ _______ _____ _____    ______ ____
ROOT
ATOM      1  C   UNL     1      -5.873  13.396  20.215  0.00  0.00    +0.000 C 
ATOM      2  C   UNL     1      -4.633  13.980  20.953  0.00  0.00    +0.000 C 
ATOM      3  C   UNL     1      -3.481  12.956  21.096  0.00  0.00    +0.000 C 
ATOM      4  C   UNL     1      -3.265  12.237  19.804  0.00  0.00    +0.000 A 
ATOM      5  C   UNL     1      -4.177  12.202  18.772  0.00  0.00    +0.000 A 
ATOM      6  C   UNL     1      -3.628  11.436  17.718  0.00  0.00    +0.000 A 
ATOM      7  C   UNL     1      -4.108  11.120  16.431  0.00  0.00    +0.000 A 
ATOM      8  C   UNL     1      -3.344  10.302  15.602  0.00  0.00    +0.000 A 
ATOM      9 BR   UNL     1      -3.982   9.893  13.871  0.00  0.00    +0.000 Br
ATOM     10  C   UNL     1      -2.131   9.789  16.037  0.00  0.00    +0.000 A 
ATOM     11  C   UNL     1      -1.627  10.103  17.311  0.00  0.00    +0.000 A 
ATOM     12  C   UNL     1      -2.385  10.945  18.147  0.00  0.00    +0.000 A 
ATOM     13  N   UNL     1      -2.187  11.454  19.430  0.00  0.00    +0.000 N 
ATOM     14  C   UNL     1      -5.492  12.899  18.795  0.00  0.00    +0.000 C 
ENDROOT
BRANCH   1  16
ATOM     15  C   UNL     1      -7.916  14.216  19.070  0.00  0.00    +0.000 C 
ATOM     16  N   UNL     1      -7.040  14.319  20.238  0.00  0.00    +0.000 NA
ATOM     17  C   UNL     1      -7.831  14.165  21.465  0.00  0.00    +0.000 C 
ENDBRANCH   1  16
BRANCH  13  18
ATOM     18  S   UNL     1      -0.736  11.308  20.340  0.00  0.00    +0.000 S 
ATOM     19  O   UNL     1      -1.038  11.894  21.633  0.00  0.00    +0.000 OA
ATOM     20  O   UNL     1      -0.281   9.937  20.223  0.00  0.00    +0.000 OA
BRANCH  18  21
ATOM     21  C   UNL     1       0.465  12.338  19.536  0.00  0.00    +0.000 A 
ATOM     22  C   UNL     1       1.491  11.715  18.814  0.00  0.00    +0.000 A 
ATOM     23  C   UNL     1       2.471  12.488  18.191  0.00  0.00    +0.000 A 
ATOM     24  C   UNL     1       2.425  13.878  18.284  0.00  0.00    +0.000 A 
ATOM     25  C   UNL     1       1.388  14.498  18.985  0.00  0.00    +0.000 A 
ATOM     26  C   UNL     1       0.400  13.732  19.609  0.00  0.00    +0.000 A 
ENDBRANCH  18  21
ENDBRANCH  13  18
TORSDOF 3
ENDMDL
MODEL 9
REMARK VINA RESULT:      -6.2      6.292      9.786
REMARK  Name = 
REMARK  5 active torsions:
REMARK  status: ('A' for Active; 'I' for Inactive)
REMARK    1  A    between atoms: C_1  and  N_2
REMARK    2  A    between atoms: N_2  and  C_3
REMARK    3  A    between atoms: N_2  and  C_4
REMARK    4  A    between atoms: N_16  and  S_17
REMARK    5  A    between atoms: S_17  and  C_20
REMARK                            x       y       z     vdW  Elec       q    Type
REMARK                         _______ _______ _______ _____ _____    ______ ____
ROOT
ATOM      1  C   UNL     1       0.800  15.757  18.933  0.00  0.00    +0.000 C 
ATOM      2  C   UNL     1       0.659  16.096  20.447  0.00  0.00    +0.000 C 
ATOM      3  C   UNL     1      -0.289  15.127  21.194  0.00  0.00    +0.000 C 
ATOM      4  C   UNL     1       0.004  13.713  20.806  0.00  0.00    +0.000 A 
ATOM      5  C   UNL     1       0.725  13.347  19.691  0.00  0.00    +0.000 A 
ATOM      6  C   UNL     1       0.802  11.936  19.654  0.00  0.00    +0.000 A 
ATOM      7  C   UNL     1       1.448  11.048  18.770  0.00  0.00    +0.000 A 
ATOM      8  C   UNL     1       1.321   9.676  18.971  0.00  0.00    +0.000 A 
ATOM      9 BR   UNL     1       2.200   8.488  17.794  0.00  0.00    +0.000 Br
ATOM     10  C   UNL     1       0.560   9.182  20.020  0.00  0.00    +0.000 A 
ATOM     11  C   UNL     1      -0.080  10.049  20.922  0.00  0.00    +0.000 A 
ATOM     12  C   UNL     1       0.058  11.437  20.736  0.00  0.00    +0.000 A 
ATOM     13  N   UNL     1      -0.418  12.552  21.426  0.00  0.00    +0.000 N 
ATOM     14  C   UNL     1       1.331  14.313  18.733  0.00  0.00    +0.000 C 
ENDROOT
BRANCH   1  16
ATOM     15  C   UNL     1       1.004  18.139  18.269  0.00  0.00    +0.000 C 
ATOM     16  N   UNL     1       1.564  16.790  18.184  0.00  0.00    +0.000 NA
ATOM     17  C   UNL     1       2.977  16.815  18.579  0.00  0.00    +0.000 C 
ENDBRANCH   1  16
BRANCH  13  18
ATOM     18  S   UNL     1      -1.234  12.503  22.938  0.00  0.00    +0.000 S 
ATOM     19  O   UNL     1      -1.031  11.156  23.436  0.00  0.00    +0.000 OA
ATOM     20  O   UNL     1      -0.811  13.660  23.703  0.00  0.00    +0.000 OA
BRANCH  18  21
ATOM     21  C   UNL     1      -2.961  12.703  22.582  0.00  0.00    +0.000 A 
ATOM     22  C   UNL     1      -3.844  12.855  23.660  0.00  0.00    +0.000 A 
ATOM     23  C   UNL     1      -5.213  12.987  23.424  0.00  0.00    +0.000 A 
ATOM     24  C   UNL     1      -5.698  12.972  22.117  0.00  0.00    +0.000 A 
ATOM     25  C   UNL     1      -4.815  12.845  21.044  0.00  0.00    +0.000 A 
ATOM     26  C   UNL     1      -3.442  12.715  21.270  0.00  0.00    +0.000 A 
ENDBRANCH  18  21
ENDBRANCH  13  18
TORSDOF 3
ENDMDL
