MODEL 1
REMARK VINA RESULT:      -8.0      0.000      0.000
REMARK  Name = 
REMARK  9 active torsions:
REMARK  status: ('A' for Active; 'I' for Inactive)
REMARK    1  A    between atoms: C_1  and  C_2
REMARK    2  A    between atoms: C_6  and  O_7
REMARK    3  A    between atoms: O_7  and  C_8
REMARK    4  A    between atoms: C_8  and  C_9
REMARK    5  A    between atoms: N_11  and  C_12
REMARK    6  A    between atoms: C_12  and  C_13
REMARK    7  A    between atoms: N_15  and  N_16
REMARK    8  A    between atoms: C_17  and  C_18
REMARK    9  A    between atoms: C_25  and  O_26
REMARK                            x       y       z     vdW  Elec       q    Type
REMARK                         _______ _______ _______ _____ _____    ______ ____
ROOT
ATOM      1  C   UNL     1       7.935   7.452  18.178  0.00  0.00    +0.000 C 
ATOM      2  O   UNL     1       7.367   7.797  17.139  0.00  0.00    +0.000 OA
ATOM      3  N   UNL     1       8.735   8.281  18.954  0.00  0.00    +0.000 N 
ATOM      4  H   UNL     1       9.188   7.957  19.804  0.00  0.00    +0.000 HD
ENDROOT
BRANCH   3   5
ATOM      5  N   UNL     1       8.918   9.573  18.547  0.00  0.00    +0.000 NA
ATOM      6  C   UNL     1       9.383  10.435  19.396  0.00  0.00    +0.000 C 
BRANCH   6   7
ATOM      7  C   UNL     1       9.595  11.845  18.979  0.00  0.00    +0.000 A 
ATOM      8  C   UNL     1       8.704  12.830  19.431  0.00  0.00    +0.000 A 
ATOM      9  C   UNL     1       8.880  14.161  19.054  0.00  0.00    +0.000 A 
ATOM     10 BR   UNL     1       7.670  15.476  19.672  0.00  0.00    +0.000 Br
ATOM     11  C   UNL     1       9.937  14.532  18.227  0.00  0.00    +0.000 A 
ATOM     12  C   UNL     1      10.825  13.554  17.777  0.00  0.00    +0.000 A 
ATOM     13 BR   UNL     1      12.257  14.084  16.651  0.00  0.00    +0.000 Br
ATOM     14  C   UNL     1      10.661  12.210  18.148  0.00  0.00    +0.000 A 
BRANCH  14  15
ATOM     15  O   UNL     1      11.534  11.252  17.704  0.00  0.00    +0.000 OA
ATOM     16  H   UNL     1      11.292  11.037  16.782  0.00  0.00    +0.000 HD
ENDBRANCH  14  15
ENDBRANCH   6   7
ENDBRANCH   3   5
BRANCH   1  17
ATOM     17  C   UNL     1       7.790   6.024  18.710  0.00  0.00    +0.000 C 
BRANCH  17  20
ATOM     18  C   UNL     1       6.477   4.618  17.134  0.00  0.00    +0.000 C 
ATOM     19  O   UNL     1       7.482   4.322  16.489  0.00  0.00    +0.000 OA
ATOM     20  N   UNL     1       6.539   5.434  18.241  0.00  0.00    +0.000 N 
ATOM     21  H   UNL     1       5.689   5.730  18.716  0.00  0.00    +0.000 HD
BRANCH  18  22
ATOM     22  C   UNL     1       5.081   4.085  16.782  0.00  0.00    +0.000 C 
BRANCH  22  23
ATOM     23  O   UNL     1       4.077   4.895  17.379  0.00  0.00    +0.000 OA
BRANCH  23  29
ATOM     24  C   UNL     1       2.517   2.784  21.630  0.00  0.00    +0.000 C 
ATOM     25  C   UNL     1       2.300   3.234  20.214  0.00  0.00    +0.000 A 
ATOM     26  C   UNL     1       1.057   3.051  19.596  0.00  0.00    +0.000 A 
ATOM     27  C   UNL     1       0.861   3.468  18.282  0.00  0.00    +0.000 A 
ATOM     28  C   UNL     1       1.905   4.074  17.581  0.00  0.00    +0.000 A 
ATOM     29  C   UNL     1       3.153   4.272  18.180  0.00  0.00    +0.000 A 
ATOM     30  C   UNL     1       3.347   3.845  19.496  0.00  0.00    +0.000 A 
ENDBRANCH  23  29
ENDBRANCH  22  23
ENDBRANCH  18  22
ENDBRANCH  17  20
ENDBRANCH   1  17
TORSDOF 8
ENDMDL
MODEL 2
REMARK VINA RESULT:      -7.6      1.674      2.275
REMARK  Name = 
REMARK  9 active torsions:
REMARK  status: ('A' for Active; 'I' for Inactive)
REMARK    1  A    between atoms: C_1  and  C_2
REMARK    2  A    between atoms: C_6  and  O_7
REMARK    3  A    between atoms: O_7  and  C_8
REMARK    4  A    between atoms: C_8  and  C_9
REMARK    5  A    between atoms: N_11  and  C_12
REMARK    6  A    between atoms: C_12  and  C_13
REMARK    7  A    between atoms: N_15  and  N_16
REMARK    8  A    between atoms: C_17  and  C_18
REMARK    9  A    between atoms: C_25  and  O_26
REMARK                            x       y       z     vdW  Elec       q    Type
REMARK                         _______ _______ _______ _____ _____    ______ ____
ROOT
ATOM      1  C   UNL     1       8.084   8.108  18.180  0.00  0.00    +0.000 C 
ATOM      2  O   UNL     1       7.603   8.733  17.231  0.00  0.00    +0.000 OA
ATOM      3  N   UNL     1       8.913   8.657  19.150  0.00  0.00    +0.000 N 
ATOM      4  H   UNL     1       9.291   8.107  19.916  0.00  0.00    +0.000 HD
ENDROOT
BRANCH   3   5
ATOM      5  N   UNL     1       9.230   9.983  19.057  0.00  0.00    +0.000 NA
ATOM      6  C   UNL     1       9.597  10.613  20.129  0.00  0.00    +0.000 C 
BRANCH   6   7
ATOM      7  C   UNL     1       9.951  12.055  20.055  0.00  0.00    +0.000 A 
ATOM      8  C   UNL     1      10.394  12.586  18.834  0.00  0.00    +0.000 A 
ATOM      9  C   UNL     1      10.732  13.936  18.738  0.00  0.00    +0.000 A 
ATOM     10 BR   UNL     1      11.327  14.635  17.085  0.00  0.00    +0.000 Br
ATOM     11  C   UNL     1      10.637  14.773  19.846  0.00  0.00    +0.000 A 
ATOM     12  C   UNL     1      10.197  14.247  21.061  0.00  0.00    +0.000 A 
ATOM     13 BR   UNL     1      10.075  15.409  22.556  0.00  0.00    +0.000 Br
ATOM     14  C   UNL     1       9.852  12.891  21.173  0.00  0.00    +0.000 A 
BRANCH  14  15
ATOM     15  O   UNL     1       9.419  12.378  22.367  0.00  0.00    +0.000 OA
ATOM     16  H   UNL     1       8.720  11.724  22.172  0.00  0.00    +0.000 HD
ENDBRANCH  14  15
ENDBRANCH   6   7
ENDBRANCH   3   5
BRANCH   1  17
ATOM     17  C   UNL     1       7.787   6.617  18.364  0.00  0.00    +0.000 C 
BRANCH  17  20
ATOM     18  C   UNL     1       6.316   5.186  16.960  0.00  0.00    +0.000 C 
ATOM     19  O   UNL     1       7.237   4.412  16.703  0.00  0.00    +0.000 OA
ATOM     20  N   UNL     1       6.494   6.283  17.774  0.00  0.00    +0.000 N 
ATOM     21  H   UNL     1       5.741   6.953  17.912  0.00  0.00    +0.000 HD
BRANCH  18  22
ATOM     22  C   UNL     1       4.892   4.984  16.424  0.00  0.00    +0.000 C 
BRANCH  22  23
ATOM     23  O   UNL     1       3.935   5.358  17.407  0.00  0.00    +0.000 OA
BRANCH  23  29
ATOM     24  C   UNL     1       1.442   3.340  21.238  0.00  0.00    +0.000 C 
ATOM     25  C   UNL     1       2.013   3.286  19.850  0.00  0.00    +0.000 A 
ATOM     26  C   UNL     1       1.849   2.141  19.061  0.00  0.00    +0.000 A 
ATOM     27  C   UNL     1       2.381   2.095  17.775  0.00  0.00    +0.000 A 
ATOM     28  C   UNL     1       3.077   3.195  17.270  0.00  0.00    +0.000 A 
ATOM     29  C   UNL     1       3.248   4.351  18.038  0.00  0.00    +0.000 A 
ATOM     30  C   UNL     1       2.718   4.389  19.331  0.00  0.00    +0.000 A 
ENDBRANCH  23  29
ENDBRANCH  22  23
ENDBRANCH  18  22
ENDBRANCH  17  20
ENDBRANCH   1  17
TORSDOF 8
ENDMDL
MODEL 3
REMARK VINA RESULT:      -7.5      2.724      2.937
REMARK  Name = 
REMARK  9 active torsions:
REMARK  status: ('A' for Active; 'I' for Inactive)
REMARK    1  A    between atoms: C_1  and  C_2
REMARK    2  A    between atoms: C_6  and  O_7
REMARK    3  A    between atoms: O_7  and  C_8
REMARK    4  A    between atoms: C_8  and  C_9
REMARK    5  A    between atoms: N_11  and  C_12
REMARK    6  A    between atoms: C_12  and  C_13
REMARK    7  A    between atoms: N_15  and  N_16
REMARK    8  A    between atoms: C_17  and  C_18
REMARK    9  A    between atoms: C_25  and  O_26
REMARK                            x       y       z     vdW  Elec       q    Type
REMARK                         _______ _______ _______ _____ _____    ______ ____
ROOT
ATOM      1  C   UNL     1       7.783   7.932  17.915  0.00  0.00    +0.000 C 
ATOM      2  O   UNL     1       7.250   8.612  17.035  0.00  0.00    +0.000 OA
ATOM      3  N   UNL     1       8.715   8.411  18.828  0.00  0.00    +0.000 N 
ATOM      4  H   UNL     1       9.134   7.817  19.538  0.00  0.00    +0.000 HD
ENDROOT
BRANCH   3   5
ATOM      5  N   UNL     1       9.079   9.726  18.754  0.00  0.00    +0.000 NA
ATOM      6  C   UNL     1       9.674  10.267  19.771  0.00  0.00    +0.000 C 
BRANCH   6   7
ATOM      7  C   UNL     1      10.083  11.694  19.716  0.00  0.00    +0.000 A 
ATOM      8  C   UNL     1       9.761  12.537  20.791  0.00  0.00    +0.000 A 
ATOM      9  C   UNL     1      10.133  13.881  20.765  0.00  0.00    +0.000 A 
ATOM     10 BR   UNL     1       9.692  15.002  22.222  0.00  0.00    +0.000 Br
ATOM     11  C   UNL     1      10.826  14.405  19.677  0.00  0.00    +0.000 A 
ATOM     12  C   UNL     1      11.148  13.569  18.607  0.00  0.00    +0.000 A 
ATOM     13 BR   UNL     1      12.093  14.307  17.137  0.00  0.00    +0.000 Br
ATOM     14  C   UNL     1      10.781  12.214  18.620  0.00  0.00    +0.000 A 
BRANCH  14  15
ATOM     15  O   UNL     1      11.098  11.396  17.568  0.00  0.00    +0.000 OA
ATOM     16  H   UNL     1      10.263  11.020  17.224  0.00  0.00    +0.000 HD
ENDBRANCH  14  15
ENDBRANCH   6   7
ENDBRANCH   3   5
BRANCH   1  17
ATOM     17  C   UNL     1       7.440   6.448  18.071  0.00  0.00    +0.000 C 
BRANCH  17  20
ATOM     18  C   UNL     1       5.482   5.225  18.993  0.00  0.00    +0.000 C 
ATOM     19  O   UNL     1       6.200   4.373  19.514  0.00  0.00    +0.000 OA
ATOM     20  N   UNL     1       6.005   6.281  18.280  0.00  0.00    +0.000 N 
ATOM     21  H   UNL     1       5.393   6.931  17.793  0.00  0.00    +0.000 HD
BRANCH  18  22
ATOM     22  C   UNL     1       3.951   5.203  19.115  0.00  0.00    +0.000 C 
BRANCH  22  23
ATOM     23  O   UNL     1       3.365   6.059  18.143  0.00  0.00    +0.000 OA
BRANCH  23  29
ATOM     24  C   UNL     1       0.852   8.631  21.612  0.00  0.00    +0.000 C 
ATOM     25  C   UNL     1       1.402   8.461  20.225  0.00  0.00    +0.000 A 
ATOM     26  C   UNL     1       1.211   9.458  19.261  0.00  0.00    +0.000 A 
ATOM     27  C   UNL     1       1.721   9.294  17.975  0.00  0.00    +0.000 A 
ATOM     28  C   UNL     1       2.430   8.136  17.649  0.00  0.00    +0.000 A 
ATOM     29  C   UNL     1       2.637   7.130  18.598  0.00  0.00    +0.000 A 
ATOM     30  C   UNL     1       2.116   7.295  19.884  0.00  0.00    +0.000 A 
ENDBRANCH  23  29
ENDBRANCH  22  23
ENDBRANCH  18  22
ENDBRANCH  17  20
ENDBRANCH   1  17
TORSDOF 8
ENDMDL
MODEL 4
REMARK VINA RESULT:      -7.5      2.784      3.402
REMARK  Name = 
REMARK  9 active torsions:
REMARK  status: ('A' for Active; 'I' for Inactive)
REMARK    1  A    between atoms: C_1  and  C_2
REMARK    2  A    between atoms: C_6  and  O_7
REMARK    3  A    between atoms: O_7  and  C_8
REMARK    4  A    between atoms: C_8  and  C_9
REMARK    5  A    between atoms: N_11  and  C_12
REMARK    6  A    between atoms: C_12  and  C_13
REMARK    7  A    between atoms: N_15  and  N_16
REMARK    8  A    between atoms: C_17  and  C_18
REMARK    9  A    between atoms: C_25  and  O_26
REMARK                            x       y       z     vdW  Elec       q    Type
REMARK                         _______ _______ _______ _____ _____    ______ ____
ROOT
ATOM      1  C   UNL     1       7.661   7.683  17.662  0.00  0.00    +0.000 C 
ATOM      2  O   UNL     1       7.042   8.380  16.854  0.00  0.00    +0.000 OA
ATOM      3  N   UNL     1       8.555   8.174  18.606  0.00  0.00    +0.000 N 
ATOM      4  H   UNL     1       9.048   7.565  19.254  0.00  0.00    +0.000 HD
ENDROOT
BRANCH   3   5
ATOM      5  N   UNL     1       8.775   9.521  18.651  0.00  0.00    +0.000 NA
ATOM      6  C   UNL     1       9.513  10.001  19.604  0.00  0.00    +0.000 C 
BRANCH   6   7
ATOM      7  C   UNL     1       9.773  11.463  19.675  0.00  0.00    +0.000 A 
ATOM      8  C   UNL     1      10.301  12.116  18.551  0.00  0.00    +0.000 A 
ATOM      9  C   UNL     1      10.554  13.487  18.591  0.00  0.00    +0.000 A 
ATOM     10 BR   UNL     1      11.265  14.351  17.067  0.00  0.00    +0.000 Br
ATOM     11  C   UNL     1      10.288  14.224  19.741  0.00  0.00    +0.000 A 
ATOM     12  C   UNL     1       9.763  13.577  20.860  0.00  0.00    +0.000 A 
ATOM     13 BR   UNL     1       9.410  14.605  22.415  0.00  0.00    +0.000 Br
ATOM     14  C   UNL     1       9.503  12.198  20.834  0.00  0.00    +0.000 A 
BRANCH  14  15
ATOM     15  O   UNL     1       8.987  11.565  21.935  0.00  0.00    +0.000 OA
ATOM     16  H   UNL     1       8.547  12.242  22.486  0.00  0.00    +0.000 HD
ENDBRANCH  14  15
ENDBRANCH   6   7
ENDBRANCH   3   5
BRANCH   1  17
ATOM     17  C   UNL     1       7.480   6.163  17.683  0.00  0.00    +0.000 C 
BRANCH  17  20
ATOM     18  C   UNL     1       5.715   5.267  19.187  0.00  0.00    +0.000 C 
ATOM     19  O   UNL     1       6.528   5.044  20.084  0.00  0.00    +0.000 OA
ATOM     20  N   UNL     1       6.093   5.824  17.986  0.00  0.00    +0.000 N 
ATOM     21  H   UNL     1       5.421   5.928  17.229  0.00  0.00    +0.000 HD
BRANCH  18  22
ATOM     22  C   UNL     1       4.216   4.973  19.339  0.00  0.00    +0.000 C 
BRANCH  22  23
ATOM     23  O   UNL     1       3.475   5.645  18.328  0.00  0.00    +0.000 OA
BRANCH  23  29
ATOM     24  C   UNL     1       0.910   8.504  21.523  0.00  0.00    +0.000 C 
ATOM     25  C   UNL     1       1.535   8.243  20.182  0.00  0.00    +0.000 A 
ATOM     26  C   UNL     1       1.465   9.207  19.170  0.00  0.00    +0.000 A 
ATOM     27  C   UNL     1       2.045   8.960  17.928  0.00  0.00    +0.000 A 
ATOM     28  C   UNL     1       2.701   7.750  17.694  0.00  0.00    +0.000 A 
ATOM     29  C   UNL     1       2.787   6.775  18.692  0.00  0.00    +0.000 A 
ATOM     30  C   UNL     1       2.197   7.025  19.934  0.00  0.00    +0.000 A 
ENDBRANCH  23  29
ENDBRANCH  22  23
ENDBRANCH  18  22
ENDBRANCH  17  20
ENDBRANCH   1  17
TORSDOF 8
ENDMDL
MODEL 5
REMARK VINA RESULT:      -7.4      6.104      8.274
REMARK  Name = 
REMARK  9 active torsions:
REMARK  status: ('A' for Active; 'I' for Inactive)
REMARK    1  A    between atoms: C_1  and  C_2
REMARK    2  A    between atoms: C_6  and  O_7
REMARK    3  A    between atoms: O_7  and  C_8
REMARK    4  A    between atoms: C_8  and  C_9
REMARK    5  A    between atoms: N_11  and  C_12
REMARK    6  A    between atoms: C_12  and  C_13
REMARK    7  A    between atoms: N_15  and  N_16
REMARK    8  A    between atoms: C_17  and  C_18
REMARK    9  A    between atoms: C_25  and  O_26
REMARK                            x       y       z     vdW  Elec       q    Type
REMARK                         _______ _______ _______ _____ _____    ______ ____
ROOT
ATOM      1  C   UNL     1       3.279   5.012  19.925  0.00  0.00    +0.000 C 
ATOM      2  O   UNL     1       2.561   4.669  20.868  0.00  0.00    +0.000 OA
ATOM      3  N   UNL     1       3.109   6.175  19.184  0.00  0.00    +0.000 N 
ATOM      4  H   UNL     1       3.722   6.420  18.411  0.00  0.00    +0.000 HD
ENDROOT
BRANCH   3   5
ATOM      5  N   UNL     1       2.074   7.005  19.510  0.00  0.00    +0.000 NA
ATOM      6  C   UNL     1       2.150   8.256  19.178  0.00  0.00    +0.000 C 
BRANCH   6   7
ATOM      7  C   UNL     1       1.037   9.181  19.516  0.00  0.00    +0.000 A 
ATOM      8  C   UNL     1       0.296   9.763  18.477  0.00  0.00    +0.000 A 
ATOM      9  C   UNL     1      -0.754  10.635  18.767  0.00  0.00    +0.000 A 
ATOM     10 BR   UNL     1      -1.742  11.411  17.354  0.00  0.00    +0.000 Br
ATOM     11  C   UNL     1      -1.081  10.939  20.085  0.00  0.00    +0.000 A 
ATOM     12  C   UNL     1      -0.345  10.361  21.120  0.00  0.00    +0.000 A 
ATOM     13 BR   UNL     1      -0.811  10.792  22.908  0.00  0.00    +0.000 Br
ATOM     14  C   UNL     1       0.713   9.482  20.844  0.00  0.00    +0.000 A 
BRANCH  14  15
ATOM     15  O   UNL     1       1.433   8.916  21.863  0.00  0.00    +0.000 OA
ATOM     16  H   UNL     1       2.381   9.019  21.648  0.00  0.00    +0.000 HD
ENDBRANCH  14  15
ENDBRANCH   6   7
ENDBRANCH   3   5
BRANCH   1  17
ATOM     17  C   UNL     1       4.461   4.142  19.487  0.00  0.00    +0.000 C 
BRANCH  17  20
ATOM     18  C   UNL     1       6.373   4.870  18.074  0.00  0.00    +0.000 C 
ATOM     19  O   UNL     1       7.184   4.633  18.968  0.00  0.00    +0.000 OA
ATOM     20  N   UNL     1       5.024   4.648  18.238  0.00  0.00    +0.000 N 
ATOM     21  H   UNL     1       4.362   4.923  17.516  0.00  0.00    +0.000 HD
BRANCH  18  22
ATOM     22  C   UNL     1       6.793   5.404  16.697  0.00  0.00    +0.000 C 
BRANCH  22  23
ATOM     23  O   UNL     1       5.772   5.159  15.739  0.00  0.00    +0.000 OA
BRANCH  23  29
ATOM     24  C   UNL     1       5.310   2.432  11.578  0.00  0.00    +0.000 C 
ATOM     25  C   UNL     1       6.014   3.455  12.424  0.00  0.00    +0.000 A 
ATOM     26  C   UNL     1       7.169   4.090  11.952  0.00  0.00    +0.000 A 
ATOM     27  C   UNL     1       7.819   5.035  12.740  0.00  0.00    +0.000 A 
ATOM     28  C   UNL     1       7.315   5.354  14.003  0.00  0.00    +0.000 A 
ATOM     29  C   UNL     1       6.160   4.736  14.493  0.00  0.00    +0.000 A 
ATOM     30  C   UNL     1       5.516   3.781  13.700  0.00  0.00    +0.000 A 
ENDBRANCH  23  29
ENDBRANCH  22  23
ENDBRANCH  18  22
ENDBRANCH  17  20
ENDBRANCH   1  17
TORSDOF 8
ENDMDL
MODEL 6
REMARK VINA RESULT:      -7.4      2.976      3.617
REMARK  Name = 
REMARK  9 active torsions:
REMARK  status: ('A' for Active; 'I' for Inactive)
REMARK    1  A    between atoms: C_1  and  C_2
REMARK    2  A    between atoms: C_6  and  O_7
REMARK    3  A    between atoms: O_7  and  C_8
REMARK    4  A    between atoms: C_8  and  C_9
REMARK    5  A    between atoms: N_11  and  C_12
REMARK    6  A    between atoms: C_12  and  C_13
REMARK    7  A    between atoms: N_15  and  N_16
REMARK    8  A    between atoms: C_17  and  C_18
REMARK    9  A    between atoms: C_25  and  O_26
REMARK                            x       y       z     vdW  Elec       q    Type
REMARK                         _______ _______ _______ _____ _____    ______ ____
ROOT
ATOM      1  C   UNL     1       7.505   7.177  17.723  0.00  0.00    +0.000 C 
ATOM      2  O   UNL     1       7.074   7.800  16.749  0.00  0.00    +0.000 OA
ATOM      3  N   UNL     1       8.324   7.716  18.708  0.00  0.00    +0.000 N 
ATOM      4  H   UNL     1       8.660   7.167  19.494  0.00  0.00    +0.000 HD
ENDROOT
BRANCH   3   5
ATOM      5  N   UNL     1       8.690   9.028  18.600  0.00  0.00    +0.000 NA
ATOM      6  C   UNL     1       9.281   9.595  19.605  0.00  0.00    +0.000 C 
BRANCH   6   7
ATOM      7  C   UNL     1       9.693  11.020  19.513  0.00  0.00    +0.000 A 
ATOM      8  C   UNL     1      10.252  11.491  18.315  0.00  0.00    +0.000 A 
ATOM      9  C   UNL     1      10.647  12.824  18.203  0.00  0.00    +0.000 A 
ATOM     10 BR   UNL     1      11.398  13.443  16.582  0.00  0.00    +0.000 Br
ATOM     11  C   UNL     1      10.495  13.703  19.272  0.00  0.00    +0.000 A 
ATOM     12  C   UNL     1       9.939  13.236  20.464  0.00  0.00    +0.000 A 
ATOM     13 BR   UNL     1       9.742  14.454  21.905  0.00  0.00    +0.000 Br
ATOM     14  C   UNL     1       9.536  11.898  20.591  0.00  0.00    +0.000 A 
BRANCH  14  15
ATOM     15  O   UNL     1       8.991  11.443  21.763  0.00  0.00    +0.000 OA
ATOM     16  H   UNL     1       9.666  10.895  22.210  0.00  0.00    +0.000 HD
ENDBRANCH  14  15
ENDBRANCH   6   7
ENDBRANCH   3   5
BRANCH   1  17
ATOM     17  C   UNL     1       7.150   5.701  17.925  0.00  0.00    +0.000 C 
BRANCH  17  20
ATOM     18  C   UNL     1       4.703   5.433  17.576  0.00  0.00    +0.000 C 
ATOM     19  O   UNL     1       4.836   5.386  16.354  0.00  0.00    +0.000 OA
ATOM     20  N   UNL     1       5.782   5.573  18.419  0.00  0.00    +0.000 N 
ATOM     21  H   UNL     1       5.646   5.688  19.421  0.00  0.00    +0.000 HD
BRANCH  18  22
ATOM     22  C   UNL     1       3.336   5.312  18.264  0.00  0.00    +0.000 C 
BRANCH  22  23
ATOM     23  O   UNL     1       3.277   6.165  19.400  0.00  0.00    +0.000 OA
BRANCH  23  29
ATOM     24  C   UNL     1       0.194   9.652  21.217  0.00  0.00    +0.000 C 
ATOM     25  C   UNL     1       0.998   9.040  20.106  0.00  0.00    +0.000 A 
ATOM     26  C   UNL     1       1.015   9.630  18.837  0.00  0.00    +0.000 A 
ATOM     27  C   UNL     1       1.760   9.057  17.809  0.00  0.00    +0.000 A 
ATOM     28  C   UNL     1       2.495   7.894  18.047  0.00  0.00    +0.000 A 
ATOM     29  C   UNL     1       2.497   7.290  19.308  0.00  0.00    +0.000 A 
ATOM     30  C   UNL     1       1.741   7.865  20.334  0.00  0.00    +0.000 A 
ENDBRANCH  23  29
ENDBRANCH  22  23
ENDBRANCH  18  22
ENDBRANCH  17  20
ENDBRANCH   1  17
TORSDOF 8
ENDMDL
MODEL 7
REMARK VINA RESULT:      -7.3      4.085     10.819
REMARK  Name = 
REMARK  9 active torsions:
REMARK  status: ('A' for Active; 'I' for Inactive)
REMARK    1  A    between atoms: C_1  and  C_2
REMARK    2  A    between atoms: C_6  and  O_7
REMARK    3  A    between atoms: O_7  and  C_8
REMARK    4  A    between atoms: C_8  and  C_9
REMARK    5  A    between atoms: N_11  and  C_12
REMARK    6  A    between atoms: C_12  and  C_13
REMARK    7  A    between atoms: N_15  and  N_16
REMARK    8  A    between atoms: C_17  and  C_18
REMARK    9  A    between atoms: C_25  and  O_26
REMARK                            x       y       z     vdW  Elec       q    Type
REMARK                         _______ _______ _______ _____ _____    ______ ____
ROOT
ATOM      1  C   UNL     1       8.700   9.635  18.538  0.00  0.00    +0.000 C 
ATOM      2  O   UNL     1       7.950  10.176  17.722  0.00  0.00    +0.000 OA
ATOM      3  N   UNL     1       8.725   8.272  18.807  0.00  0.00    +0.000 N 
ATOM      4  H   UNL     1       9.358   7.865  19.490  0.00  0.00    +0.000 HD
ENDROOT
BRANCH   3   5
ATOM      5  N   UNL     1       7.859   7.462  18.129  0.00  0.00    +0.000 NA
ATOM      6  C   UNL     1       7.591   6.290  18.615  0.00  0.00    +0.000 C 
BRANCH   6   7
ATOM      7  C   UNL     1       6.649   5.389  17.901  0.00  0.00    +0.000 A 
ATOM      8  C   UNL     1       5.667   4.709  18.637  0.00  0.00    +0.000 A 
ATOM      9  C   UNL     1       4.771   3.858  17.991  0.00  0.00    +0.000 A 
ATOM     10 BR   UNL     1       3.453   2.949  18.997  0.00  0.00    +0.000 Br
ATOM     11  C   UNL     1       4.836   3.670  16.613  0.00  0.00    +0.000 A 
ATOM     12  C   UNL     1       5.812   4.346  15.879  0.00  0.00    +0.000 A 
ATOM     13 BR   UNL     1       5.880   4.073  14.003  0.00  0.00    +0.000 Br
ATOM     14  C   UNL     1       6.720   5.206  16.515  0.00  0.00    +0.000 A 
BRANCH  14  15
ATOM     15  O   UNL     1       7.677   5.868  15.792  0.00  0.00    +0.000 OA
ATOM     16  H   UNL     1       7.879   6.701  16.262  0.00  0.00    +0.000 HD
ENDBRANCH  14  15
ENDBRANCH   6   7
ENDBRANCH   3   5
BRANCH   1  17
ATOM     17  C   UNL     1       9.703  10.464  19.346  0.00  0.00    +0.000 C 
BRANCH  17  20
ATOM     18  C   UNL     1      11.542  12.067  18.871  0.00  0.00    +0.000 C 
ATOM     19  O   UNL     1      12.039  11.898  19.984  0.00  0.00    +0.000 OA
ATOM     20  N   UNL     1      10.408  11.396  18.472  0.00  0.00    +0.000 N 
ATOM     21  H   UNL     1       9.969  11.606  17.578  0.00  0.00    +0.000 HD
BRANCH  18  22
ATOM     22  C   UNL     1      12.156  13.010  17.826  0.00  0.00    +0.000 C 
BRANCH  22  23
ATOM     23  O   UNL     1      11.136  13.753  17.171  0.00  0.00    +0.000 OA
BRANCH  23  29
ATOM     24  C   UNL     1       7.901  17.280  18.605  0.00  0.00    +0.000 C 
ATOM     25  C   UNL     1       9.295  16.743  18.444  0.00  0.00    +0.000 A 
ATOM     26  C   UNL     1      10.395  17.492  18.877  0.00  0.00    +0.000 A 
ATOM     27  C   UNL     1      11.686  16.991  18.724  0.00  0.00    +0.000 A 
ATOM     28  C   UNL     1      11.881  15.737  18.141  0.00  0.00    +0.000 A 
ATOM     29  C   UNL     1      10.796  14.970  17.706  0.00  0.00    +0.000 A 
ATOM     30  C   UNL     1       9.504  15.481  17.855  0.00  0.00    +0.000 A 
ENDBRANCH  23  29
ENDBRANCH  22  23
ENDBRANCH  18  22
ENDBRANCH  17  20
ENDBRANCH   1  17
TORSDOF 8
ENDMDL
MODEL 8
REMARK VINA RESULT:      -7.2      4.644      7.718
REMARK  Name = 
REMARK  9 active torsions:
REMARK  status: ('A' for Active; 'I' for Inactive)
REMARK    1  A    between atoms: C_1  and  C_2
REMARK    2  A    between atoms: C_6  and  O_7
REMARK    3  A    between atoms: O_7  and  C_8
REMARK    4  A    between atoms: C_8  and  C_9
REMARK    5  A    between atoms: N_11  and  C_12
REMARK    6  A    between atoms: C_12  and  C_13
REMARK    7  A    between atoms: N_15  and  N_16
REMARK    8  A    between atoms: C_17  and  C_18
REMARK    9  A    between atoms: C_25  and  O_26
REMARK                            x       y       z     vdW  Elec       q    Type
REMARK                         _______ _______ _______ _____ _____    ______ ____
ROOT
ATOM      1  C   UNL     1       1.870   3.968  20.083  0.00  0.00    +0.000 C 
ATOM      2  O   UNL     1       0.638   3.983  20.142  0.00  0.00    +0.000 OA
ATOM      3  N   UNL     1       2.686   5.069  20.313  0.00  0.00    +0.000 N 
ATOM      4  H   UNL     1       3.700   5.015  20.251  0.00  0.00    +0.000 HD
ENDROOT
BRANCH   3   5
ATOM      5  N   UNL     1       2.095   6.261  20.622  0.00  0.00    +0.000 NA
ATOM      6  C   UNL     1       2.131   7.220  19.751  0.00  0.00    +0.000 C 
BRANCH   6   7
ATOM      7  C   UNL     1       1.493   8.526  20.060  0.00  0.00    +0.000 A 
ATOM      8  C   UNL     1       0.799   8.675  21.271  0.00  0.00    +0.000 A 
ATOM      9  C   UNL     1       0.190   9.890  21.585  0.00  0.00    +0.000 A 
ATOM     10 BR   UNL     1      -0.740  10.073  23.221  0.00  0.00    +0.000 Br
ATOM     11  C   UNL     1       0.261  10.968  20.707  0.00  0.00    +0.000 A 
ATOM     12  C   UNL     1       0.951  10.822  19.503  0.00  0.00    +0.000 A 
ATOM     13 BR   UNL     1       1.032  12.307  18.325  0.00  0.00    +0.000 Br
ATOM     14  C   UNL     1       1.568   9.606  19.173  0.00  0.00    +0.000 A 
BRANCH  14  15
ATOM     15  O   UNL     1       2.245   9.466  17.990  0.00  0.00    +0.000 OA
ATOM     16  H   UNL     1       1.720   9.910  17.295  0.00  0.00    +0.000 HD
ENDBRANCH  14  15
ENDBRANCH   6   7
ENDBRANCH   3   5
BRANCH   1  17
ATOM     17  C   UNL     1       2.620   2.677  19.740  0.00  0.00    +0.000 C 
BRANCH  17  20
ATOM     18  C   UNL     1       3.578   3.465  17.585  0.00  0.00    +0.000 C 
ATOM     19  O   UNL     1       2.464   3.715  17.127  0.00  0.00    +0.000 OA
ATOM     20  N   UNL     1       3.746   2.968  18.858  0.00  0.00    +0.000 N 
ATOM     21  H   UNL     1       4.669   2.695  19.190  0.00  0.00    +0.000 HD
BRANCH  18  22
ATOM     22  C   UNL     1       4.871   3.712  16.795  0.00  0.00    +0.000 C 
BRANCH  22  23
ATOM     23  O   UNL     1       5.053   5.104  16.565  0.00  0.00    +0.000 OA
BRANCH  23  29
ATOM     24  C   UNL     1       7.977   9.003  17.663  0.00  0.00    +0.000 C 
ATOM     25  C   UNL     1       7.548   7.574  17.839  0.00  0.00    +0.000 A 
ATOM     26  C   UNL     1       8.196   6.750  18.766  0.00  0.00    +0.000 A 
ATOM     27  C   UNL     1       7.796   5.426  18.925  0.00  0.00    +0.000 A 
ATOM     28  C   UNL     1       6.743   4.921  18.160  0.00  0.00    +0.000 A 
ATOM     29  C   UNL     1       6.078   5.727  17.231  0.00  0.00    +0.000 A 
ATOM     30  C   UNL     1       6.489   7.053  17.071  0.00  0.00    +0.000 A 
ENDBRANCH  23  29
ENDBRANCH  22  23
ENDBRANCH  18  22
ENDBRANCH  17  20
ENDBRANCH   1  17
TORSDOF 8
ENDMDL
MODEL 9
REMARK VINA RESULT:      -7.2      1.648      1.841
REMARK  Name = 
REMARK  9 active torsions:
REMARK  status: ('A' for Active; 'I' for Inactive)
REMARK    1  A    between atoms: C_1  and  C_2
REMARK    2  A    between atoms: C_6  and  O_7
REMARK    3  A    between atoms: O_7  and  C_8
REMARK    4  A    between atoms: C_8  and  C_9
REMARK    5  A    between atoms: N_11  and  C_12
REMARK    6  A    between atoms: C_12  and  C_13
REMARK    7  A    between atoms: N_15  and  N_16
REMARK    8  A    between atoms: C_17  and  C_18
REMARK    9  A    between atoms: C_25  and  O_26
REMARK                            x       y       z     vdW  Elec       q    Type
REMARK                         _______ _______ _______ _____ _____    ______ ____
ROOT
ATOM      1  C   UNL     1       8.236   8.889  18.280  0.00  0.00    +0.000 C 
ATOM      2  O   UNL     1       7.547   9.678  17.628  0.00  0.00    +0.000 OA
ATOM      3  N   UNL     1       9.151   9.259  19.258  0.00  0.00    +0.000 N 
ATOM      4  H   UNL     1       9.702   8.577  19.772  0.00  0.00    +0.000 HD
ENDROOT
BRANCH   3   5
ATOM      5  N   UNL     1       9.312  10.589  19.525  0.00  0.00    +0.000 NA
ATOM      6  C   UNL     1      10.029  11.305  18.716  0.00  0.00    +0.000 C 
BRANCH   6   7
ATOM      7  C   UNL     1      10.217  12.755  18.980  0.00  0.00    +0.000 A 
ATOM      8  C   UNL     1      10.048  13.237  20.287  0.00  0.00    +0.000 A 
ATOM      9  C   UNL     1      10.219  14.594  20.562  0.00  0.00    +0.000 A 
ATOM     10 BR   UNL     1       9.988  15.226  22.328  0.00  0.00    +0.000 Br
ATOM     11  C   UNL     1      10.558  15.487  19.549  0.00  0.00    +0.000 A 
ATOM     12  C   UNL     1      10.726  15.010  18.249  0.00  0.00    +0.000 A 
ATOM     13 BR   UNL     1      11.188  16.247  16.886  0.00  0.00    +0.000 Br
ATOM     14  C   UNL     1      10.559  13.647  17.957  0.00  0.00    +0.000 A 
BRANCH  14  15
ATOM     15  O   UNL     1      10.725  13.182  16.679  0.00  0.00    +0.000 OA
ATOM     16  H   UNL     1       9.879  12.780  16.398  0.00  0.00    +0.000 HD
ENDBRANCH  14  15
ENDBRANCH   6   7
ENDBRANCH   3   5
BRANCH   1  17
ATOM     17  C   UNL     1       8.126   7.379  18.047  0.00  0.00    +0.000 C 
BRANCH  17  20
ATOM     18  C   UNL     1       6.649   5.958  16.640  0.00  0.00    +0.000 C 
ATOM     19  O   UNL     1       7.566   5.178  16.384  0.00  0.00    +0.000 OA
ATOM     20  N   UNL     1       6.832   7.053  17.454  0.00  0.00    +0.000 N 
ATOM     21  H   UNL     1       6.083   7.728  17.591  0.00  0.00    +0.000 HD
BRANCH  18  22
ATOM     22  C   UNL     1       5.224   5.764  16.101  0.00  0.00    +0.000 C 
BRANCH  22  23
ATOM     23  O   UNL     1       4.734   4.476  16.451  0.00  0.00    +0.000 OA
BRANCH  23  29
ATOM     24  C   UNL     1       1.984   6.212  20.244  0.00  0.00    +0.000 C 
ATOM     25  C   UNL     1       2.302   5.183  19.196  0.00  0.00    +0.000 A 
ATOM     26  C   UNL     1       1.506   4.039  19.064  0.00  0.00    +0.000 A 
ATOM     27  C   UNL     1       1.806   3.088  18.092  0.00  0.00    +0.000 A 
ATOM     28  C   UNL     1       2.901   3.277  17.247  0.00  0.00    +0.000 A 
ATOM     29  C   UNL     1       3.707   4.414  17.358  0.00  0.00    +0.000 A 
ATOM     30  C   UNL     1       3.406   5.363  18.340  0.00  0.00    +0.000 A 
ENDBRANCH  23  29
ENDBRANCH  22  23
ENDBRANCH  18  22
ENDBRANCH  17  20
ENDBRANCH   1  17
TORSDOF 8
ENDMDL
