MODEL 1
REMARK VINA RESULT:      -7.5      0.000      0.000
REMARK  Name = 
REMARK  4 active torsions:
REMARK  status: ('A' for Active; 'I' for Inactive)
REMARK    1  A    between atoms: C_2  and  O_3
REMARK    2  A    between atoms: C_2  and  C_4
REMARK    3  A    between atoms: N_13  and  S_14
REMARK    4  A    between atoms: S_14  and  C_17
REMARK                            x       y       z     vdW  Elec       q    Type
REMARK                         _______ _______ _______ _____ _____    ______ ____
ROOT
ATOM      1  C   UNL     1       4.437   3.053  17.618  0.00  0.00    +0.000 C 
ATOM      2  C   UNL     1       2.969   3.166  17.187  0.00  0.00    +0.000 C 
ATOM      3  C   UNL     1       2.182   3.694  18.356  0.00  0.00    +0.000 A 
ATOM      4  C   UNL     1       0.984   3.106  18.763  0.00  0.00    +0.000 A 
ATOM      5  C   UNL     1       0.400   3.498  19.964  0.00  0.00    +0.000 A 
ATOM      6  C   UNL     1       1.002   4.486  20.745  0.00  0.00    +0.000 A 
ATOM      7  C   UNL     1       2.171   5.114  20.313  0.00  0.00    +0.000 A 
ATOM      8  C   UNL     1       2.771   4.721  19.113  0.00  0.00    +0.000 A 
ATOM      9  C   UNL     1       4.018   5.376  18.575  0.00  0.00    +0.000 C 
ATOM     10  N   UNL     1       5.042   4.426  18.006  0.00  0.00    +0.000 NA
ENDROOT
BRANCH  10  11
ATOM     11  S   UNL     1       5.933   5.064  16.676  0.00  0.00    +0.000 S 
ATOM     12  O   UNL     1       6.795   4.001  16.222  0.00  0.00    +0.000 OA
ATOM     13  O   UNL     1       4.980   5.685  15.782  0.00  0.00    +0.000 OA
BRANCH  11  14
ATOM     14  C   UNL     1       6.957   6.348  17.356  0.00  0.00    +0.000 A 
ATOM     15  C   UNL     1       6.884   7.644  16.836  0.00  0.00    +0.000 A 
ATOM     16  C   UNL     1       7.611   8.672  17.443  0.00  0.00    +0.000 A 
ATOM     17  C   UNL     1       8.395   8.405  18.567  0.00  0.00    +0.000 A 
ATOM     18 CL   UNL     1       9.279   9.675  19.318  0.00  0.00    +0.000 Cl
ATOM     19  C   UNL     1       8.453   7.116  19.098  0.00  0.00    +0.000 A 
ATOM     20  C   UNL     1       7.725   6.086  18.499  0.00  0.00    +0.000 A 
ENDBRANCH  11  14
ENDBRANCH  10  11
BRANCH   1  22
ATOM     21  O   UNL     1       4.993   2.378  19.911  0.00  0.00    +0.000 OA
ATOM     22  C   UNL     1       4.607   2.077  18.790  0.00  0.00    +0.000 C 
BRANCH  22  23
ATOM     23  O   UNL     1       4.233   0.812  18.461  0.00  0.00    +0.000 OA
ATOM     24  H   UNL     1       4.889   0.194  18.853  0.00  0.00    +0.000 HD
ENDBRANCH  22  23
ENDBRANCH   1  22
TORSDOF 4
ENDMDL
MODEL 2
REMARK VINA RESULT:      -7.5      0.149      1.022
REMARK  Name = 
REMARK  4 active torsions:
REMARK  status: ('A' for Active; 'I' for Inactive)
REMARK    1  A    between atoms: C_2  and  O_3
REMARK    2  A    between atoms: C_2  and  C_4
REMARK    3  A    between atoms: N_13  and  S_14
REMARK    4  A    between atoms: S_14  and  C_17
REMARK                            x       y       z     vdW  Elec       q    Type
REMARK                         _______ _______ _______ _____ _____    ______ ____
ROOT
ATOM      1  C   UNL     1       4.464   3.062  17.664  0.00  0.00    +0.000 C 
ATOM      2  C   UNL     1       3.010   3.171  17.187  0.00  0.00    +0.000 C 
ATOM      3  C   UNL     1       2.177   3.654  18.343  0.00  0.00    +0.000 A 
ATOM      4  C   UNL     1       0.974   3.039  18.691  0.00  0.00    +0.000 A 
ATOM      5  C   UNL     1       0.345   3.388  19.883  0.00  0.00    +0.000 A 
ATOM      6  C   UNL     1       0.907   4.359  20.713  0.00  0.00    +0.000 A 
ATOM      7  C   UNL     1       2.082   5.014  20.340  0.00  0.00    +0.000 A 
ATOM      8  C   UNL     1       2.727   4.664  19.150  0.00  0.00    +0.000 A 
ATOM      9  C   UNL     1       3.983   5.350  18.675  0.00  0.00    +0.000 C 
ATOM     10  N   UNL     1       5.038   4.430  18.113  0.00  0.00    +0.000 NA
ENDROOT
BRANCH  10  11
ATOM     11  S   UNL     1       5.965   5.118  16.834  0.00  0.00    +0.000 S 
ATOM     12  O   UNL     1       6.921   4.111  16.442  0.00  0.00    +0.000 OA
ATOM     13  O   UNL     1       5.030   5.671  15.879  0.00  0.00    +0.000 OA
BRANCH  11  14
ATOM     14  C   UNL     1       6.860   6.470  17.563  0.00  0.00    +0.000 A 
ATOM     15  C   UNL     1       7.731   6.231  18.632  0.00  0.00    +0.000 A 
ATOM     16  C   UNL     1       8.513   7.277  19.130  0.00  0.00    +0.000 A 
ATOM     17  C   UNL     1       8.429   8.547  18.557  0.00  0.00    +0.000 A 
ATOM     18 CL   UNL     1       9.400   9.829  19.168  0.00  0.00    +0.000 Cl
ATOM     19  C   UNL     1       7.574   8.781  17.480  0.00  0.00    +0.000 A 
ATOM     20  C   UNL     1       6.795   7.740  16.973  0.00  0.00    +0.000 A 
ENDBRANCH  11  14
ENDBRANCH  10  11
BRANCH   1  22
ATOM     21  O   UNL     1       4.953   2.324  19.952  0.00  0.00    +0.000 OA
ATOM     22  C   UNL     1       4.607   2.053  18.811  0.00  0.00    +0.000 C 
BRANCH  22  23
ATOM     23  O   UNL     1       4.258   0.794  18.434  0.00  0.00    +0.000 OA
ATOM     24  H   UNL     1       4.592   0.652  17.521  0.00  0.00    +0.000 HD
ENDBRANCH  22  23
ENDBRANCH   1  22
TORSDOF 4
ENDMDL
MODEL 3
REMARK VINA RESULT:      -7.3      3.271      4.147
REMARK  Name = 
REMARK  4 active torsions:
REMARK  status: ('A' for Active; 'I' for Inactive)
REMARK    1  A    between atoms: C_2  and  O_3
REMARK    2  A    between atoms: C_2  and  C_4
REMARK    3  A    between atoms: N_13  and  S_14
REMARK    4  A    between atoms: S_14  and  C_17
REMARK                            x       y       z     vdW  Elec       q    Type
REMARK                         _______ _______ _______ _____ _____    ______ ____
ROOT
ATOM      1  C   UNL     1       3.130   4.992  17.764  0.00  0.00    +0.000 C 
ATOM      2  C   UNL     1       2.633   5.590  19.086  0.00  0.00    +0.000 C 
ATOM      3  C   UNL     1       2.548   4.477  20.096  0.00  0.00    +0.000 A 
ATOM      4  C   UNL     1       1.422   4.298  20.901  0.00  0.00    +0.000 A 
ATOM      5  C   UNL     1       1.305   3.143  21.669  0.00  0.00    +0.000 A 
ATOM      6  C   UNL     1       2.317   2.182  21.647  0.00  0.00    +0.000 A 
ATOM      7  C   UNL     1       3.469   2.385  20.884  0.00  0.00    +0.000 A 
ATOM      8  C   UNL     1       3.591   3.537  20.101  0.00  0.00    +0.000 A 
ATOM      9  C   UNL     1       4.819   3.831  19.276  0.00  0.00    +0.000 C 
ATOM     10  N   UNL     1       4.545   4.372  17.896  0.00  0.00    +0.000 NA
ENDROOT
BRANCH  10  11
ATOM     11  S   UNL     1       5.724   5.494  17.331  0.00  0.00    +0.000 S 
ATOM     12  O   UNL     1       5.078   6.784  17.314  0.00  0.00    +0.000 OA
ATOM     13  O   UNL     1       6.928   5.272  18.101  0.00  0.00    +0.000 OA
BRANCH  11  14
ATOM     14  C   UNL     1       6.061   5.028  15.648  0.00  0.00    +0.000 A 
ATOM     15  C   UNL     1       7.258   5.426  15.044  0.00  0.00    +0.000 A 
ATOM     16  C   UNL     1       7.567   4.968  13.760  0.00  0.00    +0.000 A 
ATOM     17  C   UNL     1       6.689   4.112  13.093  0.00  0.00    +0.000 A 
ATOM     18 CL   UNL     1       7.078   3.542  11.517  0.00  0.00    +0.000 Cl
ATOM     19  C   UNL     1       5.504   3.700  13.703  0.00  0.00    +0.000 A 
ATOM     20  C   UNL     1       5.193   4.149  14.987  0.00  0.00    +0.000 A 
ENDBRANCH  11  14
ENDBRANCH  10  11
BRANCH   1  22
ATOM     21  O   UNL     1       2.473   2.799  16.880  0.00  0.00    +0.000 OA
ATOM     22  C   UNL     1       2.161   3.930  17.226  0.00  0.00    +0.000 C 
BRANCH  22  23
ATOM     23  O   UNL     1       0.875   4.370  17.212  0.00  0.00    +0.000 OA
ATOM     24  H   UNL     1       0.683   4.706  16.309  0.00  0.00    +0.000 HD
ENDBRANCH  22  23
ENDBRANCH   1  22
TORSDOF 4
ENDMDL
MODEL 4
REMARK VINA RESULT:      -7.3      3.255      4.119
REMARK  Name = 
REMARK  4 active torsions:
REMARK  status: ('A' for Active; 'I' for Inactive)
REMARK    1  A    between atoms: C_2  and  O_3
REMARK    2  A    between atoms: C_2  and  C_4
REMARK    3  A    between atoms: N_13  and  S_14
REMARK    4  A    between atoms: S_14  and  C_17
REMARK                            x       y       z     vdW  Elec       q    Type
REMARK                         _______ _______ _______ _____ _____    ______ ____
ROOT
ATOM      1  C   UNL     1       3.121   4.963  17.754  0.00  0.00    +0.000 C 
ATOM      2  C   UNL     1       2.613   5.572  19.067  0.00  0.00    +0.000 C 
ATOM      3  C   UNL     1       2.530   4.469  20.087  0.00  0.00    +0.000 A 
ATOM      4  C   UNL     1       1.401   4.292  20.888  0.00  0.00    +0.000 A 
ATOM      5  C   UNL     1       1.287   3.145  21.668  0.00  0.00    +0.000 A 
ATOM      6  C   UNL     1       2.304   2.189  21.661  0.00  0.00    +0.000 A 
ATOM      7  C   UNL     1       3.458   2.391  20.902  0.00  0.00    +0.000 A 
ATOM      8  C   UNL     1       3.578   3.535  20.108  0.00  0.00    +0.000 A 
ATOM      9  C   UNL     1       4.809   3.828  19.286  0.00  0.00    +0.000 C 
ATOM     10  N   UNL     1       4.538   4.353  17.899  0.00  0.00    +0.000 NA
ENDROOT
BRANCH  10  11
ATOM     11  S   UNL     1       5.714   5.476  17.328  0.00  0.00    +0.000 S 
ATOM     12  O   UNL     1       5.031   6.739  17.188  0.00  0.00    +0.000 OA
ATOM     13  O   UNL     1       6.876   5.347  18.179  0.00  0.00    +0.000 OA
BRANCH  11  14
ATOM     14  C   UNL     1       6.165   4.913  15.703  0.00  0.00    +0.000 A 
ATOM     15  C   UNL     1       5.296   4.083  14.989  0.00  0.00    +0.000 A 
ATOM     16  C   UNL     1       5.605   3.732  13.671  0.00  0.00    +0.000 A 
ATOM     17  C   UNL     1       6.770   4.217  13.074  0.00  0.00    +0.000 A 
ATOM     18 CL   UNL     1       7.142   3.790  11.449  0.00  0.00    +0.000 Cl
ATOM     19  C   UNL     1       7.629   5.060  13.780  0.00  0.00    +0.000 A 
ATOM     20  C   UNL     1       7.322   5.419  15.094  0.00  0.00    +0.000 A 
ENDBRANCH  11  14
ENDBRANCH  10  11
BRANCH   1  22
ATOM     21  O   UNL     1       2.484   2.763  16.873  0.00  0.00    +0.000 OA
ATOM     22  C   UNL     1       2.161   3.890  17.221  0.00  0.00    +0.000 C 
BRANCH  22  23
ATOM     23  O   UNL     1       0.870   4.315  17.215  0.00  0.00    +0.000 OA
ATOM     24  H   UNL     1       0.851   5.211  16.813  0.00  0.00    +0.000 HD
ENDBRANCH  22  23
ENDBRANCH   1  22
TORSDOF 4
ENDMDL
MODEL 5
REMARK VINA RESULT:      -7.3      1.533      2.808
REMARK  Name = 
REMARK  4 active torsions:
REMARK  status: ('A' for Active; 'I' for Inactive)
REMARK    1  A    between atoms: C_2  and  O_3
REMARK    2  A    between atoms: C_2  and  C_4
REMARK    3  A    between atoms: N_13  and  S_14
REMARK    4  A    between atoms: S_14  and  C_17
REMARK                            x       y       z     vdW  Elec       q    Type
REMARK                         _______ _______ _______ _____ _____    ______ ____
ROOT
ATOM      1  C   UNL     1       4.245   5.872  18.516  0.00  0.00    +0.000 C 
ATOM      2  C   UNL     1       4.371   4.839  19.642  0.00  0.00    +0.000 C 
ATOM      3  C   UNL     1       3.144   3.969  19.614  0.00  0.00    +0.000 A 
ATOM      4  C   UNL     1       2.423   3.675  20.772  0.00  0.00    +0.000 A 
ATOM      5  C   UNL     1       1.189   3.040  20.669  0.00  0.00    +0.000 A 
ATOM      6  C   UNL     1       0.686   2.684  19.416  0.00  0.00    +0.000 A 
ATOM      7  C   UNL     1       1.432   2.929  18.261  0.00  0.00    +0.000 A 
ATOM      8  C   UNL     1       2.668   3.575  18.353  0.00  0.00    +0.000 A 
ATOM      9  C   UNL     1       3.535   3.844  17.148  0.00  0.00    +0.000 C 
ATOM     10  N   UNL     1       4.175   5.209  17.117  0.00  0.00    +0.000 NA
ENDROOT
BRANCH  10  11
ATOM     11  S   UNL     1       5.733   5.240  16.382  0.00  0.00    +0.000 S 
ATOM     12  O   UNL     1       6.335   3.958  16.657  0.00  0.00    +0.000 OA
ATOM     13  O   UNL     1       5.556   5.706  15.024  0.00  0.00    +0.000 OA
BRANCH  11  14
ATOM     14  C   UNL     1       6.655   6.478  17.265  0.00  0.00    +0.000 A 
ATOM     15  C   UNL     1       7.580   6.092  18.240  0.00  0.00    +0.000 A 
ATOM     16  C   UNL     1       8.379   7.061  18.854  0.00  0.00    +0.000 A 
ATOM     17  C   UNL     1       8.257   8.402  18.487  0.00  0.00    +0.000 A 
ATOM     18 CL   UNL     1       9.249   9.591  19.238  0.00  0.00    +0.000 Cl
ATOM     19  C   UNL     1       7.347   8.786  17.501  0.00  0.00    +0.000 A 
ATOM     20  C   UNL     1       6.551   7.822  16.880  0.00  0.00    +0.000 A 
ENDBRANCH  11  14
ENDBRANCH  10  11
BRANCH   1  22
ATOM     21  O   UNL     1       2.267   7.148  17.821  0.00  0.00    +0.000 OA
ATOM     22  C   UNL     1       3.016   6.771  18.711  0.00  0.00    +0.000 C 
BRANCH  22  23
ATOM     23  O   UNL     1       2.811   7.082  20.019  0.00  0.00    +0.000 OA
ATOM     24  H   UNL     1       3.469   6.585  20.552  0.00  0.00    +0.000 HD
ENDBRANCH  22  23
ENDBRANCH   1  22
TORSDOF 4
ENDMDL
MODEL 6
REMARK VINA RESULT:      -7.0      1.556      2.583
REMARK  Name = 
REMARK  4 active torsions:
REMARK  status: ('A' for Active; 'I' for Inactive)
REMARK    1  A    between atoms: C_2  and  O_3
REMARK    2  A    between atoms: C_2  and  C_4
REMARK    3  A    between atoms: N_13  and  S_14
REMARK    4  A    between atoms: S_14  and  C_17
REMARK                            x       y       z     vdW  Elec       q    Type
REMARK                         _______ _______ _______ _____ _____    ______ ____
ROOT
ATOM      1  C   UNL     1       4.231   5.566  18.457  0.00  0.00    +0.000 C 
ATOM      2  C   UNL     1       4.368   4.553  19.600  0.00  0.00    +0.000 C 
ATOM      3  C   UNL     1       3.084   3.774  19.686  0.00  0.00    +0.000 A 
ATOM      4  C   UNL     1       2.432   3.560  20.901  0.00  0.00    +0.000 A 
ATOM      5  C   UNL     1       1.152   3.014  20.907  0.00  0.00    +0.000 A 
ATOM      6  C   UNL     1       0.534   2.667  19.705  0.00  0.00    +0.000 A 
ATOM      7  C   UNL     1       1.206   2.830  18.491  0.00  0.00    +0.000 A 
ATOM      8  C   UNL     1       2.488   3.387  18.474  0.00  0.00    +0.000 A 
ATOM      9  C   UNL     1       3.279   3.564  17.203  0.00  0.00    +0.000 C 
ATOM     10  N   UNL     1       4.009   4.878  17.086  0.00  0.00    +0.000 NA
ENDROOT
BRANCH  10  11
ATOM     11  S   UNL     1       5.507   4.779  16.239  0.00  0.00    +0.000 S 
ATOM     12  O   UNL     1       6.052   3.477  16.533  0.00  0.00    +0.000 OA
ATOM     13  O   UNL     1       5.254   5.191  14.876  0.00  0.00    +0.000 OA
BRANCH  11  14
ATOM     14  C   UNL     1       6.563   5.998  16.988  0.00  0.00    +0.000 A 
ATOM     15  C   UNL     1       6.423   7.346  16.641  0.00  0.00    +0.000 A 
ATOM     16  C   UNL     1       7.181   8.311  17.311  0.00  0.00    +0.000 A 
ATOM     17  C   UNL     1       8.062   7.929  18.324  0.00  0.00    +0.000 A 
ATOM     18 CL   UNL     1       8.985   9.121  19.153  0.00  0.00    +0.000 Cl
ATOM     19  C   UNL     1       8.188   6.587  18.683  0.00  0.00    +0.000 A 
ATOM     20  C   UNL     1       7.430   5.619  18.022  0.00  0.00    +0.000 A 
ENDBRANCH  11  14
ENDBRANCH  10  11
BRANCH   1  22
ATOM     21  O   UNL     1       2.323   6.992  17.865  0.00  0.00    +0.000 OA
ATOM     22  C   UNL     1       3.087   6.557  18.715  0.00  0.00    +0.000 C 
BRANCH  22  23
ATOM     23  O   UNL     1       2.975   6.879  20.031  0.00  0.00    +0.000 OA
ATOM     24  H   UNL     1       2.854   6.044  20.534  0.00  0.00    +0.000 HD
ENDBRANCH  22  23
ENDBRANCH   1  22
TORSDOF 4
ENDMDL
MODEL 7
REMARK VINA RESULT:      -6.8      2.936      3.553
REMARK  Name = 
REMARK  4 active torsions:
REMARK  status: ('A' for Active; 'I' for Inactive)
REMARK    1  A    between atoms: C_2  and  O_3
REMARK    2  A    between atoms: C_2  and  C_4
REMARK    3  A    between atoms: N_13  and  S_14
REMARK    4  A    between atoms: S_14  and  C_17
REMARK                            x       y       z     vdW  Elec       q    Type
REMARK                         _______ _______ _______ _____ _____    ______ ____
ROOT
ATOM      1  C   UNL     1       5.006   3.116  18.329  0.00  0.00    +0.000 C 
ATOM      2  C   UNL     1       3.723   3.387  17.534  0.00  0.00    +0.000 C 
ATOM      3  C   UNL     1       2.647   3.780  18.510  0.00  0.00    +0.000 A 
ATOM      4  C   UNL     1       1.372   3.214  18.467  0.00  0.00    +0.000 A 
ATOM      5  C   UNL     1       0.479   3.456  19.508  0.00  0.00    +0.000 A 
ATOM      6  C   UNL     1       0.853   4.273  20.576  0.00  0.00    +0.000 A 
ATOM      7  C   UNL     1       2.109   4.884  20.592  0.00  0.00    +0.000 A 
ATOM      8  C   UNL     1       3.016   4.640  19.558  0.00  0.00    +0.000 A 
ATOM      9  C   UNL     1       4.376   5.288  19.501  0.00  0.00    +0.000 C 
ATOM     10  N   UNL     1       5.501   4.373  19.089  0.00  0.00    +0.000 NA
ENDROOT
BRANCH  10  11
ATOM     11  S   UNL     1       6.744   5.147  18.181  0.00  0.00    +0.000 S 
ATOM     12  O   UNL     1       6.622   6.559  18.451  0.00  0.00    +0.000 OA
ATOM     13  O   UNL     1       7.976   4.439  18.452  0.00  0.00    +0.000 OA
BRANCH  11  14
ATOM     14  C   UNL     1       6.329   4.878  16.473  0.00  0.00    +0.000 A 
ATOM     15  C   UNL     1       6.852   3.771  15.796  0.00  0.00    +0.000 A 
ATOM     16  C   UNL     1       6.437   3.505  14.488  0.00  0.00    +0.000 A 
ATOM     17  C   UNL     1       5.501   4.334  13.869  0.00  0.00    +0.000 A 
ATOM     18 CL   UNL     1       4.986   3.996  12.262  0.00  0.00    +0.000 Cl
ATOM     19  C   UNL     1       4.964   5.427  14.550  0.00  0.00    +0.000 A 
ATOM     20  C   UNL     1       5.370   5.695  15.858  0.00  0.00    +0.000 A 
ENDBRANCH  11  14
ENDBRANCH  10  11
BRANCH   1  22
ATOM     21  O   UNL     1       5.023   2.031  20.530  0.00  0.00    +0.000 OA
ATOM     22  C   UNL     1       4.820   1.964  19.326  0.00  0.00    +0.000 C 
BRANCH  22  23
ATOM     23  O   UNL     1       4.349   0.838  18.727  0.00  0.00    +0.000 OA
ATOM     24  H   UNL     1       5.123   0.296  18.459  0.00  0.00    +0.000 HD
ENDBRANCH  22  23
ENDBRANCH   1  22
TORSDOF 4
ENDMDL
MODEL 8
REMARK VINA RESULT:      -6.8      3.294      4.431
REMARK  Name = 
REMARK  4 active torsions:
REMARK  status: ('A' for Active; 'I' for Inactive)
REMARK    1  A    between atoms: C_2  and  O_3
REMARK    2  A    between atoms: C_2  and  C_4
REMARK    3  A    between atoms: N_13  and  S_14
REMARK    4  A    between atoms: S_14  and  C_17
REMARK                            x       y       z     vdW  Elec       q    Type
REMARK                         _______ _______ _______ _____ _____    ______ ____
ROOT
ATOM      1  C   UNL     1       4.101   5.941  19.039  0.00  0.00    +0.000 C 
ATOM      2  C   UNL     1       4.002   4.917  20.176  0.00  0.00    +0.000 C 
ATOM      3  C   UNL     1       2.876   3.973  19.855  0.00  0.00    +0.000 A 
ATOM      4  C   UNL     1       1.906   3.635  20.800  0.00  0.00    +0.000 A 
ATOM      5  C   UNL     1       0.777   2.925  20.401  0.00  0.00    +0.000 A 
ATOM      6  C   UNL     1       0.628   2.540  19.068  0.00  0.00    +0.000 A 
ATOM      7  C   UNL     1       1.623   2.830  18.132  0.00  0.00    +0.000 A 
ATOM      8  C   UNL     1       2.755   3.551  18.521  0.00  0.00    +0.000 A 
ATOM      9  C   UNL     1       3.879   3.873  17.568  0.00  0.00    +0.000 C 
ATOM     10  N   UNL     1       4.424   5.275  17.677  0.00  0.00    +0.000 NA
ENDROOT
BRANCH  10  11
ATOM     11  S   UNL     1       6.112   5.403  17.355  0.00  0.00    +0.000 S 
ATOM     12  O   UNL     1       6.448   6.797  17.513  0.00  0.00    +0.000 OA
ATOM     13  O   UNL     1       6.774   4.382  18.137  0.00  0.00    +0.000 OA
BRANCH  11  14
ATOM     14  C   UNL     1       6.306   4.983  15.638  0.00  0.00    +0.000 A 
ATOM     15  C   UNL     1       7.463   5.372  14.955  0.00  0.00    +0.000 A 
ATOM     16  C   UNL     1       7.660   4.948  13.637  0.00  0.00    +0.000 A 
ATOM     17  C   UNL     1       6.710   4.135  13.015  0.00  0.00    +0.000 A 
ATOM     18 CL   UNL     1       6.961   3.607  11.397  0.00  0.00    +0.000 Cl
ATOM     19  C   UNL     1       5.565   3.732  13.703  0.00  0.00    +0.000 A 
ATOM     20  C   UNL     1       5.366   4.147  15.021  0.00  0.00    +0.000 A 
ENDBRANCH  11  14
ENDBRANCH  10  11
BRANCH   1  22
ATOM     21  O   UNL     1       2.203   6.961  17.864  0.00  0.00    +0.000 OA
ATOM     22  C   UNL     1       2.811   6.763  18.907  0.00  0.00    +0.000 C 
BRANCH  22  23
ATOM     23  O   UNL     1       2.373   7.226  20.107  0.00  0.00    +0.000 OA
ATOM     24  H   UNL     1       2.178   8.183  20.005  0.00  0.00    +0.000 HD
ENDBRANCH  22  23
ENDBRANCH   1  22
TORSDOF 4
ENDMDL
MODEL 9
REMARK VINA RESULT:      -6.8      3.248      4.395
REMARK  Name = 
REMARK  4 active torsions:
REMARK  status: ('A' for Active; 'I' for Inactive)
REMARK    1  A    between atoms: C_2  and  O_3
REMARK    2  A    between atoms: C_2  and  C_4
REMARK    3  A    between atoms: N_13  and  S_14
REMARK    4  A    between atoms: S_14  and  C_17
REMARK                            x       y       z     vdW  Elec       q    Type
REMARK                         _______ _______ _______ _____ _____    ______ ____
ROOT
ATOM      1  C   UNL     1       4.081   5.874  19.118  0.00  0.00    +0.000 C 
ATOM      2  C   UNL     1       3.941   4.849  20.250  0.00  0.00    +0.000 C 
ATOM      3  C   UNL     1       2.823   3.908  19.889  0.00  0.00    +0.000 A 
ATOM      4  C   UNL     1       1.821   3.572  20.800  0.00  0.00    +0.000 A 
ATOM      5  C   UNL     1       0.705   2.866  20.362  0.00  0.00    +0.000 A 
ATOM      6  C   UNL     1       0.600   2.482  19.024  0.00  0.00    +0.000 A 
ATOM      7  C   UNL     1       1.627   2.771  18.123  0.00  0.00    +0.000 A 
ATOM      8  C   UNL     1       2.748   3.488  18.551  0.00  0.00    +0.000 A 
ATOM      9  C   UNL     1       3.904   3.808  17.638  0.00  0.00    +0.000 C 
ATOM     10  N   UNL     1       4.449   5.208  17.767  0.00  0.00    +0.000 NA
ENDROOT
BRANCH  10  11
ATOM     11  S   UNL     1       6.147   5.332  17.504  0.00  0.00    +0.000 S 
ATOM     12  O   UNL     1       6.469   6.735  17.594  0.00  0.00    +0.000 OA
ATOM     13  O   UNL     1       6.785   4.363  18.368  0.00  0.00    +0.000 OA
BRANCH  11  14
ATOM     14  C   UNL     1       6.411   4.816  15.822  0.00  0.00    +0.000 A 
ATOM     15  C   UNL     1       5.459   4.014  15.185  0.00  0.00    +0.000 A 
ATOM     16  C   UNL     1       5.618   3.701  13.831  0.00  0.00    +0.000 A 
ATOM     17  C   UNL     1       6.715   4.196  13.123  0.00  0.00    +0.000 A 
ATOM     18 CL   UNL     1       6.901   3.816  11.456  0.00  0.00    +0.000 Cl
ATOM     19  C   UNL     1       7.654   5.011  13.755  0.00  0.00    +0.000 A 
ATOM     20  C   UNL     1       7.498   5.332  15.104  0.00  0.00    +0.000 A 
ENDBRANCH  11  14
ENDBRANCH  10  11
BRANCH   1  22
ATOM     21  O   UNL     1       2.201   6.861  17.887  0.00  0.00    +0.000 OA
ATOM     22  C   UNL     1       2.799   6.699  18.942  0.00  0.00    +0.000 C 
BRANCH  22  23
ATOM     23  O   UNL     1       2.355   7.213  20.120  0.00  0.00    +0.000 OA
ATOM     24  H   UNL     1       1.739   7.949  19.911  0.00  0.00    +0.000 HD
ENDBRANCH  22  23
ENDBRANCH   1  22
TORSDOF 4
ENDMDL
