MODEL 1
REMARK VINA RESULT:      -8.4      0.000      0.000
REMARK  Name = 
REMARK  5 active torsions:
REMARK  status: ('A' for Active; 'I' for Inactive)
REMARK    1  A    between atoms: C_1  and  C_2
REMARK    2  A    between atoms: C_2  and  O_3
REMARK    3  A    between atoms: C_2  and  C_4
REMARK    4  A    between atoms: C_7  and  C_8
REMARK    5  A    between atoms: C_9  and  O_10
REMARK                            x       y       z     vdW  Elec       q    Type
REMARK                         _______ _______ _______ _____ _____    ______ ____
ROOT
ATOM      1  C   UNL     1       3.660   6.034  17.493  0.00  0.00    +0.000 A 
ATOM      2  C   UNL     1       4.740   6.235  16.569  0.00  0.00    +0.000 A 
ATOM      3  C   UNL     1       5.401   5.218  15.873  0.00  0.00    +0.000 A 
ATOM      4  C   UNL     1       5.224   3.916  16.287  0.00  0.00    +0.000 A 
ATOM      5  C   UNL     1       4.351   3.714  17.327  0.00  0.00    +0.000 A 
ATOM      6  N   UNL     1       4.632   2.623  18.219  0.00  0.00    +0.000 N 
ATOM      7  C   UNL     1       4.174   2.691  19.540  0.00  0.00    +0.000 A 
ATOM      8  O   UNL     1       4.839   2.359  20.510  0.00  0.00    +0.000 OA
ATOM      9  C   UNL     1       2.793   3.083  19.501  0.00  0.00    +0.000 A 
ATOM     10  S   UNL     1       1.650   1.975  20.068  0.00  0.00    +0.000 S 
ATOM     11  C   UNL     1       0.630   2.367  18.752  0.00  0.00    +0.000 A 
ATOM     12  C   UNL     1       1.063   3.514  18.095  0.00  0.00    +0.000 A 
ATOM     13  C   UNL     1       2.331   4.033  18.610  0.00  0.00    +0.000 A 
ATOM     14  C   UNL     1       3.398   4.681  17.783  0.00  0.00    +0.000 A 
ATOM     15  H   UNL     1       5.210   1.842  17.944  0.00  0.00    +0.000 HD
ENDROOT
BRANCH   1  19
ATOM     16  C   UNL     1       1.239   9.124  19.378  0.00  0.00    +0.000 A 
ATOM     17  C   UNL     1       1.787   8.060  20.113  0.00  0.00    +0.000 A 
ATOM     18  C   UNL     1       2.743   7.198  19.540  0.00  0.00    +0.000 A 
ATOM     19  C   UNL     1       3.119   7.263  18.175  0.00  0.00    +0.000 A 
ATOM     20  C   UNL     1       2.676   8.390  17.474  0.00  0.00    +0.000 A 
ATOM     21  C   UNL     1       1.780   9.306  18.072  0.00  0.00    +0.000 A 
BRANCH  16  23
ATOM     22  C   UNL     1      -0.998  10.351  18.941  0.00  0.00    +0.000 C 
ATOM     23  C   UNL     1       0.153  10.028  19.893  0.00  0.00    +0.000 C 
BRANCH  23  24
ATOM     24  O   UNL     1      -0.421   9.446  21.062  0.00  0.00    +0.000 OA
ATOM     25  H   UNL     1      -0.884  10.164  21.527  0.00  0.00    +0.000 HD
ENDBRANCH  23  24
ENDBRANCH  16  23
ENDBRANCH   1  19
BRANCH   2  26
ATOM     26  O   UNL     1       5.364   7.460  16.421  0.00  0.00    +0.000 OA
ATOM     27  H   UNL     1       5.057   7.826  15.569  0.00  0.00    +0.000 HD
ENDBRANCH   2  26
TORSDOF 4
ENDMDL
MODEL 2
REMARK VINA RESULT:      -8.1      2.686      4.244
REMARK  Name = 
REMARK  5 active torsions:
REMARK  status: ('A' for Active; 'I' for Inactive)
REMARK    1  A    between atoms: C_1  and  C_2
REMARK    2  A    between atoms: C_2  and  O_3
REMARK    3  A    between atoms: C_2  and  C_4
REMARK    4  A    between atoms: C_7  and  C_8
REMARK    5  A    between atoms: C_9  and  O_10
REMARK                            x       y       z     vdW  Elec       q    Type
REMARK                         _______ _______ _______ _____ _____    ______ ____
ROOT
ATOM      1  C   UNL     1       2.905   4.626  18.577  0.00  0.00    +0.000 A 
ATOM      2  C   UNL     1       2.184   3.453  18.171  0.00  0.00    +0.000 A 
ATOM      3  C   UNL     1       2.745   2.353  17.514  0.00  0.00    +0.000 A 
ATOM      4  C   UNL     1       3.995   2.491  16.953  0.00  0.00    +0.000 A 
ATOM      5  C   UNL     1       4.626   3.696  17.141  0.00  0.00    +0.000 A 
ATOM      6  N   UNL     1       5.497   4.153  16.095  0.00  0.00    +0.000 N 
ATOM      7  C   UNL     1       5.707   5.528  15.938  0.00  0.00    +0.000 A 
ATOM      8  O   UNL     1       5.733   6.095  14.857  0.00  0.00    +0.000 OA
ATOM      9  C   UNL     1       6.003   6.071  17.234  0.00  0.00    +0.000 A 
ATOM     10  S   UNL     1       7.540   6.734  17.471  0.00  0.00    +0.000 S 
ATOM     11  C   UNL     1       7.612   5.992  19.011  0.00  0.00    +0.000 A 
ATOM     12  C   UNL     1       6.369   5.509  19.404  0.00  0.00    +0.000 A 
ATOM     13  C   UNL     1       5.341   5.647  18.371  0.00  0.00    +0.000 A 
ATOM     14  C   UNL     1       4.235   4.669  18.117  0.00  0.00    +0.000 A 
ATOM     15  H   UNL     1       5.906   3.519  15.423  0.00  0.00    +0.000 HD
ENDROOT
BRANCH   1  19
ATOM     16  C   UNL     1       1.449   8.067  20.813  0.00  0.00    +0.000 A 
ATOM     17  C   UNL     1       1.899   8.180  19.488  0.00  0.00    +0.000 A 
ATOM     18  C   UNL     1       2.155   7.036  18.708  0.00  0.00    +0.000 A 
ATOM     19  C   UNL     1       2.100   5.719  19.230  0.00  0.00    +0.000 A 
ATOM     20  C   UNL     1       1.536   5.592  20.504  0.00  0.00    +0.000 A 
ATOM     21  C   UNL     1       1.198   6.737  21.261  0.00  0.00    +0.000 A 
BRANCH  16  23
ATOM     22  C   UNL     1      -0.085   9.305  22.492  0.00  0.00    +0.000 C 
ATOM     23  C   UNL     1       1.240   9.239  21.733  0.00  0.00    +0.000 C 
BRANCH  23  24
ATOM     24  O   UNL     1       2.282   9.258  22.706  0.00  0.00    +0.000 OA
ATOM     25  H   UNL     1       1.918   9.705  23.490  0.00  0.00    +0.000 HD
ENDBRANCH  23  24
ENDBRANCH  16  23
ENDBRANCH   1  19
BRANCH   2  26
ATOM     26  O   UNL     1       0.804   3.380  18.227  0.00  0.00    +0.000 OA
ATOM     27  H   UNL     1       0.482   3.531  17.317  0.00  0.00    +0.000 HD
ENDBRANCH   2  26
TORSDOF 4
ENDMDL
MODEL 3
REMARK VINA RESULT:      -8.0      2.394      3.834
REMARK  Name = 
REMARK  5 active torsions:
REMARK  status: ('A' for Active; 'I' for Inactive)
REMARK    1  A    between atoms: C_1  and  C_2
REMARK    2  A    between atoms: C_2  and  O_3
REMARK    3  A    between atoms: C_2  and  C_4
REMARK    4  A    between atoms: C_7  and  C_8
REMARK    5  A    between atoms: C_9  and  O_10
REMARK                            x       y       z     vdW  Elec       q    Type
REMARK                         _______ _______ _______ _____ _____    ______ ____
ROOT
ATOM      1  C   UNL     1       2.898   5.495  19.687  0.00  0.00    +0.000 A 
ATOM      2  C   UNL     1       1.900   4.585  20.174  0.00  0.00    +0.000 A 
ATOM      3  C   UNL     1       2.055   3.199  20.268  0.00  0.00    +0.000 A 
ATOM      4  C   UNL     1       3.103   2.608  19.597  0.00  0.00    +0.000 A 
ATOM      5  C   UNL     1       3.960   3.448  18.932  0.00  0.00    +0.000 A 
ATOM      6  N   UNL     1       4.571   2.949  17.731  0.00  0.00    +0.000 N 
ATOM      7  C   UNL     1       4.964   3.857  16.741  0.00  0.00    +0.000 A 
ATOM      8  O   UNL     1       4.785   3.683  15.545  0.00  0.00    +0.000 OA
ATOM      9  C   UNL     1       5.700   4.908  17.386  0.00  0.00    +0.000 A 
ATOM     10  S   UNL     1       7.333   5.080  16.983  0.00  0.00    +0.000 S 
ATOM     11  C   UNL     1       7.702   5.345  18.633  0.00  0.00    +0.000 A 
ATOM     12  C   UNL     1       6.553   5.573  19.383  0.00  0.00    +0.000 A 
ATOM     13  C   UNL     1       5.319   5.418  18.612  0.00  0.00    +0.000 A 
ATOM     14  C   UNL     1       4.033   4.863  19.143  0.00  0.00    +0.000 A 
ATOM     15  H   UNL     1       4.659   1.959  17.546  0.00  0.00    +0.000 HD
ENDROOT
BRANCH   1  19
ATOM     16  C   UNL     1       0.871   9.339  19.415  0.00  0.00    +0.000 A 
ATOM     17  C   UNL     1       1.059   8.685  20.643  0.00  0.00    +0.000 A 
ATOM     18  C   UNL     1       1.904   7.562  20.747  0.00  0.00    +0.000 A 
ATOM     19  C   UNL     1       2.510   6.949  19.622  0.00  0.00    +0.000 A 
ATOM     20  C   UNL     1       2.429   7.662  18.421  0.00  0.00    +0.000 A 
ATOM     21  C   UNL     1       1.650   8.838  18.332  0.00  0.00    +0.000 A 
BRANCH  16  23
ATOM     22  C   UNL     1      -1.131  10.337  18.112  0.00  0.00    +0.000 C 
ATOM     23  C   UNL     1      -0.080  10.486  19.212  0.00  0.00    +0.000 C 
BRANCH  23  24
ATOM     24  O   UNL     1      -0.781  10.730  20.430  0.00  0.00    +0.000 OA
ATOM     25  H   UNL     1      -0.993  11.679  20.440  0.00  0.00    +0.000 HD
ENDBRANCH  23  24
ENDBRANCH  16  23
ENDBRANCH   1  19
BRANCH   2  26
ATOM     26  O   UNL     1       0.600   4.983  20.425  0.00  0.00    +0.000 OA
ATOM     27  H   UNL     1       0.390   4.689  21.333  0.00  0.00    +0.000 HD
ENDBRANCH   2  26
TORSDOF 4
ENDMDL
MODEL 4
REMARK VINA RESULT:      -7.8      2.423      4.048
REMARK  Name = 
REMARK  5 active torsions:
REMARK  status: ('A' for Active; 'I' for Inactive)
REMARK    1  A    between atoms: C_1  and  C_2
REMARK    2  A    between atoms: C_2  and  O_3
REMARK    3  A    between atoms: C_2  and  C_4
REMARK    4  A    between atoms: C_7  and  C_8
REMARK    5  A    between atoms: C_9  and  O_10
REMARK                            x       y       z     vdW  Elec       q    Type
REMARK                         _______ _______ _______ _____ _____    ______ ____
ROOT
ATOM      1  C   UNL     1       2.689   4.622  19.282  0.00  0.00    +0.000 A 
ATOM      2  C   UNL     1       1.920   3.423  19.467  0.00  0.00    +0.000 A 
ATOM      3  C   UNL     1       2.397   2.124  19.272  0.00  0.00    +0.000 A 
ATOM      4  C   UNL     1       3.581   1.955  18.588  0.00  0.00    +0.000 A 
ATOM      5  C   UNL     1       4.238   3.097  18.201  0.00  0.00    +0.000 A 
ATOM      6  N   UNL     1       4.994   3.040  16.981  0.00  0.00    +0.000 N 
ATOM      7  C   UNL     1       5.197   4.217  16.252  0.00  0.00    +0.000 A 
ATOM      8  O   UNL     1       5.110   4.290  15.036  0.00  0.00    +0.000 OA
ATOM      9  C   UNL     1       5.635   5.227  17.174  0.00  0.00    +0.000 A 
ATOM     10  S   UNL     1       7.194   5.849  16.969  0.00  0.00    +0.000 S 
ATOM     11  C   UNL     1       7.427   5.800  18.663  0.00  0.00    +0.000 A 
ATOM     12  C   UNL     1       6.229   5.584  19.337  0.00  0.00    +0.000 A 
ATOM     13  C   UNL     1       5.097   5.340  18.442  0.00  0.00    +0.000 A 
ATOM     14  C   UNL     1       3.963   4.403  18.720  0.00  0.00    +0.000 A 
ATOM     15  H   UNL     1       5.323   2.166  16.595  0.00  0.00    +0.000 HD
ENDROOT
BRANCH   1  19
ATOM     16  C   UNL     1       1.509   8.739  20.060  0.00  0.00    +0.000 A 
ATOM     17  C   UNL     1       1.851   8.297  18.773  0.00  0.00    +0.000 A 
ATOM     18  C   UNL     1       2.013   6.926  18.495  0.00  0.00    +0.000 A 
ATOM     19  C   UNL     1       1.969   5.926  19.499  0.00  0.00    +0.000 A 
ATOM     20  C   UNL     1       1.509   6.342  20.753  0.00  0.00    +0.000 A 
ATOM     21  C   UNL     1       1.262   7.709  21.014  0.00  0.00    +0.000 A 
BRANCH  16  23
ATOM     22  C   UNL     1       0.341  11.029  19.744  0.00  0.00    +0.000 C 
ATOM     23  C   UNL     1       1.405  10.189  20.451  0.00  0.00    +0.000 C 
BRANCH  23  24
ATOM     24  O   UNL     1       1.144  10.275  21.850  0.00  0.00    +0.000 OA
ATOM     25  H   UNL     1       0.186  10.153  21.960  0.00  0.00    +0.000 HD
ENDBRANCH  23  24
ENDBRANCH  16  23
ENDBRANCH   1  19
BRANCH   2  26
ATOM     26  O   UNL     1       0.554   3.452  19.679  0.00  0.00    +0.000 OA
ATOM     27  H   UNL     1       0.309   4.392  19.782  0.00  0.00    +0.000 HD
ENDBRANCH   2  26
TORSDOF 4
ENDMDL
MODEL 5
REMARK VINA RESULT:      -7.4      2.583      4.163
REMARK  Name = 
REMARK  5 active torsions:
REMARK  status: ('A' for Active; 'I' for Inactive)
REMARK    1  A    between atoms: C_1  and  C_2
REMARK    2  A    between atoms: C_2  and  O_3
REMARK    3  A    between atoms: C_2  and  C_4
REMARK    4  A    between atoms: C_7  and  C_8
REMARK    5  A    between atoms: C_9  and  O_10
REMARK                            x       y       z     vdW  Elec       q    Type
REMARK                         _______ _______ _______ _____ _____    ______ ____
ROOT
ATOM      1  C   UNL     1       2.920   5.530  19.503  0.00  0.00    +0.000 A 
ATOM      2  C   UNL     1       2.279   4.492  20.261  0.00  0.00    +0.000 A 
ATOM      3  C   UNL     1       2.829   3.235  20.527  0.00  0.00    +0.000 A 
ATOM      4  C   UNL     1       3.924   2.829  19.795  0.00  0.00    +0.000 A 
ATOM      5  C   UNL     1       4.431   3.732  18.894  0.00  0.00    +0.000 A 
ATOM      6  N   UNL     1       5.025   3.203  17.697  0.00  0.00    +0.000 N 
ATOM      7  C   UNL     1       5.037   3.990  16.540  0.00  0.00    +0.000 A 
ATOM      8  O   UNL     1       4.787   3.563  15.423  0.00  0.00    +0.000 OA
ATOM      9  C   UNL     1       5.509   5.295  16.909  0.00  0.00    +0.000 A 
ATOM     10  S   UNL     1       6.973   5.813  16.241  0.00  0.00    +0.000 S 
ATOM     11  C   UNL     1       7.427   6.457  17.760  0.00  0.00    +0.000 A 
ATOM     12  C   UNL     1       6.348   6.507  18.636  0.00  0.00    +0.000 A 
ATOM     13  C   UNL     1       5.133   5.899  18.093  0.00  0.00    +0.000 A 
ATOM     14  C   UNL     1       4.123   5.130  18.888  0.00  0.00    +0.000 A 
ATOM     15  H   UNL     1       5.370   2.254  17.644  0.00  0.00    +0.000 HD
ENDROOT
BRANCH   1  19
ATOM     16  C   UNL     1       1.527   9.600  18.834  0.00  0.00    +0.000 A 
ATOM     17  C   UNL     1       1.816   8.731  17.770  0.00  0.00    +0.000 A 
ATOM     18  C   UNL     1       2.049   7.360  17.994  0.00  0.00    +0.000 A 
ATOM     19  C   UNL     1       2.131   6.795  19.291  0.00  0.00    +0.000 A 
ATOM     20  C   UNL     1       1.724   7.623  20.343  0.00  0.00    +0.000 A 
ATOM     21  C   UNL     1       1.407   8.981  20.112  0.00  0.00    +0.000 A 
BRANCH  16  23
ATOM     22  C   UNL     1       1.363  11.927  19.958  0.00  0.00    +0.000 C 
ATOM     23  C   UNL     1       1.354  11.087  18.682  0.00  0.00    +0.000 C 
BRANCH  23  24
ATOM     24  O   UNL     1       2.390  11.591  17.841  0.00  0.00    +0.000 OA
ATOM     25  H   UNL     1       2.323  11.106  17.001  0.00  0.00    +0.000 HD
ENDBRANCH  23  24
ENDBRANCH  16  23
ENDBRANCH   1  19
BRANCH   2  26
ATOM     26  O   UNL     1       0.954   4.575  20.648  0.00  0.00    +0.000 OA
ATOM     27  H   UNL     1       0.533   5.229  20.057  0.00  0.00    +0.000 HD
ENDBRANCH   2  26
TORSDOF 4
ENDMDL
MODEL 6
REMARK VINA RESULT:      -7.2      3.206      4.778
REMARK  Name = 
REMARK  5 active torsions:
REMARK  status: ('A' for Active; 'I' for Inactive)
REMARK    1  A    between atoms: C_1  and  C_2
REMARK    2  A    between atoms: C_2  and  O_3
REMARK    3  A    between atoms: C_2  and  C_4
REMARK    4  A    between atoms: C_7  and  C_8
REMARK    5  A    between atoms: C_9  and  O_10
REMARK                            x       y       z     vdW  Elec       q    Type
REMARK                         _______ _______ _______ _____ _____    ______ ____
ROOT
ATOM      1  C   UNL     1       5.881   5.746  17.086  0.00  0.00    +0.000 A 
ATOM      2  C   UNL     1       6.478   5.255  15.876  0.00  0.00    +0.000 A 
ATOM      3  C   UNL     1       6.016   4.160  15.140  0.00  0.00    +0.000 A 
ATOM      4  C   UNL     1       5.112   3.305  15.732  0.00  0.00    +0.000 A 
ATOM      5  C   UNL     1       4.684   3.638  16.992  0.00  0.00    +0.000 A 
ATOM      6  N   UNL     1       4.363   2.559  17.885  0.00  0.00    +0.000 N 
ATOM      7  C   UNL     1       4.477   2.762  19.265  0.00  0.00    +0.000 A 
ATOM      8  O   UNL     1       4.959   1.947  20.037  0.00  0.00    +0.000 OA
ATOM      9  C   UNL     1       3.821   4.001  19.575  0.00  0.00    +0.000 A 
ATOM     10  S   UNL     1       2.453   3.934  20.566  0.00  0.00    +0.000 S 
ATOM     11  C   UNL     1       1.679   5.080  19.558  0.00  0.00    +0.000 A 
ATOM     12  C   UNL     1       2.578   5.677  18.680  0.00  0.00    +0.000 A 
ATOM     13  C   UNL     1       3.923   5.106  18.752  0.00  0.00    +0.000 A 
ATOM     14  C   UNL     1       4.850   4.930  17.588  0.00  0.00    +0.000 A 
ATOM     15  H   UNL     1       4.128   1.636  17.547  0.00  0.00    +0.000 HD
ENDROOT
BRANCH   1  19
ATOM     16  C   UNL     1       8.360   9.159  18.166  0.00  0.00    +0.000 A 
ATOM     17  C   UNL     1       7.137   9.314  17.495  0.00  0.00    +0.000 A 
ATOM     18  C   UNL     1       6.246   8.233  17.350  0.00  0.00    +0.000 A 
ATOM     19  C   UNL     1       6.566   6.912  17.750  0.00  0.00    +0.000 A 
ATOM     20  C   UNL     1       7.723   6.774  18.526  0.00  0.00    +0.000 A 
ATOM     21  C   UNL     1       8.580   7.876  18.746  0.00  0.00    +0.000 A 
BRANCH  16  23
ATOM     22  C   UNL     1       8.990  11.651  17.853  0.00  0.00    +0.000 C 
ATOM     23  C   UNL     1       9.398  10.242  18.282  0.00  0.00    +0.000 C 
BRANCH  23  24
ATOM     24  O   UNL     1       9.830  10.327  19.639  0.00  0.00    +0.000 OA
ATOM     25  H   UNL     1       9.953  11.272  19.830  0.00  0.00    +0.000 HD
ENDBRANCH  23  24
ENDBRANCH  16  23
ENDBRANCH   1  19
BRANCH   2  26
ATOM     26  O   UNL     1       7.701   5.713  15.419  0.00  0.00    +0.000 OA
ATOM     27  H   UNL     1       8.378   5.118  15.797  0.00  0.00    +0.000 HD
ENDBRANCH   2  26
TORSDOF 4
ENDMDL
MODEL 7
REMARK VINA RESULT:      -7.0      3.202      6.529
REMARK  Name = 
REMARK  5 active torsions:
REMARK  status: ('A' for Active; 'I' for Inactive)
REMARK    1  A    between atoms: C_1  and  C_2
REMARK    2  A    between atoms: C_2  and  O_3
REMARK    3  A    between atoms: C_2  and  C_4
REMARK    4  A    between atoms: C_7  and  C_8
REMARK    5  A    between atoms: C_9  and  O_10
REMARK                            x       y       z     vdW  Elec       q    Type
REMARK                         _______ _______ _______ _____ _____    ______ ____
ROOT
ATOM      1  C   UNL     1       6.176   4.947  16.762  0.00  0.00    +0.000 A 
ATOM      2  C   UNL     1       7.215   5.799  17.267  0.00  0.00    +0.000 A 
ATOM      3  C   UNL     1       7.431   6.088  18.617  0.00  0.00    +0.000 A 
ATOM      4  C   UNL     1       6.437   5.785  19.521  0.00  0.00    +0.000 A 
ATOM      5  C   UNL     1       5.322   5.157  19.024  0.00  0.00    +0.000 A 
ATOM      6  N   UNL     1       4.067   5.440  19.663  0.00  0.00    +0.000 N 
ATOM      7  C   UNL     1       2.886   5.323  18.922  0.00  0.00    +0.000 A 
ATOM      8  O   UNL     1       1.966   6.125  18.973  0.00  0.00    +0.000 OA
ATOM      9  C   UNL     1       2.929   4.063  18.234  0.00  0.00    +0.000 A 
ATOM     10  S   UNL     1       1.769   2.906  18.650  0.00  0.00    +0.000 S 
ATOM     11  C   UNL     1       2.975   1.693  18.601  0.00  0.00    +0.000 A 
ATOM     12  C   UNL     1       4.141   2.157  18.002  0.00  0.00    +0.000 A 
ATOM     13  C   UNL     1       4.094   3.581  17.668  0.00  0.00    +0.000 A 
ATOM     14  C   UNL     1       5.256   4.524  17.741  0.00  0.00    +0.000 A 
ATOM     15  H   UNL     1       4.015   5.791  20.609  0.00  0.00    +0.000 HD
ENDROOT
BRANCH   1  19
ATOM     16  C   UNL     1       5.993   3.586  12.630  0.00  0.00    +0.000 A 
ATOM     17  C   UNL     1       4.841   3.699  13.425  0.00  0.00    +0.000 A 
ATOM     18  C   UNL     1       4.883   4.346  14.676  0.00  0.00    +0.000 A 
ATOM     19  C   UNL     1       6.086   4.807  15.265  0.00  0.00    +0.000 A 
ATOM     20  C   UNL     1       7.211   4.810  14.432  0.00  0.00    +0.000 A 
ATOM     21  C   UNL     1       7.154   4.237  13.141  0.00  0.00    +0.000 A 
BRANCH  16  23
ATOM     22  C   UNL     1       7.162   1.806  11.156  0.00  0.00    +0.000 C 
ATOM     23  C   UNL     1       6.044   2.834  11.328  0.00  0.00    +0.000 C 
BRANCH  23  24
ATOM     24  O   UNL     1       4.809   2.145  11.141  0.00  0.00    +0.000 OA
ATOM     25  H   UNL     1       5.031   1.201  11.060  0.00  0.00    +0.000 HD
ENDBRANCH  23  24
ENDBRANCH  16  23
ENDBRANCH   1  19
BRANCH   2  26
ATOM     26  O   UNL     1       7.997   6.579  16.434  0.00  0.00    +0.000 OA
ATOM     27  H   UNL     1       8.082   6.087  15.594  0.00  0.00    +0.000 HD
ENDBRANCH   2  26
TORSDOF 4
ENDMDL
MODEL 8
REMARK VINA RESULT:      -7.0      3.965      8.114
REMARK  Name = 
REMARK  5 active torsions:
REMARK  status: ('A' for Active; 'I' for Inactive)
REMARK    1  A    between atoms: C_1  and  C_2
REMARK    2  A    between atoms: C_2  and  O_3
REMARK    3  A    between atoms: C_2  and  C_4
REMARK    4  A    between atoms: C_7  and  C_8
REMARK    5  A    between atoms: C_9  and  O_10
REMARK                            x       y       z     vdW  Elec       q    Type
REMARK                         _______ _______ _______ _____ _____    ______ ____
ROOT
ATOM      1  C   UNL     1       0.168   9.613  20.743  0.00  0.00    +0.000 A 
ATOM      2  C   UNL     1       0.281   9.972  22.129  0.00  0.00    +0.000 A 
ATOM      3  C   UNL     1      -0.570  10.853  22.802  0.00  0.00    +0.000 A 
ATOM      4  C   UNL     1      -1.400  11.662  22.058  0.00  0.00    +0.000 A 
ATOM      5  C   UNL     1      -1.369  11.490  20.696  0.00  0.00    +0.000 A 
ATOM      6  N   UNL     1      -1.604  12.650  19.881  0.00  0.00    +0.000 N 
ATOM      7  C   UNL     1      -1.053  12.699  18.596  0.00  0.00    +0.000 A 
ATOM      8  O   UNL     1      -0.523  13.691  18.118  0.00  0.00    +0.000 OA
ATOM      9  C   UNL     1      -1.350  11.452  17.949  0.00  0.00    +0.000 A 
ATOM     10  S   UNL     1      -2.353  11.495  16.590  0.00  0.00    +0.000 S 
ATOM     11  C   UNL     1      -3.166  10.100  17.157  0.00  0.00    +0.000 A 
ATOM     12  C   UNL     1      -2.473   9.494  18.199  0.00  0.00    +0.000 A 
ATOM     13  C   UNL     1      -1.294  10.249  18.627  0.00  0.00    +0.000 A 
ATOM     14  C   UNL     1      -0.801  10.353  20.037  0.00  0.00    +0.000 A 
ATOM     15  H   UNL     1      -2.093  13.461  20.232  0.00  0.00    +0.000 HD
ENDROOT
BRANCH   1  19
ATOM     16  C   UNL     1       2.471   6.588  18.621  0.00  0.00    +0.000 A 
ATOM     17  C   UNL     1       2.314   7.889  18.118  0.00  0.00    +0.000 A 
ATOM     18  C   UNL     1       1.761   8.913  18.911  0.00  0.00    +0.000 A 
ATOM     19  C   UNL     1       1.219   8.682  20.200  0.00  0.00    +0.000 A 
ATOM     20  C   UNL     1       1.483   7.424  20.754  0.00  0.00    +0.000 A 
ATOM     21  C   UNL     1       2.114   6.416  19.991  0.00  0.00    +0.000 A 
BRANCH  16  23
ATOM     22  C   UNL     1       4.171   4.654  18.352  0.00  0.00    +0.000 C 
ATOM     23  C   UNL     1       2.971   5.426  17.806  0.00  0.00    +0.000 C 
BRANCH  23  24
ATOM     24  O   UNL     1       1.910   4.487  17.638  0.00  0.00    +0.000 OA
ATOM     25  H   UNL     1       2.086   3.760  18.260  0.00  0.00    +0.000 HD
ENDBRANCH  23  24
ENDBRANCH  16  23
ENDBRANCH   1  19
BRANCH   2  26
ATOM     26  O   UNL     1       1.376   9.616  22.894  0.00  0.00    +0.000 OA
ATOM     27  H   UNL     1       1.838  10.447  23.121  0.00  0.00    +0.000 HD
ENDBRANCH   2  26
TORSDOF 4
ENDMDL
MODEL 9
REMARK VINA RESULT:      -6.9      3.239      5.181
REMARK  Name = 
REMARK  5 active torsions:
REMARK  status: ('A' for Active; 'I' for Inactive)
REMARK    1  A    between atoms: C_1  and  C_2
REMARK    2  A    between atoms: C_2  and  O_3
REMARK    3  A    between atoms: C_2  and  C_4
REMARK    4  A    between atoms: C_7  and  C_8
REMARK    5  A    between atoms: C_9  and  O_10
REMARK                            x       y       z     vdW  Elec       q    Type
REMARK                         _______ _______ _______ _____ _____    ______ ____
ROOT
ATOM      1  C   UNL     1       4.831   5.392  17.307  0.00  0.00    +0.000 A 
ATOM      2  C   UNL     1       4.867   4.092  16.698  0.00  0.00    +0.000 A 
ATOM      3  C   UNL     1       3.768   3.240  16.560  0.00  0.00    +0.000 A 
ATOM      4  C   UNL     1       2.633   3.508  17.293  0.00  0.00    +0.000 A 
ATOM      5  C   UNL     1       2.651   4.643  18.064  0.00  0.00    +0.000 A 
ATOM      6  N   UNL     1       1.904   4.616  19.291  0.00  0.00    +0.000 N 
ATOM      7  C   UNL     1       2.305   5.441  20.348  0.00  0.00    +0.000 A 
ATOM      8  O   UNL     1       2.343   5.084  21.516  0.00  0.00    +0.000 OA
ATOM      9  C   UNL     1       2.519   6.757  19.814  0.00  0.00    +0.000 A 
ATOM     10  S   UNL     1       1.510   7.997  20.362  0.00  0.00    +0.000 S 
ATOM     11  C   UNL     1       1.390   8.594  18.763  0.00  0.00    +0.000 A 
ATOM     12  C   UNL     1       2.334   8.008  17.928  0.00  0.00    +0.000 A 
ATOM     13  C   UNL     1       3.113   6.955  18.582  0.00  0.00    +0.000 A 
ATOM     14  C   UNL     1       3.601   5.704  17.919  0.00  0.00    +0.000 A 
ATOM     15  H   UNL     1       1.143   3.969  19.441  0.00  0.00    +0.000 HD
ENDROOT
BRANCH   1  19
ATOM     16  C   UNL     1       8.155   8.034  18.271  0.00  0.00    +0.000 A 
ATOM     17  C   UNL     1       7.945   6.827  18.956  0.00  0.00    +0.000 A 
ATOM     18  C   UNL     1       7.008   5.882  18.493  0.00  0.00    +0.000 A 
ATOM     19  C   UNL     1       6.141   6.130  17.400  0.00  0.00    +0.000 A 
ATOM     20  C   UNL     1       6.428   7.270  16.640  0.00  0.00    +0.000 A 
ATOM     21  C   UNL     1       7.426   8.181  17.055  0.00  0.00    +0.000 A 
BRANCH  16  23
ATOM     22  C   UNL     1       8.997  10.471  18.032  0.00  0.00    +0.000 C 
ATOM     23  C   UNL     1       9.072   9.125  18.753  0.00  0.00    +0.000 C 
BRANCH  23  24
ATOM     24  O   UNL     1       8.812   9.374  20.133  0.00  0.00    +0.000 OA
ATOM     25  H   UNL     1       8.166   8.704  20.416  0.00  0.00    +0.000 HD
ENDBRANCH  23  24
ENDBRANCH  16  23
ENDBRANCH   1  19
BRANCH   2  26
ATOM     26  O   UNL     1       6.055   3.474  16.354  0.00  0.00    +0.000 OA
ATOM     27  H   UNL     1       6.104   3.492  15.378  0.00  0.00    +0.000 HD
ENDBRANCH   2  26
TORSDOF 4
ENDMDL
