MODEL 1
REMARK VINA RESULT:      -9.0      0.000      0.000
REMARK  Name = 
REMARK  9 active torsions:
REMARK  status: ('A' for Active; 'I' for Inactive)
REMARK    1  A    between atoms: C_1  and  O_2
REMARK    2  A    between atoms: O_2  and  C_3
REMARK    3  A    between atoms: C_6  and  C_7
REMARK    4  A    between atoms: C_10  and  O_11
REMARK    5  A    between atoms: C_12  and  C_13
REMARK    6  A    between atoms: C_13  and  C_14
REMARK    7  A    between atoms: C_17  and  O_18
REMARK    8  A    between atoms: C_23  and  C_24
REMARK    9  A    between atoms: C_24  and  C_25
REMARK                            x       y       z     vdW  Elec       q    Type
REMARK                         _______ _______ _______ _____ _____    ______ ____
ROOT
ATOM      1  C   UNL     1       3.579   6.809  17.820  0.00  0.00    +0.000 A 
ATOM      2  C   UNL     1       3.337   8.095  17.504  0.00  0.00    +0.000 A 
ATOM      3  N   UNL     1       2.458   8.813  18.291  0.00  0.00    +0.000 N 
ATOM      4  C   UNL     1       1.962  10.096  18.206  0.00  0.00    +0.000 A 
ATOM      5  C   UNL     1       1.052  10.196  19.249  0.00  0.00    +0.000 A 
ATOM      6  N   UNL     1       0.991   9.010  19.965  0.00  0.00    +0.000 NA
ATOM      7  C   UNL     1       1.856   8.217  19.370  0.00  0.00    +0.000 A 
ATOM      8  C   UNL     1       2.183   6.838  19.665  0.00  0.00    +0.000 A 
ATOM      9  N   UNL     1       3.013   6.161  18.906  0.00  0.00    +0.000 NA
ENDROOT
BRANCH   1  13
ATOM     10  C   UNL     1       6.083   4.581  15.165  0.00  0.00    +0.000 A 
ATOM     11  C   UNL     1       5.770   5.914  14.891  0.00  0.00    +0.000 A 
ATOM     12  C   UNL     1       4.992   6.657  15.781  0.00  0.00    +0.000 A 
ATOM     13  C   UNL     1       4.499   6.065  16.947  0.00  0.00    +0.000 A 
ATOM     14  C   UNL     1       4.815   4.727  17.222  0.00  0.00    +0.000 A 
ATOM     15  C   UNL     1       5.603   3.987  16.332  0.00  0.00    +0.000 A 
BRANCH  10  17
ATOM     16  C   UNL     1       6.138   3.653  12.992  0.00  0.00    +0.000 C 
ATOM     17  O   UNL     1       6.823   3.952  14.202  0.00  0.00    +0.000 OA
ENDBRANCH  10  17
ENDBRANCH   1  13
BRANCH   4  18
ATOM     18  O   UNL     1       2.291  10.977  17.261  0.00  0.00    +0.000 OA
ATOM     19  H   UNL     1       1.535  11.555  17.065  0.00  0.00    +0.000 HD
ENDBRANCH   4  18
BRANCH   5  20
ATOM     20  C   UNL     1       0.120  11.322  19.538  0.00  0.00    +0.000 C 
BRANCH  20  21
ATOM     21  C   UNL     1      -1.159  11.081  18.774  0.00  0.00    +0.000 A 
ATOM     22  C   UNL     1      -2.323  11.807  19.075  0.00  0.00    +0.000 A 
ATOM     23  C   UNL     1      -3.475  11.662  18.296  0.00  0.00    +0.000 A 
ATOM     24  C   UNL     1      -3.465  10.785  17.217  0.00  0.00    +0.000 A 
ATOM     25  C   UNL     1      -2.334  10.034  16.921  0.00  0.00    +0.000 A 
ATOM     26  C   UNL     1      -1.184  10.177  17.700  0.00  0.00    +0.000 A 
BRANCH  24  27
ATOM     27  O   UNL     1      -4.553  10.641  16.407  0.00  0.00    +0.000 OA
ATOM     28  H   UNL     1      -5.118   9.941  16.773  0.00  0.00    +0.000 HD
ENDBRANCH  24  27
ENDBRANCH  20  21
ENDBRANCH   5  20
BRANCH   8  29
ATOM     29  C   UNL     1       1.544   6.171  20.863  0.00  0.00    +0.000 C 
BRANCH  29  30
ATOM     30  C   UNL     1       1.582   4.664  20.787  0.00  0.00    +0.000 A 
ATOM     31  C   UNL     1       2.343   3.925  21.702  0.00  0.00    +0.000 A 
ATOM     32  C   UNL     1       2.356   2.530  21.648  0.00  0.00    +0.000 A 
ATOM     33  C   UNL     1       1.616   1.861  20.675  0.00  0.00    +0.000 A 
ATOM     34  C   UNL     1       0.872   2.586  19.747  0.00  0.00    +0.000 A 
ATOM     35  C   UNL     1       0.858   3.981  19.799  0.00  0.00    +0.000 A 
ENDBRANCH  29  30
ENDBRANCH   8  29
TORSDOF 8
ENDMDL
MODEL 2
REMARK VINA RESULT:      -8.8      0.209      1.204
REMARK  Name = 
REMARK  9 active torsions:
REMARK  status: ('A' for Active; 'I' for Inactive)
REMARK    1  A    between atoms: C_1  and  O_2
REMARK    2  A    between atoms: O_2  and  C_3
REMARK    3  A    between atoms: C_6  and  C_7
REMARK    4  A    between atoms: C_10  and  O_11
REMARK    5  A    between atoms: C_12  and  C_13
REMARK    6  A    between atoms: C_13  and  C_14
REMARK    7  A    between atoms: C_17  and  O_18
REMARK    8  A    between atoms: C_23  and  C_24
REMARK    9  A    between atoms: C_24  and  C_25
REMARK                            x       y       z     vdW  Elec       q    Type
REMARK                         _______ _______ _______ _____ _____    ______ ____
ROOT
ATOM      1  C   UNL     1       3.635   6.877  17.872  0.00  0.00    +0.000 A 
ATOM      2  C   UNL     1       3.362   8.156  17.553  0.00  0.00    +0.000 A 
ATOM      3  N   UNL     1       2.449   8.848  18.326  0.00  0.00    +0.000 N 
ATOM      4  C   UNL     1       1.919  10.117  18.233  0.00  0.00    +0.000 A 
ATOM      5  C   UNL     1       0.989  10.190  19.260  0.00  0.00    +0.000 A 
ATOM      6  N   UNL     1       0.949   9.002  19.974  0.00  0.00    +0.000 NA
ATOM      7  C   UNL     1       1.846   8.234  19.393  0.00  0.00    +0.000 A 
ATOM      8  C   UNL     1       2.207   6.864  19.693  0.00  0.00    +0.000 A 
ATOM      9  N   UNL     1       3.068   6.212  18.948  0.00  0.00    +0.000 NA
ENDROOT
BRANCH   1  13
ATOM     10  C   UNL     1       6.247   4.683  15.294  0.00  0.00    +0.000 A 
ATOM     11  C   UNL     1       5.675   5.883  14.868  0.00  0.00    +0.000 A 
ATOM     12  C   UNL     1       4.860   6.625  15.725  0.00  0.00    +0.000 A 
ATOM     13  C   UNL     1       4.591   6.160  17.015  0.00  0.00    +0.000 A 
ATOM     14  C   UNL     1       5.166   4.956  17.443  0.00  0.00    +0.000 A 
ATOM     15  C   UNL     1       5.989   4.218  16.584  0.00  0.00    +0.000 A 
BRANCH  10  17
ATOM     16  C   UNL     1       6.365   3.822  13.096  0.00  0.00    +0.000 C 
ATOM     17  O   UNL     1       6.997   4.033  14.353  0.00  0.00    +0.000 OA
ENDBRANCH  10  17
ENDBRANCH   1  13
BRANCH   4  18
ATOM     18  O   UNL     1       2.240  11.008  17.295  0.00  0.00    +0.000 OA
ATOM     19  H   UNL     1       1.578  10.995  16.583  0.00  0.00    +0.000 HD
ENDBRANCH   4  18
BRANCH   5  20
ATOM     20  C   UNL     1       0.021  11.288  19.534  0.00  0.00    +0.000 C 
BRANCH  20  21
ATOM     21  C   UNL     1      -1.137  11.144  18.577  0.00  0.00    +0.000 A 
ATOM     22  C   UNL     1      -1.134  10.143  17.591  0.00  0.00    +0.000 A 
ATOM     23  C   UNL     1      -2.253   9.940  16.778  0.00  0.00    +0.000 A 
ATOM     24  C   UNL     1      -3.376  10.742  16.948  0.00  0.00    +0.000 A 
ATOM     25  C   UNL     1      -3.388  11.758  17.895  0.00  0.00    +0.000 A 
ATOM     26  C   UNL     1      -2.270  11.962  18.706  0.00  0.00    +0.000 A 
BRANCH  24  27
ATOM     27  O   UNL     1      -4.503  10.554  16.204  0.00  0.00    +0.000 OA
ATOM     28  H   UNL     1      -4.260  10.584  15.264  0.00  0.00    +0.000 HD
ENDBRANCH  24  27
ENDBRANCH  20  21
ENDBRANCH   5  20
BRANCH   8  29
ATOM     29  C   UNL     1       1.566   6.178  20.879  0.00  0.00    +0.000 C 
BRANCH  29  30
ATOM     30  C   UNL     1       1.577   4.673  20.764  0.00  0.00    +0.000 A 
ATOM     31  C   UNL     1       0.806   4.028  19.788  0.00  0.00    +0.000 A 
ATOM     32  C   UNL     1       0.837   2.638  19.666  0.00  0.00    +0.000 A 
ATOM     33  C   UNL     1       1.633   1.879  20.522  0.00  0.00    +0.000 A 
ATOM     34  C   UNL     1       2.387   2.507  21.509  0.00  0.00    +0.000 A 
ATOM     35  C   UNL     1       2.357   3.897  21.634  0.00  0.00    +0.000 A 
ENDBRANCH  29  30
ENDBRANCH   8  29
TORSDOF 8
ENDMDL
MODEL 3
REMARK VINA RESULT:      -8.6      3.241      6.093
REMARK  Name = 
REMARK  9 active torsions:
REMARK  status: ('A' for Active; 'I' for Inactive)
REMARK    1  A    between atoms: C_1  and  O_2
REMARK    2  A    between atoms: O_2  and  C_3
REMARK    3  A    between atoms: C_6  and  C_7
REMARK    4  A    between atoms: C_10  and  O_11
REMARK    5  A    between atoms: C_12  and  C_13
REMARK    6  A    between atoms: C_13  and  C_14
REMARK    7  A    between atoms: C_17  and  O_18
REMARK    8  A    between atoms: C_23  and  C_24
REMARK    9  A    between atoms: C_24  and  C_25
REMARK                            x       y       z     vdW  Elec       q    Type
REMARK                         _______ _______ _______ _____ _____    ______ ____
ROOT
ATOM      1  C   UNL     1       1.317   8.207  20.151  0.00  0.00    +0.000 A 
ATOM      2  C   UNL     1       0.936   8.434  21.423  0.00  0.00    +0.000 A 
ATOM      3  N   UNL     1       0.207   9.575  21.698  0.00  0.00    +0.000 N 
ATOM      4  C   UNL     1      -0.273  10.116  22.872  0.00  0.00    +0.000 A 
ATOM      5  C   UNL     1      -0.853  11.320  22.498  0.00  0.00    +0.000 A 
ATOM      6  N   UNL     1      -0.744  11.515  21.130  0.00  0.00    +0.000 NA
ATOM      7  C   UNL     1      -0.118  10.445  20.689  0.00  0.00    +0.000 A 
ATOM      8  C   UNL     1       0.303  10.123  19.341  0.00  0.00    +0.000 A 
ATOM      9  N   UNL     1       1.003   9.042  19.090  0.00  0.00    +0.000 NA
ENDROOT
BRANCH   1  13
ATOM     10  C   UNL     1       3.479   4.626  19.267  0.00  0.00    +0.000 A 
ATOM     11  C   UNL     1       3.666   5.775  18.495  0.00  0.00    +0.000 A 
ATOM     12  C   UNL     1       2.996   6.959  18.811  0.00  0.00    +0.000 A 
ATOM     13  C   UNL     1       2.114   6.998  19.895  0.00  0.00    +0.000 A 
ATOM     14  C   UNL     1       1.929   5.846  20.670  0.00  0.00    +0.000 A 
ATOM     15  C   UNL     1       2.608   4.662  20.356  0.00  0.00    +0.000 A 
BRANCH  10  17
ATOM     16  C   UNL     1       3.466   2.287  18.926  0.00  0.00    +0.000 C 
ATOM     17  O   UNL     1       4.164   3.523  18.837  0.00  0.00    +0.000 OA
ENDBRANCH  10  17
ENDBRANCH   1  13
BRANCH   4  18
ATOM     18  O   UNL     1      -0.121   9.569  24.078  0.00  0.00    +0.000 OA
ATOM     19  H   UNL     1      -0.847   9.843  24.663  0.00  0.00    +0.000 HD
ENDBRANCH   4  18
BRANCH   5  20
ATOM     20  C   UNL     1      -1.401  12.380  23.389  0.00  0.00    +0.000 C 
BRANCH  20  21
ATOM     21  C   UNL     1      -2.888  12.470  23.154  0.00  0.00    +0.000 A 
ATOM     22  C   UNL     1      -3.787  12.473  24.233  0.00  0.00    +0.000 A 
ATOM     23  C   UNL     1      -5.156  12.665  24.021  0.00  0.00    +0.000 A 
ATOM     24  C   UNL     1      -5.628  12.852  22.726  0.00  0.00    +0.000 A 
ATOM     25  C   UNL     1      -4.760  12.820  21.642  0.00  0.00    +0.000 A 
ATOM     26  C   UNL     1      -3.393  12.625  21.854  0.00  0.00    +0.000 A 
BRANCH  24  27
ATOM     27  O   UNL     1      -6.948  13.082  22.476  0.00  0.00    +0.000 OA
ATOM     28  H   UNL     1      -7.227  12.508  21.744  0.00  0.00    +0.000 HD
ENDBRANCH  24  27
ENDBRANCH  20  21
ENDBRANCH   5  20
BRANCH   8  29
ATOM     29  C   UNL     1      -0.065  11.061  18.214  0.00  0.00    +0.000 C 
BRANCH  29  30
ATOM     30  C   UNL     1      -1.501  10.916  17.772  0.00  0.00    +0.000 A 
ATOM     31  C   UNL     1      -2.486  11.786  18.257  0.00  0.00    +0.000 A 
ATOM     32  C   UNL     1      -3.809  11.668  17.828  0.00  0.00    +0.000 A 
ATOM     33  C   UNL     1      -4.161  10.675  16.915  0.00  0.00    +0.000 A 
ATOM     34  C   UNL     1      -3.195   9.792  16.442  0.00  0.00    +0.000 A 
ATOM     35  C   UNL     1      -1.872   9.908  16.871  0.00  0.00    +0.000 A 
ENDBRANCH  29  30
ENDBRANCH   8  29
TORSDOF 8
ENDMDL
MODEL 4
REMARK VINA RESULT:      -8.5      3.292      6.241
REMARK  Name = 
REMARK  9 active torsions:
REMARK  status: ('A' for Active; 'I' for Inactive)
REMARK    1  A    between atoms: C_1  and  O_2
REMARK    2  A    between atoms: O_2  and  C_3
REMARK    3  A    between atoms: C_6  and  C_7
REMARK    4  A    between atoms: C_10  and  O_11
REMARK    5  A    between atoms: C_12  and  C_13
REMARK    6  A    between atoms: C_13  and  C_14
REMARK    7  A    between atoms: C_17  and  O_18
REMARK    8  A    between atoms: C_23  and  C_24
REMARK    9  A    between atoms: C_24  and  C_25
REMARK                            x       y       z     vdW  Elec       q    Type
REMARK                         _______ _______ _______ _____ _____    ______ ____
ROOT
ATOM      1  C   UNL     1       1.178   8.784  19.864  0.00  0.00    +0.000 A 
ATOM      2  C   UNL     1       0.843   8.856  21.167  0.00  0.00    +0.000 A 
ATOM      3  N   UNL     1       0.036   9.896  21.584  0.00  0.00    +0.000 N 
ATOM      4  C   UNL     1      -0.429  10.278  22.824  0.00  0.00    +0.000 A 
ATOM      5  C   UNL     1      -1.126  11.456  22.596  0.00  0.00    +0.000 A 
ATOM      6  N   UNL     1      -1.102  11.789  21.250  0.00  0.00    +0.000 NA
ATOM      7  C   UNL     1      -0.411  10.825  20.680  0.00  0.00    +0.000 A 
ATOM      8  C   UNL     1      -0.033  10.672  19.291  0.00  0.00    +0.000 A 
ATOM      9  N   UNL     1       0.743   9.685  18.905  0.00  0.00    +0.000 NA
ENDROOT
BRANCH   1  13
ATOM     10  C   UNL     1       3.577   5.492  18.565  0.00  0.00    +0.000 A 
ATOM     11  C   UNL     1       3.504   6.660  17.802  0.00  0.00    +0.000 A 
ATOM     12  C   UNL     1       2.758   7.754  18.248  0.00  0.00    +0.000 A 
ATOM     13  C   UNL     1       2.060   7.681  19.457  0.00  0.00    +0.000 A 
ATOM     14  C   UNL     1       2.135   6.510  20.223  0.00  0.00    +0.000 A 
ATOM     15  C   UNL     1       2.890   5.418  19.777  0.00  0.00    +0.000 A 
BRANCH  10  17
ATOM     16  C   UNL     1       3.560   3.401  17.463  0.00  0.00    +0.000 C 
ATOM     17  O   UNL     1       4.309   4.482  18.006  0.00  0.00    +0.000 OA
ENDBRANCH  10  17
ENDBRANCH   1  13
BRANCH   4  18
ATOM     18  O   UNL     1      -0.172   9.634  23.963  0.00  0.00    +0.000 OA
ATOM     19  H   UNL     1      -0.357  10.212  24.722  0.00  0.00    +0.000 HD
ENDBRANCH   4  18
BRANCH   5  20
ATOM     20  C   UNL     1      -1.716  12.374  23.609  0.00  0.00    +0.000 C 
BRANCH  20  21
ATOM     21  C   UNL     1      -3.197  12.480  23.342  0.00  0.00    +0.000 A 
ATOM     22  C   UNL     1      -4.121  12.456  24.400  0.00  0.00    +0.000 A 
ATOM     23  C   UNL     1      -5.483  12.664  24.161  0.00  0.00    +0.000 A 
ATOM     24  C   UNL     1      -5.923  12.892  22.862  0.00  0.00    +0.000 A 
ATOM     25  C   UNL     1      -5.030  12.888  21.798  0.00  0.00    +0.000 A 
ATOM     26  C   UNL     1      -3.670  12.678  22.036  0.00  0.00    +0.000 A 
BRANCH  24  27
ATOM     27  O   UNL     1      -7.236  13.137  22.589  0.00  0.00    +0.000 OA
ATOM     28  H   UNL     1      -7.611  13.658  23.318  0.00  0.00    +0.000 HD
ENDBRANCH  24  27
ENDBRANCH  20  21
ENDBRANCH   5  20
BRANCH   8  29
ATOM     29  C   UNL     1      -0.533  11.677  18.278  0.00  0.00    +0.000 C 
BRANCH  29  30
ATOM     30  C   UNL     1      -1.918  11.357  17.767  0.00  0.00    +0.000 A 
ATOM     31  C   UNL     1      -2.092  10.501  16.672  0.00  0.00    +0.000 A 
ATOM     32  C   UNL     1      -3.374  10.186  16.217  0.00  0.00    +0.000 A 
ATOM     33  C   UNL     1      -4.492  10.727  16.848  0.00  0.00    +0.000 A 
ATOM     34  C   UNL     1      -4.331  11.595  17.924  0.00  0.00    +0.000 A 
ATOM     35  C   UNL     1      -3.050  11.913  18.380  0.00  0.00    +0.000 A 
ENDBRANCH  29  30
ENDBRANCH   8  29
TORSDOF 8
ENDMDL
MODEL 5
REMARK VINA RESULT:      -8.5      0.791      1.171
REMARK  Name = 
REMARK  9 active torsions:
REMARK  status: ('A' for Active; 'I' for Inactive)
REMARK    1  A    between atoms: C_1  and  O_2
REMARK    2  A    between atoms: O_2  and  C_3
REMARK    3  A    between atoms: C_6  and  C_7
REMARK    4  A    between atoms: C_10  and  O_11
REMARK    5  A    between atoms: C_12  and  C_13
REMARK    6  A    between atoms: C_13  and  C_14
REMARK    7  A    between atoms: C_17  and  O_18
REMARK    8  A    between atoms: C_23  and  C_24
REMARK    9  A    between atoms: C_24  and  C_25
REMARK                            x       y       z     vdW  Elec       q    Type
REMARK                         _______ _______ _______ _____ _____    ______ ____
ROOT
ATOM      1  C   UNL     1       3.729   7.072  18.029  0.00  0.00    +0.000 A 
ATOM      2  C   UNL     1       3.379   8.338  17.729  0.00  0.00    +0.000 A 
ATOM      3  N   UNL     1       2.366   8.931  18.456  0.00  0.00    +0.000 N 
ATOM      4  C   UNL     1       1.746  10.160  18.364  0.00  0.00    +0.000 A 
ATOM      5  C   UNL     1       0.746  10.127  19.326  0.00  0.00    +0.000 A 
ATOM      6  N   UNL     1       0.752   8.915  20.001  0.00  0.00    +0.000 NA
ATOM      7  C   UNL     1       1.742   8.238  19.461  0.00  0.00    +0.000 A 
ATOM      8  C   UNL     1       2.188   6.890  19.746  0.00  0.00    +0.000 A 
ATOM      9  N   UNL     1       3.145   6.330  19.043  0.00  0.00    +0.000 NA
ENDROOT
BRANCH   1  13
ATOM     10  C   UNL     1       6.780   5.436  15.520  0.00  0.00    +0.000 A 
ATOM     11  C   UNL     1       7.075   6.470  16.412  0.00  0.00    +0.000 A 
ATOM     12  C   UNL     1       6.091   6.974  17.265  0.00  0.00    +0.000 A 
ATOM     13  C   UNL     1       4.792   6.459  17.220  0.00  0.00    +0.000 A 
ATOM     14  C   UNL     1       4.497   5.421  16.326  0.00  0.00    +0.000 A 
ATOM     15  C   UNL     1       5.488   4.912  15.477  0.00  0.00    +0.000 A 
BRANCH  10  17
ATOM     16  C   UNL     1       7.503   4.884  13.339  0.00  0.00    +0.000 C 
ATOM     17  O   UNL     1       7.818   5.054  14.715  0.00  0.00    +0.000 OA
ENDBRANCH  10  17
ENDBRANCH   1  13
BRANCH   4  18
ATOM     18  O   UNL     1       2.058  11.103  17.476  0.00  0.00    +0.000 OA
ATOM     19  H   UNL     1       1.250  11.477  17.088  0.00  0.00    +0.000 HD
ENDBRANCH   4  18
BRANCH   5  20
ATOM     20  C   UNL     1      -0.320  11.139  19.564  0.00  0.00    +0.000 C 
BRANCH  20  21
ATOM     21  C   UNL     1      -1.354  10.997  18.474  0.00  0.00    +0.000 A 
ATOM     22  C   UNL     1      -1.235   9.996  17.496  0.00  0.00    +0.000 A 
ATOM     23  C   UNL     1      -2.247   9.796  16.553  0.00  0.00    +0.000 A 
ATOM     24  C   UNL     1      -3.380  10.602  16.584  0.00  0.00    +0.000 A 
ATOM     25  C   UNL     1      -3.503  11.619  17.523  0.00  0.00    +0.000 A 
ATOM     26  C   UNL     1      -2.491  11.820  18.463  0.00  0.00    +0.000 A 
BRANCH  24  27
ATOM     27  O   UNL     1      -4.409  10.417  15.709  0.00  0.00    +0.000 OA
ATOM     28  H   UNL     1      -4.921  11.241  15.657  0.00  0.00    +0.000 HD
ENDBRANCH  24  27
ENDBRANCH  20  21
ENDBRANCH   5  20
BRANCH   8  29
ATOM     29  C   UNL     1       1.525   6.117  20.864  0.00  0.00    +0.000 C 
BRANCH  29  30
ATOM     30  C   UNL     1       1.603   4.622  20.673  0.00  0.00    +0.000 A 
ATOM     31  C   UNL     1       2.254   3.817  21.618  0.00  0.00    +0.000 A 
ATOM     32  C   UNL     1       2.303   2.432  21.455  0.00  0.00    +0.000 A 
ATOM     33  C   UNL     1       1.710   1.838  20.342  0.00  0.00    +0.000 A 
ATOM     34  C   UNL     1       1.078   2.629  19.386  0.00  0.00    +0.000 A 
ATOM     35  C   UNL     1       1.029   4.015  19.547  0.00  0.00    +0.000 A 
ENDBRANCH  29  30
ENDBRANCH   8  29
TORSDOF 8
ENDMDL
MODEL 6
REMARK VINA RESULT:      -8.5      3.330      6.469
REMARK  Name = 
REMARK  9 active torsions:
REMARK  status: ('A' for Active; 'I' for Inactive)
REMARK    1  A    between atoms: C_1  and  O_2
REMARK    2  A    between atoms: O_2  and  C_3
REMARK    3  A    between atoms: C_6  and  C_7
REMARK    4  A    between atoms: C_10  and  O_11
REMARK    5  A    between atoms: C_12  and  C_13
REMARK    6  A    between atoms: C_13  and  C_14
REMARK    7  A    between atoms: C_17  and  O_18
REMARK    8  A    between atoms: C_23  and  C_24
REMARK    9  A    between atoms: C_24  and  C_25
REMARK                            x       y       z     vdW  Elec       q    Type
REMARK                         _______ _______ _______ _____ _____    ______ ____
ROOT
ATOM      1  C   UNL     1       1.074   9.155  19.575  0.00  0.00    +0.000 A 
ATOM      2  C   UNL     1       0.809   9.222  20.894  0.00  0.00    +0.000 A 
ATOM      3  N   UNL     1      -0.007  10.238  21.352  0.00  0.00    +0.000 N 
ATOM      4  C   UNL     1      -0.414  10.611  22.615  0.00  0.00    +0.000 A 
ATOM      5  C   UNL     1      -1.159  11.766  22.422  0.00  0.00    +0.000 A 
ATOM      6  N   UNL     1      -1.220  12.094  21.076  0.00  0.00    +0.000 NA
ATOM      7  C   UNL     1      -0.532  11.149  20.472  0.00  0.00    +0.000 A 
ATOM      8  C   UNL     1      -0.226  11.002  19.064  0.00  0.00    +0.000 A 
ATOM      9  N   UNL     1       0.558  10.038  18.639  0.00  0.00    +0.000 NA
ENDROOT
BRANCH   1  13
ATOM     10  C   UNL     1       3.830   6.119  18.366  0.00  0.00    +0.000 A 
ATOM     11  C   UNL     1       3.113   5.990  19.557  0.00  0.00    +0.000 A 
ATOM     12  C   UNL     1       2.177   6.958  19.930  0.00  0.00    +0.000 A 
ATOM     13  C   UNL     1       1.966   8.078  19.122  0.00  0.00    +0.000 A 
ATOM     14  C   UNL     1       2.685   8.206  17.926  0.00  0.00    +0.000 A 
ATOM     15  C   UNL     1       3.616   7.230  17.550  0.00  0.00    +0.000 A 
BRANCH  10  17
ATOM     16  C   UNL     1       4.745   4.054  19.065  0.00  0.00    +0.000 C 
ATOM     17  O   UNL     1       4.739   5.125  18.129  0.00  0.00    +0.000 OA
ENDBRANCH  10  17
ENDBRANCH   1  13
BRANCH   4  18
ATOM     18  O   UNL     1      -0.074   9.981  23.739  0.00  0.00    +0.000 OA
ATOM     19  H   UNL     1      -0.027  10.613  24.476  0.00  0.00    +0.000 HD
ENDBRANCH   4  18
BRANCH   5  20
ATOM     20  C   UNL     1      -1.721  12.670  23.464  0.00  0.00    +0.000 C 
BRANCH  20  21
ATOM     21  C   UNL     1      -3.223  12.669  23.328  0.00  0.00    +0.000 A 
ATOM     22  C   UNL     1      -4.046  12.445  24.444  0.00  0.00    +0.000 A 
ATOM     23  C   UNL     1      -5.436  12.553  24.338  0.00  0.00    +0.000 A 
ATOM     24  C   UNL     1      -6.005  12.880  23.112  0.00  0.00    +0.000 A 
ATOM     25  C   UNL     1      -5.212  13.074  21.988  0.00  0.00    +0.000 A 
ATOM     26  C   UNL     1      -3.823  12.964  22.094  0.00  0.00    +0.000 A 
BRANCH  24  27
ATOM     27  O   UNL     1      -7.353  13.034  22.972  0.00  0.00    +0.000 OA
ATOM     28  H   UNL     1      -7.726  12.198  22.647  0.00  0.00    +0.000 HD
ENDBRANCH  24  27
ENDBRANCH  20  21
ENDBRANCH   5  20
BRANCH   8  29
ATOM     29  C   UNL     1      -0.813  11.986  18.077  0.00  0.00    +0.000 C 
BRANCH  29  30
ATOM     30  C   UNL     1      -2.215  11.625  17.650  0.00  0.00    +0.000 A 
ATOM     31  C   UNL     1      -3.303  11.876  18.496  0.00  0.00    +0.000 A 
ATOM     32  C   UNL     1      -4.602  11.566  18.089  0.00  0.00    +0.000 A 
ATOM     33  C   UNL     1      -4.825  10.996  16.837  0.00  0.00    +0.000 A 
ATOM     34  C   UNL     1      -3.749  10.723  15.996  0.00  0.00    +0.000 A 
ATOM     35  C   UNL     1      -2.449  11.031  16.401  0.00  0.00    +0.000 A 
ENDBRANCH  29  30
ENDBRANCH   8  29
TORSDOF 8
ENDMDL
MODEL 7
REMARK VINA RESULT:      -8.4      2.920      5.877
REMARK  Name = 
REMARK  9 active torsions:
REMARK  status: ('A' for Active; 'I' for Inactive)
REMARK    1  A    between atoms: C_1  and  O_2
REMARK    2  A    between atoms: O_2  and  C_3
REMARK    3  A    between atoms: C_6  and  C_7
REMARK    4  A    between atoms: C_10  and  O_11
REMARK    5  A    between atoms: C_12  and  C_13
REMARK    6  A    between atoms: C_13  and  C_14
REMARK    7  A    between atoms: C_17  and  O_18
REMARK    8  A    between atoms: C_23  and  C_24
REMARK    9  A    between atoms: C_24  and  C_25
REMARK                            x       y       z     vdW  Elec       q    Type
REMARK                         _______ _______ _______ _____ _____    ______ ____
ROOT
ATOM      1  C   UNL     1       1.407   8.199  20.038  0.00  0.00    +0.000 A 
ATOM      2  C   UNL     1       1.021   8.382  21.315  0.00  0.00    +0.000 A 
ATOM      3  N   UNL     1       0.253   9.489  21.619  0.00  0.00    +0.000 N 
ATOM      4  C   UNL     1      -0.244   9.983  22.806  0.00  0.00    +0.000 A 
ATOM      5  C   UNL     1      -0.867  11.175  22.463  0.00  0.00    +0.000 A 
ATOM      6  N   UNL     1      -0.767  11.408  21.100  0.00  0.00    +0.000 NA
ATOM      7  C   UNL     1      -0.105  10.371  20.632  0.00  0.00    +0.000 A 
ATOM      8  C   UNL     1       0.325  10.098  19.276  0.00  0.00    +0.000 A 
ATOM      9  N   UNL     1       1.062   9.048  18.998  0.00  0.00    +0.000 NA
ENDROOT
BRANCH   1  13
ATOM     10  C   UNL     1       3.687   4.713  19.072  0.00  0.00    +0.000 A 
ATOM     11  C   UNL     1       3.786   5.864  18.287  0.00  0.00    +0.000 A 
ATOM     12  C   UNL     1       3.078   7.019  18.628  0.00  0.00    +0.000 A 
ATOM     13  C   UNL     1       2.245   7.026  19.750  0.00  0.00    +0.000 A 
ATOM     14  C   UNL     1       2.148   5.872  20.539  0.00  0.00    +0.000 A 
ATOM     15  C   UNL     1       2.865   4.718  20.200  0.00  0.00    +0.000 A 
BRANCH  10  17
ATOM     16  C   UNL     1       3.634   2.578  18.059  0.00  0.00    +0.000 C 
ATOM     17  O   UNL     1       4.400   3.640  18.616  0.00  0.00    +0.000 OA
ENDBRANCH  10  17
ENDBRANCH   1  13
BRANCH   4  18
ATOM     18  O   UNL     1      -0.071   9.413  23.998  0.00  0.00    +0.000 OA
ATOM     19  H   UNL     1      -0.198  10.068  24.704  0.00  0.00    +0.000 HD
ENDBRANCH   4  18
BRANCH   5  20
ATOM     20  C   UNL     1      -1.449  12.193  23.380  0.00  0.00    +0.000 C 
BRANCH  20  21
ATOM     21  C   UNL     1      -2.404  13.050  22.586  0.00  0.00    +0.000 A 
ATOM     22  C   UNL     1      -1.999  14.294  22.076  0.00  0.00    +0.000 A 
ATOM     23  C   UNL     1      -2.848  15.037  21.250  0.00  0.00    +0.000 A 
ATOM     24  C   UNL     1      -4.106  14.536  20.934  0.00  0.00    +0.000 A 
ATOM     25  C   UNL     1      -4.539  13.322  21.454  0.00  0.00    +0.000 A 
ATOM     26  C   UNL     1      -3.692  12.581  22.281  0.00  0.00    +0.000 A 
BRANCH  24  27
ATOM     27  O   UNL     1      -4.951  15.207  20.101  0.00  0.00    +0.000 OA
ATOM     28  H   UNL     1      -5.864  15.045  20.392  0.00  0.00    +0.000 HD
ENDBRANCH  24  27
ENDBRANCH  20  21
ENDBRANCH   5  20
BRANCH   8  29
ATOM     29  C   UNL     1      -0.077  11.050  18.172  0.00  0.00    +0.000 C 
BRANCH  29  30
ATOM     30  C   UNL     1      -1.531  10.922  17.786  0.00  0.00    +0.000 A 
ATOM     31  C   UNL     1      -2.491  11.782  18.334  0.00  0.00    +0.000 A 
ATOM     32  C   UNL     1      -3.831  11.681  17.955  0.00  0.00    +0.000 A 
ATOM     33  C   UNL     1      -4.225  10.714  17.032  0.00  0.00    +0.000 A 
ATOM     34  C   UNL     1      -3.283   9.840  16.496  0.00  0.00    +0.000 A 
ATOM     35  C   UNL     1      -1.943   9.939  16.874  0.00  0.00    +0.000 A 
ENDBRANCH  29  30
ENDBRANCH   8  29
TORSDOF 8
ENDMDL
MODEL 8
REMARK VINA RESULT:      -8.3      2.926      6.001
REMARK  Name = 
REMARK  9 active torsions:
REMARK  status: ('A' for Active; 'I' for Inactive)
REMARK    1  A    between atoms: C_1  and  O_2
REMARK    2  A    between atoms: O_2  and  C_3
REMARK    3  A    between atoms: C_6  and  C_7
REMARK    4  A    between atoms: C_10  and  O_11
REMARK    5  A    between atoms: C_12  and  C_13
REMARK    6  A    between atoms: C_13  and  C_14
REMARK    7  A    between atoms: C_17  and  O_18
REMARK    8  A    between atoms: C_23  and  C_24
REMARK    9  A    between atoms: C_24  and  C_25
REMARK                            x       y       z     vdW  Elec       q    Type
REMARK                         _______ _______ _______ _____ _____    ______ ____
ROOT
ATOM      1  C   UNL     1       1.404   8.058  20.074  0.00  0.00    +0.000 A 
ATOM      2  C   UNL     1       1.024   8.281  21.346  0.00  0.00    +0.000 A 
ATOM      3  N   UNL     1       0.294   9.420  21.625  0.00  0.00    +0.000 N 
ATOM      4  C   UNL     1      -0.186   9.957  22.801  0.00  0.00    +0.000 A 
ATOM      5  C   UNL     1      -0.768  11.161  22.431  0.00  0.00    +0.000 A 
ATOM      6  N   UNL     1      -0.660  11.360  21.063  0.00  0.00    +0.000 NA
ATOM      7  C   UNL     1      -0.034  10.292  20.619  0.00  0.00    +0.000 A 
ATOM      8  C   UNL     1       0.387   9.975  19.270  0.00  0.00    +0.000 A 
ATOM      9  N   UNL     1       1.088   8.895  19.015  0.00  0.00    +0.000 NA
ENDROOT
BRANCH   1  13
ATOM     10  C   UNL     1       3.862   4.611  19.472  0.00  0.00    +0.000 A 
ATOM     11  C   UNL     1       2.821   4.585  20.402  0.00  0.00    +0.000 A 
ATOM     12  C   UNL     1       1.987   5.693  20.566  0.00  0.00    +0.000 A 
ATOM     13  C   UNL     1       2.202   6.851  19.813  0.00  0.00    +0.000 A 
ATOM     14  C   UNL     1       3.247   6.877  18.879  0.00  0.00    +0.000 A 
ATOM     15  C   UNL     1       4.076   5.761  18.711  0.00  0.00    +0.000 A 
BRANCH  10  17
ATOM     16  C   UNL     1       4.158   2.384  20.206  0.00  0.00    +0.000 C 
ATOM     17  O   UNL     1       4.628   3.479  19.429  0.00  0.00    +0.000 OA
ENDBRANCH  10  17
ENDBRANCH   1  13
BRANCH   4  18
ATOM     18  O   UNL     1      -0.032   9.407  24.006  0.00  0.00    +0.000 OA
ATOM     19  H   UNL     1      -0.649   9.811  24.639  0.00  0.00    +0.000 HD
ENDBRANCH   4  18
BRANCH   5  20
ATOM     20  C   UNL     1      -1.316  12.218  23.325  0.00  0.00    +0.000 C 
BRANCH  20  21
ATOM     21  C   UNL     1      -2.312  13.032  22.536  0.00  0.00    +0.000 A 
ATOM     22  C   UNL     1      -1.939  14.252  21.948  0.00  0.00    +0.000 A 
ATOM     23  C   UNL     1      -2.829  14.950  21.127  0.00  0.00    +0.000 A 
ATOM     24  C   UNL     1      -4.098  14.429  20.896  0.00  0.00    +0.000 A 
ATOM     25  C   UNL     1      -4.499  13.241  21.493  0.00  0.00    +0.000 A 
ATOM     26  C   UNL     1      -3.610  12.544  22.315  0.00  0.00    +0.000 A 
BRANCH  24  27
ATOM     27  O   UNL     1      -4.985  15.056  20.071  0.00  0.00    +0.000 OA
ATOM     28  H   UNL     1      -5.845  14.613  20.150  0.00  0.00    +0.000 HD
ENDBRANCH  24  27
ENDBRANCH  20  21
ENDBRANCH   5  20
BRANCH   8  29
ATOM     29  C   UNL     1       0.017  10.915  18.145  0.00  0.00    +0.000 C 
BRANCH  29  30
ATOM     30  C   UNL     1      -1.452  10.871  17.799  0.00  0.00    +0.000 A 
ATOM     31  C   UNL     1      -1.949   9.890  16.932  0.00  0.00    +0.000 A 
ATOM     32  C   UNL     1      -3.312   9.833  16.633  0.00  0.00    +0.000 A 
ATOM     33  C   UNL     1      -4.189  10.759  17.194  0.00  0.00    +0.000 A 
ATOM     34  C   UNL     1      -3.703  11.751  18.042  0.00  0.00    +0.000 A 
ATOM     35  C   UNL     1      -2.341  11.811  18.340  0.00  0.00    +0.000 A 
ENDBRANCH  29  30
ENDBRANCH   8  29
TORSDOF 8
ENDMDL
MODEL 9
REMARK VINA RESULT:      -8.2      1.840      3.133
REMARK  Name = 
REMARK  9 active torsions:
REMARK  status: ('A' for Active; 'I' for Inactive)
REMARK    1  A    between atoms: C_1  and  O_2
REMARK    2  A    between atoms: O_2  and  C_3
REMARK    3  A    between atoms: C_6  and  C_7
REMARK    4  A    between atoms: C_10  and  O_11
REMARK    5  A    between atoms: C_12  and  C_13
REMARK    6  A    between atoms: C_13  and  C_14
REMARK    7  A    between atoms: C_17  and  O_18
REMARK    8  A    between atoms: C_23  and  C_24
REMARK    9  A    between atoms: C_24  and  C_25
REMARK                            x       y       z     vdW  Elec       q    Type
REMARK                         _______ _______ _______ _____ _____    ______ ____
ROOT
ATOM      1  C   UNL     1       3.543   6.808  17.808  0.00  0.00    +0.000 A 
ATOM      2  C   UNL     1       3.312   8.092  17.474  0.00  0.00    +0.000 A 
ATOM      3  N   UNL     1       2.452   8.833  18.262  0.00  0.00    +0.000 N 
ATOM      4  C   UNL     1       1.971  10.121  18.163  0.00  0.00    +0.000 A 
ATOM      5  C   UNL     1       1.077  10.249  19.216  0.00  0.00    +0.000 A 
ATOM      6  N   UNL     1       1.012   9.076  19.952  0.00  0.00    +0.000 NA
ATOM      7  C   UNL     1       1.859   8.262  19.358  0.00  0.00    +0.000 A 
ATOM      8  C   UNL     1       2.173   6.884  19.672  0.00  0.00    +0.000 A 
ATOM      9  N   UNL     1       2.984   6.185  18.913  0.00  0.00    +0.000 NA
ENDROOT
BRANCH   1  13
ATOM     10  C   UNL     1       5.993   4.548  15.130  0.00  0.00    +0.000 A 
ATOM     11  C   UNL     1       5.906   5.936  15.009  0.00  0.00    +0.000 A 
ATOM     12  C   UNL     1       5.144   6.681  15.912  0.00  0.00    +0.000 A 
ATOM     13  C   UNL     1       4.442   6.038  16.936  0.00  0.00    +0.000 A 
ATOM     14  C   UNL     1       4.531   4.645  17.057  0.00  0.00    +0.000 A 
ATOM     15  C   UNL     1       5.302   3.902  16.155  0.00  0.00    +0.000 A 
BRANCH  10  17
ATOM     16  C   UNL     1       6.055   3.605  12.963  0.00  0.00    +0.000 C 
ATOM     17  O   UNL     1       6.741   3.930  14.166  0.00  0.00    +0.000 OA
ENDBRANCH  10  17
ENDBRANCH   1  13
BRANCH   4  18
ATOM     18  O   UNL     1       2.297  10.981  17.198  0.00  0.00    +0.000 OA
ATOM     19  H   UNL     1       2.520  10.502  16.383  0.00  0.00    +0.000 HD
ENDBRANCH   4  18
BRANCH   5  20
ATOM     20  C   UNL     1       0.163  11.390  19.499  0.00  0.00    +0.000 C 
BRANCH  20  21
ATOM     21  C   UNL     1       0.994  12.645  19.600  0.00  0.00    +0.000 A 
ATOM     22  C   UNL     1       0.805  13.707  18.702  0.00  0.00    +0.000 A 
ATOM     23  C   UNL     1       1.498  14.910  18.863  0.00  0.00    +0.000 A 
ATOM     24  C   UNL     1       2.386  15.051  19.924  0.00  0.00    +0.000 A 
ATOM     25  C   UNL     1       2.613  14.001  20.806  0.00  0.00    +0.000 A 
ATOM     26  C   UNL     1       1.921  12.798  20.643  0.00  0.00    +0.000 A 
BRANCH  24  27
ATOM     27  O   UNL     1       3.055  16.219  20.143  0.00  0.00    +0.000 OA
ATOM     28  H   UNL     1       3.802  16.039  20.737  0.00  0.00    +0.000 HD
ENDBRANCH  24  27
ENDBRANCH  20  21
ENDBRANCH   5  20
BRANCH   8  29
ATOM     29  C   UNL     1       1.543   6.245  20.889  0.00  0.00    +0.000 C 
BRANCH  29  30
ATOM     30  C   UNL     1       1.576   4.736  20.845  0.00  0.00    +0.000 A 
ATOM     31  C   UNL     1       0.795   4.035  19.918  0.00  0.00    +0.000 A 
ATOM     32  C   UNL     1       0.846   2.641  19.860  0.00  0.00    +0.000 A 
ATOM     33  C   UNL     1       1.673   1.935  20.732  0.00  0.00    +0.000 A 
ATOM     34  C   UNL     1       2.438   2.621  21.672  0.00  0.00    +0.000 A 
ATOM     35  C   UNL     1       2.388   4.015  21.732  0.00  0.00    +0.000 A 
ENDBRANCH  29  30
ENDBRANCH   8  29
TORSDOF 8
ENDMDL
