MODEL 1
REMARK VINA RESULT:      -8.0      0.000      0.000
REMARK  Name = 
REMARK  10 active torsions:
REMARK  status: ('A' for Active; 'I' for Inactive)
REMARK    1  A    between atoms: C_1  and  C_2
REMARK    2  A    between atoms: C_6  and  O_7
REMARK    3  A    between atoms: O_7  and  C_8
REMARK    4  A    between atoms: C_10  and  C_11
REMARK    5  A    between atoms: C_14  and  C_15
REMARK    6  A    between atoms: N_16  and  O_17
REMARK    7  A    between atoms: N_18  and  C_19
REMARK    8  A    between atoms: C_19  and  C_20
REMARK    9  A    between atoms: C_20  and  C_21
REMARK   10  A    between atoms: C_20  and  C_22
REMARK                            x       y       z     vdW  Elec       q    Type
REMARK                         _______ _______ _______ _____ _____    ______ ____
ROOT
ATOM      1  C   UNL     1       3.367   4.677  18.996  0.00  0.00    +0.000 A 
ATOM      2  N   UNL     1       2.135   4.129  19.190  0.00  0.00    +0.000 NA
ATOM      3  C   UNL     1       1.849   2.949  18.588  0.00  0.00    +0.000 A 
ATOM      4  C   UNL     1       0.497   2.353  18.845  0.00  0.00    +0.000 C 
ATOM      5  C   UNL     1       2.750   2.295  17.765  0.00  0.00    +0.000 A 
ATOM      6  C   UNL     1       4.027   2.826  17.621  0.00  0.00    +0.000 A 
ATOM      7  C   UNL     1       4.374   4.009  18.288  0.00  0.00    +0.000 A 
ENDROOT
BRANCH   7   8
ATOM      8  C   UNL     1       5.789   4.475  18.147  0.00  0.00    +0.000 C 
ATOM      9  N   UNL     1       6.447   4.697  19.257  0.00  0.00    +0.000 NA
ATOM     10  N   UNL     1       6.386   4.650  16.923  0.00  0.00    +0.000 N 
ATOM     11  H   UNL     1       7.369   4.884  17.017  0.00  0.00    +0.000 HD
BRANCH   9  12
ATOM     12  O   UNL     1       7.759   5.129  19.000  0.00  0.00    +0.000 OA
ATOM     13  H   UNL     1       8.217   4.284  18.832  0.00  0.00    +0.000 HD
ENDBRANCH   9  12
BRANCH  10  14
ATOM     14  C   UNL     1       5.751   5.002  15.671  0.00  0.00    +0.000 C 
BRANCH  14  15
ATOM     15  C   UNL     1       6.362   4.223  14.503  0.00  0.00    +0.000 C 
ATOM     16  C   UNL     1       5.297   3.834  13.479  0.00  0.00    +0.000 C 
ATOM     17  C   UNL     1       7.442   5.086  13.849  0.00  0.00    +0.000 C 
ENDBRANCH  14  15
ENDBRANCH  10  14
ENDBRANCH   7   8
BRANCH   1  18
ATOM     18  O   UNL     1       3.500   5.887  19.642  0.00  0.00    +0.000 OA
BRANCH  18  24
ATOM     19  C   UNL     1       0.357   9.343  21.041  0.00  0.00    +0.000 C 
ATOM     20  C   UNL     1       1.232   8.734  19.986  0.00  0.00    +0.000 A 
ATOM     21  C   UNL     1       1.354   9.333  18.729  0.00  0.00    +0.000 A 
ATOM     22  C   UNL     1       2.115   8.730  17.728  0.00  0.00    +0.000 A 
ATOM     23  C   UNL     1       2.777   7.529  17.974  0.00  0.00    +0.000 A 
ATOM     24  C   UNL     1       2.747   6.973  19.251  0.00  0.00    +0.000 A 
ATOM     25  C   UNL     1       1.938   7.549  20.241  0.00  0.00    +0.000 A 
ENDBRANCH  18  24
ENDBRANCH   1  18
TORSDOF 6
ENDMDL
MODEL 2
REMARK VINA RESULT:      -7.9      0.941      1.622
REMARK  Name = 
REMARK  10 active torsions:
REMARK  status: ('A' for Active; 'I' for Inactive)
REMARK    1  A    between atoms: C_1  and  C_2
REMARK    2  A    between atoms: C_6  and  O_7
REMARK    3  A    between atoms: O_7  and  C_8
REMARK    4  A    between atoms: C_10  and  C_11
REMARK    5  A    between atoms: C_14  and  C_15
REMARK    6  A    between atoms: N_16  and  O_17
REMARK    7  A    between atoms: N_18  and  C_19
REMARK    8  A    between atoms: C_19  and  C_20
REMARK    9  A    between atoms: C_20  and  C_21
REMARK   10  A    between atoms: C_20  and  C_22
REMARK                            x       y       z     vdW  Elec       q    Type
REMARK                         _______ _______ _______ _____ _____    ______ ____
ROOT
ATOM      1  C   UNL     1       3.162   4.612  18.258  0.00  0.00    +0.000 A 
ATOM      2  N   UNL     1       1.906   4.102  18.387  0.00  0.00    +0.000 NA
ATOM      3  C   UNL     1       1.767   2.801  18.742  0.00  0.00    +0.000 A 
ATOM      4  C   UNL     1       0.373   2.276  18.908  0.00  0.00    +0.000 C 
ATOM      5  C   UNL     1       2.852   1.968  18.952  0.00  0.00    +0.000 A 
ATOM      6  C   UNL     1       4.132   2.509  18.881  0.00  0.00    +0.000 A 
ATOM      7  C   UNL     1       4.302   3.868  18.584  0.00  0.00    +0.000 A 
ENDROOT
BRANCH   7   8
ATOM      8  C   UNL     1       5.704   4.393  18.602  0.00  0.00    +0.000 C 
ATOM      9  N   UNL     1       6.059   5.078  19.660  0.00  0.00    +0.000 NA
ATOM     10  N   UNL     1       6.589   4.162  17.578  0.00  0.00    +0.000 N 
ATOM     11  H   UNL     1       7.514   4.516  17.797  0.00  0.00    +0.000 HD
BRANCH   9  12
ATOM     12  O   UNL     1       7.390   5.518  19.564  0.00  0.00    +0.000 OA
ATOM     13  H   UNL     1       7.274   6.479  19.447  0.00  0.00    +0.000 HD
ENDBRANCH   9  12
BRANCH  10  14
ATOM     14  C   UNL     1       6.286   3.957  16.178  0.00  0.00    +0.000 C 
BRANCH  14  15
ATOM     15  C   UNL     1       6.605   5.207  15.354  0.00  0.00    +0.000 C 
ATOM     16  C   UNL     1       7.035   4.841  13.934  0.00  0.00    +0.000 C 
ATOM     17  C   UNL     1       5.366   6.102  15.322  0.00  0.00    +0.000 C 
ENDBRANCH  14  15
ENDBRANCH  10  14
ENDBRANCH   7   8
BRANCH   1  18
ATOM     18  O   UNL     1       3.144   5.932  17.863  0.00  0.00    +0.000 OA
BRANCH  18  24
ATOM     19  C   UNL     1       1.260  10.423  18.114  0.00  0.00    +0.000 C 
ATOM     20  C   UNL     1       1.590   9.115  18.769  0.00  0.00    +0.000 A 
ATOM     21  C   UNL     1       1.228   8.874  20.097  0.00  0.00    +0.000 A 
ATOM     22  C   UNL     1       1.594   7.683  20.725  0.00  0.00    +0.000 A 
ATOM     23  C   UNL     1       2.312   6.713  20.031  0.00  0.00    +0.000 A 
ATOM     24  C   UNL     1       2.592   6.896  18.679  0.00  0.00    +0.000 A 
ATOM     25  C   UNL     1       2.274   8.115  18.062  0.00  0.00    +0.000 A 
ENDBRANCH  18  24
ENDBRANCH   1  18
TORSDOF 6
ENDMDL
MODEL 3
REMARK VINA RESULT:      -7.9      1.156      1.351
REMARK  Name = 
REMARK  10 active torsions:
REMARK  status: ('A' for Active; 'I' for Inactive)
REMARK    1  A    between atoms: C_1  and  C_2
REMARK    2  A    between atoms: C_6  and  O_7
REMARK    3  A    between atoms: O_7  and  C_8
REMARK    4  A    between atoms: C_10  and  C_11
REMARK    5  A    between atoms: C_14  and  C_15
REMARK    6  A    between atoms: N_16  and  O_17
REMARK    7  A    between atoms: N_18  and  C_19
REMARK    8  A    between atoms: C_19  and  C_20
REMARK    9  A    between atoms: C_20  and  C_21
REMARK   10  A    between atoms: C_20  and  C_22
REMARK                            x       y       z     vdW  Elec       q    Type
REMARK                         _______ _______ _______ _____ _____    ______ ____
ROOT
ATOM      1  C   UNL     1       3.573   5.056  18.771  0.00  0.00    +0.000 A 
ATOM      2  N   UNL     1       2.299   4.712  19.107  0.00  0.00    +0.000 NA
ATOM      3  C   UNL     1       2.086   3.513  19.702  0.00  0.00    +0.000 A 
ATOM      4  C   UNL     1       0.678   3.175  20.089  0.00  0.00    +0.000 C 
ATOM      5  C   UNL     1       3.111   2.617  19.957  0.00  0.00    +0.000 A 
ATOM      6  C   UNL     1       4.417   3.000  19.670  0.00  0.00    +0.000 A 
ATOM      7  C   UNL     1       4.673   4.262  19.119  0.00  0.00    +0.000 A 
ENDROOT
BRANCH   7   8
ATOM      8  C   UNL     1       6.108   4.631  18.911  0.00  0.00    +0.000 C 
ATOM      9  N   UNL     1       6.682   5.314  19.870  0.00  0.00    +0.000 NA
ATOM     10  N   UNL     1       6.806   4.265  17.787  0.00  0.00    +0.000 N 
ATOM     11  H   UNL     1       7.785   4.524  17.854  0.00  0.00    +0.000 HD
BRANCH   9  12
ATOM     12  O   UNL     1       8.023   5.602  19.564  0.00  0.00    +0.000 OA
ATOM     13  H   UNL     1       8.056   5.407  18.609  0.00  0.00    +0.000 HD
ENDBRANCH   9  12
BRANCH  10  14
ATOM     14  C   UNL     1       6.284   4.039  16.456  0.00  0.00    +0.000 C 
BRANCH  14  15
ATOM     15  C   UNL     1       6.583   5.226  15.537  0.00  0.00    +0.000 C 
ATOM     16  C   UNL     1       6.984   4.757  14.138  0.00  0.00    +0.000 C 
ATOM     17  C   UNL     1       5.342   6.116  15.465  0.00  0.00    +0.000 C 
ENDBRANCH  14  15
ENDBRANCH  10  14
ENDBRANCH   7   8
BRANCH   1  18
ATOM     18  O   UNL     1       3.628   6.285  18.148  0.00  0.00    +0.000 OA
BRANCH  18  24
ATOM     19  C   UNL     1       1.081   8.416  21.718  0.00  0.00    +0.000 C 
ATOM     20  C   UNL     1       1.515   8.368  20.284  0.00  0.00    +0.000 A 
ATOM     21  C   UNL     1       1.111   9.359  19.384  0.00  0.00    +0.000 A 
ATOM     22  C   UNL     1       1.460   9.276  18.037  0.00  0.00    +0.000 A 
ATOM     23  C   UNL     1       2.230   8.213  17.573  0.00  0.00    +0.000 A 
ATOM     24  C   UNL     1       2.724   7.273  18.474  0.00  0.00    +0.000 A 
ATOM     25  C   UNL     1       2.328   7.324  19.819  0.00  0.00    +0.000 A 
ENDBRANCH  18  24
ENDBRANCH   1  18
TORSDOF 6
ENDMDL
MODEL 4
REMARK VINA RESULT:      -7.7      2.398      5.005
REMARK  Name = 
REMARK  10 active torsions:
REMARK  status: ('A' for Active; 'I' for Inactive)
REMARK    1  A    between atoms: C_1  and  C_2
REMARK    2  A    between atoms: C_6  and  O_7
REMARK    3  A    between atoms: O_7  and  C_8
REMARK    4  A    between atoms: C_10  and  C_11
REMARK    5  A    between atoms: C_14  and  C_15
REMARK    6  A    between atoms: N_16  and  O_17
REMARK    7  A    between atoms: N_18  and  C_19
REMARK    8  A    between atoms: C_19  and  C_20
REMARK    9  A    between atoms: C_20  and  C_21
REMARK   10  A    between atoms: C_20  and  C_22
REMARK                            x       y       z     vdW  Elec       q    Type
REMARK                         _______ _______ _______ _____ _____    ______ ____
ROOT
ATOM      1  C   UNL     1       4.400   6.276  17.690  0.00  0.00    +0.000 A 
ATOM      2  N   UNL     1       5.396   7.188  17.510  0.00  0.00    +0.000 NA
ATOM      3  C   UNL     1       6.676   6.802  17.730  0.00  0.00    +0.000 A 
ATOM      4  C   UNL     1       7.753   7.818  17.493  0.00  0.00    +0.000 C 
ATOM      5  C   UNL     1       7.006   5.526  18.154  0.00  0.00    +0.000 A 
ATOM      6  C   UNL     1       5.992   4.582  18.275  0.00  0.00    +0.000 A 
ATOM      7  C   UNL     1       4.667   4.935  17.987  0.00  0.00    +0.000 A 
ENDROOT
BRANCH   7   8
ATOM      8  C   UNL     1       3.645   3.844  18.064  0.00  0.00    +0.000 C 
ATOM      9  N   UNL     1       3.128   3.444  16.929  0.00  0.00    +0.000 NA
ATOM     10  N   UNL     1       3.271   3.271  19.254  0.00  0.00    +0.000 N 
ATOM     11  H   UNL     1       2.636   2.493  19.110  0.00  0.00    +0.000 HD
BRANCH   9  12
ATOM     12  O   UNL     1       2.184   2.422  17.127  0.00  0.00    +0.000 OA
ATOM     13  H   UNL     1       1.587   2.553  16.367  0.00  0.00    +0.000 HD
ENDBRANCH   9  12
BRANCH  10  14
ATOM     14  C   UNL     1       3.265   3.880  20.566  0.00  0.00    +0.000 C 
BRANCH  14  15
ATOM     15  C   UNL     1       1.876   3.799  21.207  0.00  0.00    +0.000 C 
ATOM     16  C   UNL     1       0.773   3.959  20.161  0.00  0.00    +0.000 C 
ATOM     17  C   UNL     1       1.743   2.454  21.921  0.00  0.00    +0.000 C 
ENDBRANCH  14  15
ENDBRANCH  10  14
ENDBRANCH   7   8
BRANCH   1  18
ATOM     18  O   UNL     1       3.155   6.821  17.461  0.00  0.00    +0.000 OA
BRANCH  18  24
ATOM     19  C   UNL     1       0.626  10.865  18.477  0.00  0.00    +0.000 C 
ATOM     20  C   UNL     1       1.204   9.551  18.912  0.00  0.00    +0.000 A 
ATOM     21  C   UNL     1       0.988   9.073  20.208  0.00  0.00    +0.000 A 
ATOM     22  C   UNL     1       1.581   7.884  20.632  0.00  0.00    +0.000 A 
ATOM     23  C   UNL     1       2.383   7.149  19.763  0.00  0.00    +0.000 A 
ATOM     24  C   UNL     1       2.526   7.560  18.440  0.00  0.00    +0.000 A 
ATOM     25  C   UNL     1       1.976   8.783  18.029  0.00  0.00    +0.000 A 
ENDBRANCH  18  24
ENDBRANCH   1  18
TORSDOF 6
ENDMDL
MODEL 5
REMARK VINA RESULT:      -7.6      0.751      1.369
REMARK  Name = 
REMARK  10 active torsions:
REMARK  status: ('A' for Active; 'I' for Inactive)
REMARK    1  A    between atoms: C_1  and  C_2
REMARK    2  A    between atoms: C_6  and  O_7
REMARK    3  A    between atoms: O_7  and  C_8
REMARK    4  A    between atoms: C_10  and  C_11
REMARK    5  A    between atoms: C_14  and  C_15
REMARK    6  A    between atoms: N_16  and  O_17
REMARK    7  A    between atoms: N_18  and  C_19
REMARK    8  A    between atoms: C_19  and  C_20
REMARK    9  A    between atoms: C_20  and  C_21
REMARK   10  A    between atoms: C_20  and  C_22
REMARK                            x       y       z     vdW  Elec       q    Type
REMARK                         _______ _______ _______ _____ _____    ______ ____
ROOT
ATOM      1  C   UNL     1       3.175   4.722  17.896  0.00  0.00    +0.000 A 
ATOM      2  N   UNL     1       1.922   4.281  18.195  0.00  0.00    +0.000 NA
ATOM      3  C   UNL     1       1.737   2.957  18.421  0.00  0.00    +0.000 A 
ATOM      4  C   UNL     1       0.354   2.505  18.780  0.00  0.00    +0.000 C 
ATOM      5  C   UNL     1       2.768   2.037  18.334  0.00  0.00    +0.000 A 
ATOM      6  C   UNL     1       4.056   2.501  18.091  0.00  0.00    +0.000 A 
ATOM      7  C   UNL     1       4.287   3.873  17.922  0.00  0.00    +0.000 A 
ENDROOT
BRANCH   7   8
ATOM      8  C   UNL     1       5.710   4.301  17.742  0.00  0.00    +0.000 C 
ATOM      9  N   UNL     1       6.388   4.556  18.833  0.00  0.00    +0.000 NA
ATOM     10  N   UNL     1       6.294   4.411  16.504  0.00  0.00    +0.000 N 
ATOM     11  H   UNL     1       7.282   4.627  16.576  0.00  0.00    +0.000 HD
BRANCH   9  12
ATOM     12  O   UNL     1       7.705   4.949  18.541  0.00  0.00    +0.000 OA
ATOM     13  H   UNL     1       7.604   5.911  18.422  0.00  0.00    +0.000 HD
ENDBRANCH   9  12
BRANCH  10  14
ATOM     14  C   UNL     1       5.650   4.722  15.247  0.00  0.00    +0.000 C 
BRANCH  14  15
ATOM     15  C   UNL     1       6.370   4.050  14.075  0.00  0.00    +0.000 C 
ATOM     16  C   UNL     1       5.387   3.658  12.972  0.00  0.00    +0.000 C 
ATOM     17  C   UNL     1       7.426   5.011  13.531  0.00  0.00    +0.000 C 
ENDBRANCH  14  15
ENDBRANCH  10  14
ENDBRANCH   7   8
BRANCH   1  18
ATOM     18  O   UNL     1       3.201   6.080  17.662  0.00  0.00    +0.000 OA
BRANCH  18  24
ATOM     19  C   UNL     1       1.116  10.440  18.314  0.00  0.00    +0.000 C 
ATOM     20  C   UNL     1       1.535   9.107  18.858  0.00  0.00    +0.000 A 
ATOM     21  C   UNL     1       1.241   8.753  20.178  0.00  0.00    +0.000 A 
ATOM     22  C   UNL     1       1.690   7.541  20.703  0.00  0.00    +0.000 A 
ATOM     23  C   UNL     1       2.424   6.661  19.912  0.00  0.00    +0.000 A 
ATOM     24  C   UNL     1       2.638   6.955  18.567  0.00  0.00    +0.000 A 
ATOM     25  C   UNL     1       2.235   8.196  18.054  0.00  0.00    +0.000 A 
ENDBRANCH  18  24
ENDBRANCH   1  18
TORSDOF 6
ENDMDL
MODEL 6
REMARK VINA RESULT:      -7.6      1.615      4.029
REMARK  Name = 
REMARK  10 active torsions:
REMARK  status: ('A' for Active; 'I' for Inactive)
REMARK    1  A    between atoms: C_1  and  C_2
REMARK    2  A    between atoms: C_6  and  O_7
REMARK    3  A    between atoms: O_7  and  C_8
REMARK    4  A    between atoms: C_10  and  C_11
REMARK    5  A    between atoms: C_14  and  C_15
REMARK    6  A    between atoms: N_16  and  O_17
REMARK    7  A    between atoms: N_18  and  C_19
REMARK    8  A    between atoms: C_19  and  C_20
REMARK    9  A    between atoms: C_20  and  C_21
REMARK   10  A    between atoms: C_20  and  C_22
REMARK                            x       y       z     vdW  Elec       q    Type
REMARK                         _______ _______ _______ _____ _____    ______ ____
ROOT
ATOM      1  C   UNL     1       4.345   5.690  18.590  0.00  0.00    +0.000 A 
ATOM      2  N   UNL     1       3.295   6.554  18.675  0.00  0.00    +0.000 NA
ATOM      3  C   UNL     1       3.240   7.595  17.809  0.00  0.00    +0.000 A 
ATOM      4  C   UNL     1       2.057   8.510  17.905  0.00  0.00    +0.000 C 
ATOM      5  C   UNL     1       4.221   7.825  16.860  0.00  0.00    +0.000 A 
ATOM      6  C   UNL     1       5.257   6.906  16.735  0.00  0.00    +0.000 A 
ATOM      7  C   UNL     1       5.301   5.783  17.572  0.00  0.00    +0.000 A 
ENDROOT
BRANCH   7   8
ATOM      8  C   UNL     1       6.402   4.799  17.325  0.00  0.00    +0.000 C 
ATOM      9  N   UNL     1       7.472   4.917  18.071  0.00  0.00    +0.000 NA
ATOM     10  N   UNL     1       6.304   3.809  16.379  0.00  0.00    +0.000 N 
ATOM     11  H   UNL     1       7.103   3.184  16.408  0.00  0.00    +0.000 HD
BRANCH   9  12
ATOM     12  O   UNL     1       8.433   3.944  17.748  0.00  0.00    +0.000 OA
ATOM     13  H   UNL     1       8.706   4.223  16.855  0.00  0.00    +0.000 HD
ENDBRANCH   9  12
BRANCH  10  14
ATOM     14  C   UNL     1       5.543   3.833  15.149  0.00  0.00    +0.000 C 
BRANCH  14  15
ATOM     15  C   UNL     1       6.464   3.769  13.928  0.00  0.00    +0.000 C 
ATOM     16  C   UNL     1       5.666   3.558  12.641  0.00  0.00    +0.000 C 
ATOM     17  C   UNL     1       7.267   5.067  13.850  0.00  0.00    +0.000 C 
ENDBRANCH  14  15
ENDBRANCH  10  14
ENDBRANCH   7   8
BRANCH   1  18
ATOM     18  O   UNL     1       4.281   4.705  19.552  0.00  0.00    +0.000 OA
BRANCH  18  24
ATOM     19  C   UNL     1       1.048   2.285  22.286  0.00  0.00    +0.000 C 
ATOM     20  C   UNL     1       1.585   2.660  20.937  0.00  0.00    +0.000 A 
ATOM     21  C   UNL     1       0.960   2.207  19.771  0.00  0.00    +0.000 A 
ATOM     22  C   UNL     1       1.499   2.501  18.519  0.00  0.00    +0.000 A 
ATOM     23  C   UNL     1       2.660   3.263  18.414  0.00  0.00    +0.000 A 
ATOM     24  C   UNL     1       3.238   3.804  19.560  0.00  0.00    +0.000 A 
ATOM     25  C   UNL     1       2.728   3.465  20.822  0.00  0.00    +0.000 A 
ENDBRANCH  18  24
ENDBRANCH   1  18
TORSDOF 6
ENDMDL
MODEL 7
REMARK VINA RESULT:      -7.5      2.426      4.822
REMARK  Name = 
REMARK  10 active torsions:
REMARK  status: ('A' for Active; 'I' for Inactive)
REMARK    1  A    between atoms: C_1  and  C_2
REMARK    2  A    between atoms: C_6  and  O_7
REMARK    3  A    between atoms: O_7  and  C_8
REMARK    4  A    between atoms: C_10  and  C_11
REMARK    5  A    between atoms: C_14  and  C_15
REMARK    6  A    between atoms: N_16  and  O_17
REMARK    7  A    between atoms: N_18  and  C_19
REMARK    8  A    between atoms: C_19  and  C_20
REMARK    9  A    between atoms: C_20  and  C_21
REMARK   10  A    between atoms: C_20  and  C_22
REMARK                            x       y       z     vdW  Elec       q    Type
REMARK                         _______ _______ _______ _____ _____    ______ ____
ROOT
ATOM      1  C   UNL     1       4.437   5.794  17.886  0.00  0.00    +0.000 A 
ATOM      2  N   UNL     1       5.245   6.839  17.555  0.00  0.00    +0.000 NA
ATOM      3  C   UNL     1       6.575   6.730  17.790  0.00  0.00    +0.000 A 
ATOM      4  C   UNL     1       7.445   7.882  17.386  0.00  0.00    +0.000 C 
ATOM      5  C   UNL     1       7.137   5.608  18.375  0.00  0.00    +0.000 A 
ATOM      6  C   UNL     1       6.317   4.520  18.653  0.00  0.00    +0.000 A 
ATOM      7  C   UNL     1       4.949   4.579  18.356  0.00  0.00    +0.000 A 
ENDROOT
BRANCH   7   8
ATOM      8  C   UNL     1       4.147   3.341  18.611  0.00  0.00    +0.000 C 
ATOM      9  N   UNL     1       4.022   2.507  17.609  0.00  0.00    +0.000 NA
ATOM     10  N   UNL     1       3.580   3.071  19.831  0.00  0.00    +0.000 N 
ATOM     11  H   UNL     1       3.149   2.153  19.848  0.00  0.00    +0.000 HD
BRANCH   9  12
ATOM     12  O   UNL     1       3.252   1.387  17.965  0.00  0.00    +0.000 OA
ATOM     13  H   UNL     1       2.392   1.600  17.556  0.00  0.00    +0.000 HD
ENDBRANCH   9  12
BRANCH  10  14
ATOM     14  C   UNL     1       3.124   4.020  20.824  0.00  0.00    +0.000 C 
BRANCH  14  15
ATOM     15  C   UNL     1       1.645   3.806  21.157  0.00  0.00    +0.000 C 
ATOM     16  C   UNL     1       0.785   3.828  19.894  0.00  0.00    +0.000 C 
ATOM     17  C   UNL     1       1.494   2.469  21.882  0.00  0.00    +0.000 C 
ENDBRANCH  14  15
ENDBRANCH  10  14
ENDBRANCH   7   8
BRANCH   1  18
ATOM     18  O   UNL     1       3.111   6.064  17.619  0.00  0.00    +0.000 OA
BRANCH  18  24
ATOM     19  C   UNL     1       1.248   8.220  21.576  0.00  0.00    +0.000 C 
ATOM     20  C   UNL     1       1.652   8.281  20.133  0.00  0.00    +0.000 A 
ATOM     21  C   UNL     1       1.535   9.472  19.412  0.00  0.00    +0.000 A 
ATOM     22  C   UNL     1       1.849   9.510  18.053  0.00  0.00    +0.000 A 
ATOM     23  C   UNL     1       2.297   8.364  17.402  0.00  0.00    +0.000 A 
ATOM     24  C   UNL     1       2.513   7.196  18.129  0.00  0.00    +0.000 A 
ATOM     25  C   UNL     1       2.147   7.142  19.482  0.00  0.00    +0.000 A 
ENDBRANCH  18  24
ENDBRANCH   1  18
TORSDOF 6
ENDMDL
MODEL 8
REMARK VINA RESULT:      -7.4      1.247      1.856
REMARK  Name = 
REMARK  10 active torsions:
REMARK  status: ('A' for Active; 'I' for Inactive)
REMARK    1  A    between atoms: C_1  and  C_2
REMARK    2  A    between atoms: C_6  and  O_7
REMARK    3  A    between atoms: O_7  and  C_8
REMARK    4  A    between atoms: C_10  and  C_11
REMARK    5  A    between atoms: C_14  and  C_15
REMARK    6  A    between atoms: N_16  and  O_17
REMARK    7  A    between atoms: N_18  and  C_19
REMARK    8  A    between atoms: C_19  and  C_20
REMARK    9  A    between atoms: C_20  and  C_21
REMARK   10  A    between atoms: C_20  and  C_22
REMARK                            x       y       z     vdW  Elec       q    Type
REMARK                         _______ _______ _______ _____ _____    ______ ____
ROOT
ATOM      1  C   UNL     1       3.383   4.772  19.108  0.00  0.00    +0.000 A 
ATOM      2  N   UNL     1       2.276   4.369  19.792  0.00  0.00    +0.000 NA
ATOM      3  C   UNL     1       2.325   3.197  20.471  0.00  0.00    +0.000 A 
ATOM      4  C   UNL     1       1.103   2.794  21.241  0.00  0.00    +0.000 C 
ATOM      5  C   UNL     1       3.446   2.385  20.474  0.00  0.00    +0.000 A 
ATOM      6  C   UNL     1       4.594   2.831  19.827  0.00  0.00    +0.000 A 
ATOM      7  C   UNL     1       4.593   4.072  19.175  0.00  0.00    +0.000 A 
ENDROOT
BRANCH   7   8
ATOM      8  C   UNL     1       5.887   4.518  18.570  0.00  0.00    +0.000 C 
ATOM      9  N   UNL     1       6.664   5.256  19.323  0.00  0.00    +0.000 NA
ATOM     10  N   UNL     1       6.264   4.166  17.297  0.00  0.00    +0.000 N 
ATOM     11  H   UNL     1       7.204   4.482  17.085  0.00  0.00    +0.000 HD
BRANCH   9  12
ATOM     12  O   UNL     1       7.845   5.613  18.651  0.00  0.00    +0.000 OA
ATOM     13  H   UNL     1       7.557   5.590  17.719  0.00  0.00    +0.000 HD
ENDBRANCH   9  12
BRANCH  10  14
ATOM     14  C   UNL     1       5.404   3.878  16.169  0.00  0.00    +0.000 C 
BRANCH  14  15
ATOM     15  C   UNL     1       5.567   4.929  15.068  0.00  0.00    +0.000 C 
ATOM     16  C   UNL     1       5.210   6.325  15.577  0.00  0.00    +0.000 C 
ATOM     17  C   UNL     1       7.012   4.897  14.569  0.00  0.00    +0.000 C 
ENDBRANCH  14  15
ENDBRANCH  10  14
ENDBRANCH   7   8
BRANCH   1  18
ATOM     18  O   UNL     1       3.173   5.962  18.444  0.00  0.00    +0.000 OA
BRANCH  18  24
ATOM     19  C   UNL     1       1.278  10.428  17.954  0.00  0.00    +0.000 C 
ATOM     20  C   UNL     1       1.536   9.213  18.793  0.00  0.00    +0.000 A 
ATOM     21  C   UNL     1       1.037   9.128  20.096  0.00  0.00    +0.000 A 
ATOM     22  C   UNL     1       1.335   8.027  20.898  0.00  0.00    +0.000 A 
ATOM     23  C   UNL     1       2.120   6.988  20.404  0.00  0.00    +0.000 A 
ATOM     24  C   UNL     1       2.540   7.011  19.076  0.00  0.00    +0.000 A 
ATOM     25  C   UNL     1       2.289   8.143  18.287  0.00  0.00    +0.000 A 
ENDBRANCH  18  24
ENDBRANCH   1  18
TORSDOF 6
ENDMDL
MODEL 9
REMARK VINA RESULT:      -7.4      1.843      4.970
REMARK  Name = 
REMARK  10 active torsions:
REMARK  status: ('A' for Active; 'I' for Inactive)
REMARK    1  A    between atoms: C_1  and  C_2
REMARK    2  A    between atoms: C_6  and  O_7
REMARK    3  A    between atoms: O_7  and  C_8
REMARK    4  A    between atoms: C_10  and  C_11
REMARK    5  A    between atoms: C_14  and  C_15
REMARK    6  A    between atoms: N_16  and  O_17
REMARK    7  A    between atoms: N_18  and  C_19
REMARK    8  A    between atoms: C_19  and  C_20
REMARK    9  A    between atoms: C_20  and  C_21
REMARK   10  A    between atoms: C_20  and  C_22
REMARK                            x       y       z     vdW  Elec       q    Type
REMARK                         _______ _______ _______ _____ _____    ______ ____
ROOT
ATOM      1  C   UNL     1       5.508   3.679  16.847  0.00  0.00    +0.000 A 
ATOM      2  N   UNL     1       5.388   3.308  15.542  0.00  0.00    +0.000 NA
ATOM      3  C   UNL     1       5.913   4.115  14.588  0.00  0.00    +0.000 A 
ATOM      4  C   UNL     1       5.794   3.667  13.163  0.00  0.00    +0.000 C 
ATOM      5  C   UNL     1       6.543   5.311  14.889  0.00  0.00    +0.000 A 
ATOM      6  C   UNL     1       6.719   5.653  16.226  0.00  0.00    +0.000 A 
ATOM      7  C   UNL     1       6.247   4.803  17.235  0.00  0.00    +0.000 A 
ENDROOT
BRANCH   7   8
ATOM      8  C   UNL     1       6.543   5.201  18.647  0.00  0.00    +0.000 C 
ATOM      9  N   UNL     1       7.748   4.941  19.088  0.00  0.00    +0.000 NA
ATOM     10  N   UNL     1       5.615   5.821  19.446  0.00  0.00    +0.000 N 
ATOM     11  H   UNL     1       6.013   6.095  20.338  0.00  0.00    +0.000 HD
BRANCH   9  12
ATOM     12  O   UNL     1       7.909   5.357  20.421  0.00  0.00    +0.000 OA
ATOM     13  H   UNL     1       8.157   4.523  20.861  0.00  0.00    +0.000 HD
ENDBRANCH   9  12
BRANCH  10  14
ATOM     14  C   UNL     1       4.174   5.697  19.389  0.00  0.00    +0.000 C 
BRANCH  14  15
ATOM     15  C   UNL     1       3.520   7.023  18.994  0.00  0.00    +0.000 C 
ATOM     16  C   UNL     1       3.340   7.124  17.480  0.00  0.00    +0.000 C 
ATOM     17  C   UNL     1       2.169   7.134  19.700  0.00  0.00    +0.000 C 
ENDBRANCH  14  15
ENDBRANCH  10  14
ENDBRANCH   7   8
BRANCH   1  18
ATOM     18  O   UNL     1       4.900   2.779  17.696  0.00  0.00    +0.000 OA
BRANCH  18  24
ATOM     19  C   UNL     1       1.691   2.499  21.357  0.00  0.00    +0.000 C 
ATOM     20  C   UNL     1       2.019   2.882  19.945  0.00  0.00    +0.000 A 
ATOM     21  C   UNL     1       1.064   3.506  19.136  0.00  0.00    +0.000 A 
ATOM     22  C   UNL     1       1.350   3.800  17.803  0.00  0.00    +0.000 A 
ATOM     23  C   UNL     1       2.596   3.491  17.265  0.00  0.00    +0.000 A 
ATOM     24  C   UNL     1       3.590   2.962  18.084  0.00  0.00    +0.000 A 
ATOM     25  C   UNL     1       3.287   2.614  19.409  0.00  0.00    +0.000 A 
ENDBRANCH  18  24
ENDBRANCH   1  18
TORSDOF 6
ENDMDL
