MODEL 1
REMARK VINA RESULT:      -6.7      0.000      0.000
REMARK  Name = 
REMARK  5 active torsions:
REMARK  status: ('A' for Active; 'I' for Inactive)
REMARK    1  A    between atoms: C_2  and  C_3
REMARK    2  A    between atoms: C_4  and  C_5
REMARK    3  A    between atoms: C_8  and  C_9
REMARK    4  A    between atoms: N_10  and  O_11
REMARK    5  A    between atoms: N_14  and  O_15
REMARK                            x       y       z     vdW  Elec       q    Type
REMARK                         _______ _______ _______ _____ _____    ______ ____
ROOT
ATOM      1  C   UNL     1       4.533   4.676  17.178  0.00  0.00    +0.000 A 
ATOM      2  C   UNL     1       4.706   5.363  18.385  0.00  0.00    +0.000 A 
ATOM      3  C   UNL     1       3.928   5.039  19.500  0.00  0.00    +0.000 A 
ATOM      4  C   UNL     1       2.972   4.025  19.411  0.00  0.00    +0.000 A 
ATOM      5  C   UNL     1       2.796   3.330  18.210  0.00  0.00    +0.000 A 
ATOM      6  C   UNL     1       3.578   3.656  17.096  0.00  0.00    +0.000 A 
ENDROOT
BRANCH   1   8
ATOM      7  C   UNL     1       5.795   4.086  15.169  0.00  0.00    +0.000 C 
ATOM      8  C   UNL     1       5.361   5.026  16.023  0.00  0.00    +0.000 C 
BRANCH   7  10
ATOM      9  O   UNL     1       6.589   3.964  12.916  0.00  0.00    +0.000 OA
ATOM     10  C   UNL     1       6.678   4.453  14.036  0.00  0.00    +0.000 C 
ATOM     11  N   UNL     1       7.600   5.411  14.362  0.00  0.00    +0.000 N 
ATOM     12  H   UNL     1       7.687   5.870  15.261  0.00  0.00    +0.000 HD
BRANCH  11  13
ATOM     13  O   UNL     1       8.453   5.861  13.330  0.00  0.00    +0.000 OA
ATOM     14  H   UNL     1       9.093   5.122  13.248  0.00  0.00    +0.000 HD
ENDBRANCH  11  13
ENDBRANCH   7  10
ENDBRANCH   1   8
BRANCH   4  15
ATOM     15  C   UNL     1       2.133   3.675  20.574  0.00  0.00    +0.000 C 
ATOM     16  N   UNL     1       2.430   2.692  21.365  0.00  0.00    +0.000 NA
BRANCH  16  17
ATOM     17  O   UNL     1       1.460   2.607  22.371  0.00  0.00    +0.000 OA
ATOM     18  H   UNL     1       0.633   2.757  21.875  0.00  0.00    +0.000 HD
ENDBRANCH  16  17
ENDBRANCH   4  15
TORSDOF 5
ENDMDL
MODEL 2
REMARK VINA RESULT:      -6.6      0.332      1.229
REMARK  Name = 
REMARK  5 active torsions:
REMARK  status: ('A' for Active; 'I' for Inactive)
REMARK    1  A    between atoms: C_2  and  C_3
REMARK    2  A    between atoms: C_4  and  C_5
REMARK    3  A    between atoms: C_8  and  C_9
REMARK    4  A    between atoms: N_10  and  O_11
REMARK    5  A    between atoms: N_14  and  O_15
REMARK                            x       y       z     vdW  Elec       q    Type
REMARK                         _______ _______ _______ _____ _____    ______ ____
ROOT
ATOM      1  C   UNL     1       4.352   4.625  17.062  0.00  0.00    +0.000 A 
ATOM      2  C   UNL     1       3.835   3.329  17.178  0.00  0.00    +0.000 A 
ATOM      3  C   UNL     1       3.067   2.972  18.290  0.00  0.00    +0.000 A 
ATOM      4  C   UNL     1       2.813   3.912  19.292  0.00  0.00    +0.000 A 
ATOM      5  C   UNL     1       3.322   5.209  19.182  0.00  0.00    +0.000 A 
ATOM      6  C   UNL     1       4.089   5.565  18.067  0.00  0.00    +0.000 A 
ENDROOT
BRANCH   1   8
ATOM      7  C   UNL     1       5.885   4.065  15.243  0.00  0.00    +0.000 C 
ATOM      8  C   UNL     1       5.149   4.982  15.889  0.00  0.00    +0.000 C 
BRANCH   7  10
ATOM      9  O   UNL     1       6.588   4.010  12.957  0.00  0.00    +0.000 OA
ATOM     10  C   UNL     1       6.729   4.458  14.088  0.00  0.00    +0.000 C 
ATOM     11  N   UNL     1       7.679   5.391  14.410  0.00  0.00    +0.000 N 
ATOM     12  H   UNL     1       7.808   5.817  15.320  0.00  0.00    +0.000 HD
BRANCH  11  13
ATOM     13  O   UNL     1       8.497   5.863  13.361  0.00  0.00    +0.000 OA
ATOM     14  H   UNL     1       7.921   6.528  12.926  0.00  0.00    +0.000 HD
ENDBRANCH  11  13
ENDBRANCH   7  10
ENDBRANCH   1   8
BRANCH   4  15
ATOM     15  C   UNL     1       2.013   3.550  20.479  0.00  0.00    +0.000 C 
ATOM     16  N   UNL     1       2.437   2.698  21.359  0.00  0.00    +0.000 NA
BRANCH  16  17
ATOM     17  O   UNL     1       1.472   2.564  22.364  0.00  0.00    +0.000 OA
ATOM     18  H   UNL     1       0.638   2.615  21.860  0.00  0.00    +0.000 HD
ENDBRANCH  16  17
ENDBRANCH   4  15
TORSDOF 5
ENDMDL
MODEL 3
REMARK VINA RESULT:      -6.6      1.017      1.207
REMARK  Name = 
REMARK  5 active torsions:
REMARK  status: ('A' for Active; 'I' for Inactive)
REMARK    1  A    between atoms: C_2  and  C_3
REMARK    2  A    between atoms: C_4  and  C_5
REMARK    3  A    between atoms: C_8  and  C_9
REMARK    4  A    between atoms: N_10  and  O_11
REMARK    5  A    between atoms: N_14  and  O_15
REMARK                            x       y       z     vdW  Elec       q    Type
REMARK                         _______ _______ _______ _____ _____    ______ ____
ROOT
ATOM      1  C   UNL     1       4.003   4.163  17.383  0.00  0.00    +0.000 A 
ATOM      2  C   UNL     1       2.685   4.624  17.495  0.00  0.00    +0.000 A 
ATOM      3  C   UNL     1       1.878   4.204  18.556  0.00  0.00    +0.000 A 
ATOM      4  C   UNL     1       2.387   3.321  19.511  0.00  0.00    +0.000 A 
ATOM      5  C   UNL     1       3.703   2.860  19.410  0.00  0.00    +0.000 A 
ATOM      6  C   UNL     1       4.509   3.283  18.348  0.00  0.00    +0.000 A 
ENDROOT
BRANCH   1   8
ATOM      7  C   UNL     1       5.657   3.774  15.626  0.00  0.00    +0.000 C 
ATOM      8  C   UNL     1       4.835   4.618  16.269  0.00  0.00    +0.000 C 
BRANCH   7  10
ATOM      9  O   UNL     1       6.424   3.919  13.366  0.00  0.00    +0.000 OA
ATOM     10  C   UNL     1       6.532   4.266  14.535  0.00  0.00    +0.000 C 
ATOM     11  N   UNL     1       7.471   5.166  14.964  0.00  0.00    +0.000 N 
ATOM     12  H   UNL     1       7.574   5.510  15.911  0.00  0.00    +0.000 HD
BRANCH  11  13
ATOM     13  O   UNL     1       8.318   5.727  13.985  0.00  0.00    +0.000 OA
ATOM     14  H   UNL     1       8.641   6.542  14.425  0.00  0.00    +0.000 HD
ENDBRANCH  11  13
ENDBRANCH   7  10
ENDBRANCH   1   8
BRANCH   4  15
ATOM     15  C   UNL     1       1.546   2.858  20.633  0.00  0.00    +0.000 C 
ATOM     16  N   UNL     1       1.993   2.800  21.849  0.00  0.00    +0.000 NA
BRANCH  16  17
ATOM     17  O   UNL     1       0.974   2.332  22.687  0.00  0.00    +0.000 OA
ATOM     18  H   UNL     1       0.530   3.158  22.956  0.00  0.00    +0.000 HD
ENDBRANCH  16  17
ENDBRANCH   4  15
TORSDOF 5
ENDMDL
MODEL 4
REMARK VINA RESULT:      -6.5      2.313      2.902
REMARK  Name = 
REMARK  5 active torsions:
REMARK  status: ('A' for Active; 'I' for Inactive)
REMARK    1  A    between atoms: C_2  and  C_3
REMARK    2  A    between atoms: C_4  and  C_5
REMARK    3  A    between atoms: C_8  and  C_9
REMARK    4  A    between atoms: N_10  and  O_11
REMARK    5  A    between atoms: N_14  and  O_15
REMARK                            x       y       z     vdW  Elec       q    Type
REMARK                         _______ _______ _______ _____ _____    ______ ____
ROOT
ATOM      1  C   UNL     1       5.350   4.876  15.718  0.00  0.00    +0.000 A 
ATOM      2  C   UNL     1       5.294   6.255  15.954  0.00  0.00    +0.000 A 
ATOM      3  C   UNL     1       4.549   6.759  17.024  0.00  0.00    +0.000 A 
ATOM      4  C   UNL     1       3.856   5.884  17.863  0.00  0.00    +0.000 A 
ATOM      5  C   UNL     1       3.910   4.505  17.639  0.00  0.00    +0.000 A 
ATOM      6  C   UNL     1       4.658   4.003  16.567  0.00  0.00    +0.000 A 
ENDROOT
BRANCH   1   8
ATOM      7  C   UNL     1       5.554   3.992  13.449  0.00  0.00    +0.000 C 
ATOM      8  C   UNL     1       6.139   4.366  14.597  0.00  0.00    +0.000 C 
BRANCH   7  10
ATOM      9  O   UNL     1       7.240   4.048  11.753  0.00  0.00    +0.000 OA
ATOM     10  C   UNL     1       6.366   3.427  12.344  0.00  0.00    +0.000 C 
ATOM     11  N   UNL     1       6.050   2.125  12.056  0.00  0.00    +0.000 N 
ATOM     12  H   UNL     1       5.363   1.560  12.541  0.00  0.00    +0.000 HD
BRANCH  11  13
ATOM     13  O   UNL     1       6.807   1.487  11.050  0.00  0.00    +0.000 OA
ATOM     14  H   UNL     1       6.112   1.095  10.479  0.00  0.00    +0.000 HD
ENDBRANCH  11  13
ENDBRANCH   7  10
ENDBRANCH   1   8
BRANCH   4  15
ATOM     15  C   UNL     1       3.055   6.398  18.992  0.00  0.00    +0.000 C 
ATOM     16  N   UNL     1       2.491   5.607  19.851  0.00  0.00    +0.000 NA
BRANCH  16  17
ATOM     17  O   UNL     1       1.811   6.378  20.801  0.00  0.00    +0.000 OA
ATOM     18  H   UNL     1       2.494   7.015  21.080  0.00  0.00    +0.000 HD
ENDBRANCH  16  17
ENDBRANCH   4  15
TORSDOF 5
ENDMDL
MODEL 5
REMARK VINA RESULT:      -6.5      1.230      1.710
REMARK  Name = 
REMARK  5 active torsions:
REMARK  status: ('A' for Active; 'I' for Inactive)
REMARK    1  A    between atoms: C_2  and  C_3
REMARK    2  A    between atoms: C_4  and  C_5
REMARK    3  A    between atoms: C_8  and  C_9
REMARK    4  A    between atoms: N_10  and  O_11
REMARK    5  A    between atoms: N_14  and  O_15
REMARK                            x       y       z     vdW  Elec       q    Type
REMARK                         _______ _______ _______ _____ _____    ______ ____
ROOT
ATOM      1  C   UNL     1       3.854   4.048  17.165  0.00  0.00    +0.000 A 
ATOM      2  C   UNL     1       3.922   2.724  17.615  0.00  0.00    +0.000 A 
ATOM      3  C   UNL     1       3.167   2.312  18.716  0.00  0.00    +0.000 A 
ATOM      4  C   UNL     1       2.337   3.225  19.373  0.00  0.00    +0.000 A 
ATOM      5  C   UNL     1       2.259   4.548  18.927  0.00  0.00    +0.000 A 
ATOM      6  C   UNL     1       3.016   4.957  17.823  0.00  0.00    +0.000 A 
ENDROOT
BRANCH   1   8
ATOM      7  C   UNL     1       5.817   3.867  15.721  0.00  0.00    +0.000 C 
ATOM      8  C   UNL     1       4.648   4.460  16.008  0.00  0.00    +0.000 C 
BRANCH   7  10
ATOM      9  O   UNL     1       7.499   5.197  14.662  0.00  0.00    +0.000 OA
ATOM     10  C   UNL     1       6.634   4.335  14.575  0.00  0.00    +0.000 C 
ATOM     11  N   UNL     1       6.334   3.692  13.403  0.00  0.00    +0.000 N 
ATOM     12  H   UNL     1       5.655   2.949  13.291  0.00  0.00    +0.000 HD
BRANCH  11  13
ATOM     13  O   UNL     1       7.097   4.038  12.267  0.00  0.00    +0.000 OA
ATOM     14  H   UNL     1       6.659   4.860  11.960  0.00  0.00    +0.000 HD
ENDBRANCH  11  13
ENDBRANCH   7  10
ENDBRANCH   1   8
BRANCH   4  15
ATOM     15  C   UNL     1       1.539   2.811  20.544  0.00  0.00    +0.000 C 
ATOM     16  N   UNL     1       2.045   2.760  21.736  0.00  0.00    +0.000 NA
BRANCH  16  17
ATOM     17  O   UNL     1       1.055   2.342  22.633  0.00  0.00    +0.000 OA
ATOM     18  H   UNL     1       0.235   2.520  22.135  0.00  0.00    +0.000 HD
ENDBRANCH  16  17
ENDBRANCH   4  15
TORSDOF 5
ENDMDL
MODEL 6
REMARK VINA RESULT:      -6.4      1.000      1.222
REMARK  Name = 
REMARK  5 active torsions:
REMARK  status: ('A' for Active; 'I' for Inactive)
REMARK    1  A    between atoms: C_2  and  C_3
REMARK    2  A    between atoms: C_4  and  C_5
REMARK    3  A    between atoms: C_8  and  C_9
REMARK    4  A    between atoms: N_10  and  O_11
REMARK    5  A    between atoms: N_14  and  O_15
REMARK                            x       y       z     vdW  Elec       q    Type
REMARK                         _______ _______ _______ _____ _____    ______ ____
ROOT
ATOM      1  C   UNL     1       4.046   4.259  17.306  0.00  0.00    +0.000 A 
ATOM      2  C   UNL     1       4.376   4.639  18.612  0.00  0.00    +0.000 A 
ATOM      3  C   UNL     1       3.593   4.217  19.690  0.00  0.00    +0.000 A 
ATOM      4  C   UNL     1       2.475   3.411  19.465  0.00  0.00    +0.000 A 
ATOM      5  C   UNL     1       2.141   3.022  18.164  0.00  0.00    +0.000 A 
ATOM      6  C   UNL     1       2.927   3.445  17.087  0.00  0.00    +0.000 A 
ENDROOT
BRANCH   1   8
ATOM      7  C   UNL     1       5.732   3.867  15.581  0.00  0.00    +0.000 C 
ATOM      8  C   UNL     1       4.880   4.706  16.191  0.00  0.00    +0.000 C 
BRANCH   7  10
ATOM      9  O   UNL     1       7.459   5.223  14.632  0.00  0.00    +0.000 OA
ATOM     10  C   UNL     1       6.609   4.353  14.488  0.00  0.00    +0.000 C 
ATOM     11  N   UNL     1       6.384   3.718  13.295  0.00  0.00    +0.000 N 
ATOM     12  H   UNL     1       5.720   2.970  13.138  0.00  0.00    +0.000 HD
BRANCH  11  13
ATOM     13  O   UNL     1       7.208   4.081  12.208  0.00  0.00    +0.000 OA
ATOM     14  H   UNL     1       8.067   3.672  12.447  0.00  0.00    +0.000 HD
ENDBRANCH  11  13
ENDBRANCH   7  10
ENDBRANCH   1   8
BRANCH   4  15
ATOM     15  C   UNL     1       1.629   2.964  20.590  0.00  0.00    +0.000 C 
ATOM     16  N   UNL     1       2.117   2.740  21.770  0.00  0.00    +0.000 NA
BRANCH  16  17
ATOM     17  O   UNL     1       1.083   2.336  22.621  0.00  0.00    +0.000 OA
ATOM     18  H   UNL     1       1.340   1.421  22.843  0.00  0.00    +0.000 HD
ENDBRANCH  16  17
ENDBRANCH   4  15
TORSDOF 5
ENDMDL
MODEL 7
REMARK VINA RESULT:      -6.4      2.534      3.195
REMARK  Name = 
REMARK  5 active torsions:
REMARK  status: ('A' for Active; 'I' for Inactive)
REMARK    1  A    between atoms: C_2  and  C_3
REMARK    2  A    between atoms: C_4  and  C_5
REMARK    3  A    between atoms: C_8  and  C_9
REMARK    4  A    between atoms: N_10  and  O_11
REMARK    5  A    between atoms: N_14  and  O_15
REMARK                            x       y       z     vdW  Elec       q    Type
REMARK                         _______ _______ _______ _____ _____    ______ ____
ROOT
ATOM      1  C   UNL     1       5.381   4.603  15.935  0.00  0.00    +0.000 A 
ATOM      2  C   UNL     1       4.643   3.703  16.714  0.00  0.00    +0.000 A 
ATOM      3  C   UNL     1       3.905   4.158  17.810  0.00  0.00    +0.000 A 
ATOM      4  C   UNL     1       3.902   5.517  18.132  0.00  0.00    +0.000 A 
ATOM      5  C   UNL     1       4.632   6.423  17.357  0.00  0.00    +0.000 A 
ATOM      6  C   UNL     1       5.370   5.965  16.259  0.00  0.00    +0.000 A 
ENDROOT
BRANCH   1   8
ATOM      7  C   UNL     1       5.586   4.017  13.571  0.00  0.00    +0.000 C 
ATOM      8  C   UNL     1       6.144   4.109  14.788  0.00  0.00    +0.000 C 
BRANCH   7  10
ATOM      9  O   UNL     1       7.228   4.082  11.834  0.00  0.00    +0.000 OA
ATOM     10  C   UNL     1       6.358   3.463  12.433  0.00  0.00    +0.000 C 
ATOM     11  N   UNL     1       6.012   2.174  12.125  0.00  0.00    +0.000 N 
ATOM     12  H   UNL     1       5.327   1.610  12.615  0.00  0.00    +0.000 HD
BRANCH  11  13
ATOM     13  O   UNL     1       6.731   1.546  11.086  0.00  0.00    +0.000 OA
ATOM     14  H   UNL     1       6.384   1.996  10.286  0.00  0.00    +0.000 HD
ENDBRANCH  11  13
ENDBRANCH   7  10
ENDBRANCH   1   8
BRANCH   4  15
ATOM     15  C   UNL     1       3.137   6.015  19.292  0.00  0.00    +0.000 C 
ATOM     16  N   UNL     1       2.516   7.153  19.269  0.00  0.00    +0.000 NA
BRANCH  16  17
ATOM     17  O   UNL     1       1.881   7.351  20.500  0.00  0.00    +0.000 OA
ATOM     18  H   UNL     1       2.181   8.245  20.747  0.00  0.00    +0.000 HD
ENDBRANCH  16  17
ENDBRANCH   4  15
TORSDOF 5
ENDMDL
MODEL 8
REMARK VINA RESULT:      -6.3      0.802      1.663
REMARK  Name = 
REMARK  5 active torsions:
REMARK  status: ('A' for Active; 'I' for Inactive)
REMARK    1  A    between atoms: C_2  and  C_3
REMARK    2  A    between atoms: C_4  and  C_5
REMARK    3  A    between atoms: C_8  and  C_9
REMARK    4  A    between atoms: N_10  and  O_11
REMARK    5  A    between atoms: N_14  and  O_15
REMARK                            x       y       z     vdW  Elec       q    Type
REMARK                         _______ _______ _______ _____ _____    ______ ____
ROOT
ATOM      1  C   UNL     1       4.524   4.742  17.255  0.00  0.00    +0.000 A 
ATOM      2  C   UNL     1       3.570   3.720  17.185  0.00  0.00    +0.000 A 
ATOM      3  C   UNL     1       2.798   3.397  18.303  0.00  0.00    +0.000 A 
ATOM      4  C   UNL     1       2.976   4.097  19.499  0.00  0.00    +0.000 A 
ATOM      5  C   UNL     1       3.923   5.123  19.577  0.00  0.00    +0.000 A 
ATOM      6  C   UNL     1       4.694   5.445  18.454  0.00  0.00    +0.000 A 
ENDROOT
BRANCH   1   8
ATOM      7  C   UNL     1       5.817   4.107  15.280  0.00  0.00    +0.000 C 
ATOM      8  C   UNL     1       5.320   5.070  16.072  0.00  0.00    +0.000 C 
BRANCH   7  10
ATOM      9  O   UNL     1       7.512   5.344  14.132  0.00  0.00    +0.000 OA
ATOM     10  C   UNL     1       6.667   4.458  14.116  0.00  0.00    +0.000 C 
ATOM     11  N   UNL     1       6.424   3.677  13.018  0.00  0.00    +0.000 N 
ATOM     12  H   UNL     1       5.764   2.910  12.970  0.00  0.00    +0.000 HD
BRANCH  11  13
ATOM     13  O   UNL     1       7.222   3.905  11.877  0.00  0.00    +0.000 OA
ATOM     14  H   UNL     1       7.821   4.623  12.177  0.00  0.00    +0.000 HD
ENDBRANCH  11  13
ENDBRANCH   7  10
ENDBRANCH   1   8
BRANCH   4  15
ATOM     15  C   UNL     1       2.176   3.763  20.694  0.00  0.00    +0.000 C 
ATOM     16  N   UNL     1       2.248   2.602  21.267  0.00  0.00    +0.000 NA
BRANCH  16  17
ATOM     17  O   UNL     1       1.386   2.584  22.369  0.00  0.00    +0.000 OA
ATOM     18  H   UNL     1       1.916   2.116  23.040  0.00  0.00    +0.000 HD
ENDBRANCH  16  17
ENDBRANCH   4  15
TORSDOF 5
ENDMDL
MODEL 9
REMARK VINA RESULT:      -6.3      1.022      7.186
REMARK  Name = 
REMARK  5 active torsions:
REMARK  status: ('A' for Active; 'I' for Inactive)
REMARK    1  A    between atoms: C_2  and  C_3
REMARK    2  A    between atoms: C_4  and  C_5
REMARK    3  A    between atoms: C_8  and  C_9
REMARK    4  A    between atoms: N_10  and  O_11
REMARK    5  A    between atoms: N_14  and  O_15
REMARK                            x       y       z     vdW  Elec       q    Type
REMARK                         _______ _______ _______ _____ _____    ______ ____
ROOT
ATOM      1  C   UNL     1       4.132   4.835  17.596  0.00  0.00    +0.000 A 
ATOM      2  C   UNL     1       4.377   6.093  17.033  0.00  0.00    +0.000 A 
ATOM      3  C   UNL     1       5.215   6.218  15.922  0.00  0.00    +0.000 A 
ATOM      4  C   UNL     1       5.812   5.082  15.368  0.00  0.00    +0.000 A 
ATOM      5  C   UNL     1       5.569   3.822  15.921  0.00  0.00    +0.000 A 
ATOM      6  C   UNL     1       4.728   3.699  17.034  0.00  0.00    +0.000 A 
ENDROOT
BRANCH   1   8
ATOM      7  C   UNL     1       2.724   3.542  19.119  0.00  0.00    +0.000 C 
ATOM      8  C   UNL     1       3.247   4.723  18.756  0.00  0.00    +0.000 C 
BRANCH   7  10
ATOM      9  O   UNL     1       0.705   4.033  20.305  0.00  0.00    +0.000 OA
ATOM     10  C   UNL     1       1.786   3.458  20.265  0.00  0.00    +0.000 C 
ATOM     11  N   UNL     1       2.242   2.654  21.275  0.00  0.00    +0.000 N 
ATOM     12  H   UNL     1       3.109   2.130  21.271  0.00  0.00    +0.000 HD
BRANCH  11  13
ATOM     13  O   UNL     1       1.392   2.474  22.388  0.00  0.00    +0.000 OA
ATOM     14  H   UNL     1       0.784   1.769  22.078  0.00  0.00    +0.000 HD
ENDBRANCH  11  13
ENDBRANCH   7  10
ENDBRANCH   1   8
BRANCH   4  15
ATOM     15  C   UNL     1       6.709   5.196  14.201  0.00  0.00    +0.000 C 
ATOM     16  N   UNL     1       7.945   5.570  14.317  0.00  0.00    +0.000 NA
BRANCH  16  17
ATOM     17  O   UNL     1       8.540   5.577  13.050  0.00  0.00    +0.000 OA
ATOM     18  H   UNL     1       9.491   5.572  13.267  0.00  0.00    +0.000 HD
ENDBRANCH  16  17
ENDBRANCH   4  15
TORSDOF 5
ENDMDL
