MODEL 1
REMARK VINA RESULT:      -8.1      0.000      0.000
REMARK  Name = 
REMARK  8 active torsions:
REMARK  status: ('A' for Active; 'I' for Inactive)
REMARK    1  A    between atoms: C_1  and  N_2
REMARK    2  A    between atoms: N_8  and  C_9
REMARK    3  A    between atoms: C_12  and  C_13
REMARK    4  A    between atoms: C_16  and  C_17
REMARK    5  A    between atoms: C_17  and  C_18
REMARK    6  A    between atoms: C_18  and  C_19
REMARK    7  A    between atoms: C_26  and  C_27
REMARK    8  A    between atoms: C_26  and  C_28
REMARK                            x       y       z     vdW  Elec       q    Type
REMARK                         _______ _______ _______ _____ _____    ______ ____
ROOT
ATOM      1  C   UNL     1       7.898   7.968  17.402  0.00  0.00    +0.000 C 
ATOM      2  N   UNL     1       7.041   6.996  18.074  0.00  0.00    +0.000 NA
ATOM      3  C   UNL     1       7.295   5.644  17.528  0.00  0.00    +0.000 C 
ATOM      4  C   UNL     1       6.600   4.570  18.373  0.00  0.00    +0.000 C 
ATOM      5  C   UNL     1       5.192   4.966  18.661  0.00  0.00    +0.000 A 
ATOM      6  C   UNL     1       4.152   4.181  19.174  0.00  0.00    +0.000 A 
ATOM      7  C   UNL     1       3.038   4.990  19.289  0.00  0.00    +0.000 A 
ATOM      8  N   UNL     1       3.374   6.302  18.877  0.00  0.00    +0.000 N 
ATOM      9  C   UNL     1       4.718   6.252  18.474  0.00  0.00    +0.000 A 
ATOM     10  C   UNL     1       5.602   7.365  17.970  0.00  0.00    +0.000 C 
ATOM     11  C   UNL     1       1.680   4.482  19.660  0.00  0.00    +0.000 C 
ATOM     12  C   UNL     1       1.615   2.968  20.065  0.00  0.00    +0.000 C 
ATOM     13  C   UNL     1       1.179   2.883  21.549  0.00  0.00    +0.000 C 
ATOM     14  C   UNL     1       0.510   2.293  19.222  0.00  0.00    +0.000 C 
ATOM     15  C   UNL     1       2.900   2.106  19.916  0.00  0.00    +0.000 C 
ATOM     16  C   UNL     1       4.183   2.774  19.500  0.00  0.00    +0.000 C 
ATOM     17  O   UNL     1       5.216   2.106  19.423  0.00  0.00    +0.000 OA
ENDROOT
BRANCH   8  18
ATOM     18  C   UNL     1       2.506   7.462  18.852  0.00  0.00    +0.000 A 
ATOM     19  C   UNL     1       2.453   8.308  17.742  0.00  0.00    +0.000 A 
ATOM     20  C   UNL     1       1.605   9.433  17.727  0.00  0.00    +0.000 A 
ATOM     21  C   UNL     1       0.786   9.751  18.824  0.00  0.00    +0.000 A 
ATOM     22  C   UNL     1       0.831   8.922  19.961  0.00  0.00    +0.000 A 
ATOM     23  C   UNL     1       1.696   7.793  19.952  0.00  0.00    +0.000 A 
BRANCH  21  24
ATOM     24  C   UNL     1      -0.110  10.954  18.750  0.00  0.00    +0.000 C 
ATOM     25  N   UNL     1      -1.416  10.750  18.385  0.00  0.00    +0.000 N 
ATOM     26  O   UNL     1       0.268  12.094  18.985  0.00  0.00    +0.000 OA
ATOM     27  H   UNL     1      -1.749   9.893  17.972  0.00  0.00    +0.000 HD
ATOM     28  H   UNL     1      -1.971  11.587  18.254  0.00  0.00    +0.000 HD
ENDBRANCH  21  24
BRANCH  22  29
ATOM     29  C   UNL     1       0.070   9.224  21.241  0.00  0.00    +0.000 C 
BRANCH  29  30
ATOM     30  C   UNL     1       0.442  10.519  21.974  0.00  0.00    +0.000 C 
BRANCH  30  31
ATOM     31  C   UNL     1      -0.713  11.183  22.669  0.00  0.00    +0.000 C 
ATOM     32  C   UNL     1      -0.790  12.691  22.656  0.00  0.00    +0.000 C 
ATOM     33  C   UNL     1      -1.787  11.883  21.874  0.00  0.00    +0.000 C 
ENDBRANCH  30  31
ENDBRANCH  29  30
ENDBRANCH  22  29
ENDBRANCH   8  18
TORSDOF 5
ENDMDL
MODEL 2
REMARK VINA RESULT:      -7.0      7.465     10.174
REMARK  Name = 
REMARK  8 active torsions:
REMARK  status: ('A' for Active; 'I' for Inactive)
REMARK    1  A    between atoms: C_1  and  N_2
REMARK    2  A    between atoms: N_8  and  C_9
REMARK    3  A    between atoms: C_12  and  C_13
REMARK    4  A    between atoms: C_16  and  C_17
REMARK    5  A    between atoms: C_17  and  C_18
REMARK    6  A    between atoms: C_18  and  C_19
REMARK    7  A    between atoms: C_26  and  C_27
REMARK    8  A    between atoms: C_26  and  C_28
REMARK                            x       y       z     vdW  Elec       q    Type
REMARK                         _______ _______ _______ _____ _____    ______ ____
ROOT
ATOM      1  C   UNL     1      -2.775  10.483  15.550  0.00  0.00    +0.000 C 
ATOM      2  N   UNL     1      -3.413  10.705  16.844  0.00  0.00    +0.000 NA
ATOM      3  C   UNL     1      -4.812  11.144  16.644  0.00  0.00    +0.000 C 
ATOM      4  C   UNL     1      -5.583  11.148  17.969  0.00  0.00    +0.000 C 
ATOM      5  C   UNL     1      -4.778  11.808  19.036  0.00  0.00    +0.000 A 
ATOM      6  C   UNL     1      -5.195  12.239  20.302  0.00  0.00    +0.000 A 
ATOM      7  C   UNL     1      -4.092  12.769  20.943  0.00  0.00    +0.000 A 
ATOM      8  N   UNL     1      -2.962  12.649  20.099  0.00  0.00    +0.000 N 
ATOM      9  C   UNL     1      -3.425  12.063  18.910  0.00  0.00    +0.000 A 
ATOM     10  C   UNL     1      -2.650  11.677  17.675  0.00  0.00    +0.000 C 
ATOM     11  C   UNL     1      -4.160  13.473  22.263  0.00  0.00    +0.000 C 
ATOM     12  C   UNL     1      -5.562  13.449  22.967  0.00  0.00    +0.000 C 
ATOM     13  C   UNL     1      -5.424  12.662  24.293  0.00  0.00    +0.000 C 
ATOM     14  C   UNL     1      -5.939  14.903  23.332  0.00  0.00    +0.000 C 
ATOM     15  C   UNL     1      -6.766  12.840  22.197  0.00  0.00    +0.000 C 
ATOM     16  C   UNL     1      -6.527  12.194  20.859  0.00  0.00    +0.000 C 
ATOM     17  O   UNL     1      -7.469  11.669  20.262  0.00  0.00    +0.000 OA
ENDROOT
BRANCH   8  18
ATOM     18  C   UNL     1      -1.605  13.064  20.387  0.00  0.00    +0.000 A 
ATOM     19  C   UNL     1      -0.646  12.157  20.843  0.00  0.00    +0.000 A 
ATOM     20  C   UNL     1       0.672  12.570  21.120  0.00  0.00    +0.000 A 
ATOM     21  C   UNL     1       1.073  13.906  20.955  0.00  0.00    +0.000 A 
ATOM     22  C   UNL     1       0.122  14.845  20.509  0.00  0.00    +0.000 A 
ATOM     23  C   UNL     1      -1.202  14.403  20.237  0.00  0.00    +0.000 A 
BRANCH  21  24
ATOM     24  C   UNL     1       2.494  14.291  21.251  0.00  0.00    +0.000 C 
ATOM     25  N   UNL     1       3.393  14.238  20.217  0.00  0.00    +0.000 N 
ATOM     26  O   UNL     1       2.885  14.634  22.358  0.00  0.00    +0.000 OA
ATOM     27  H   UNL     1       3.208  13.767  19.345  0.00  0.00    +0.000 HD
ATOM     28  H   UNL     1       4.360  14.412  20.466  0.00  0.00    +0.000 HD
ENDBRANCH  21  24
BRANCH  22  29
ATOM     29  C   UNL     1       0.412  16.332  20.393  0.00  0.00    +0.000 C 
BRANCH  29  30
ATOM     30  C   UNL     1       0.808  16.850  19.004  0.00  0.00    +0.000 C 
BRANCH  30  31
ATOM     31  C   UNL     1      -0.359  17.146  18.105  0.00  0.00    +0.000 C 
ATOM     32  C   UNL     1      -1.014  18.502  18.200  0.00  0.00    +0.000 C 
ATOM     33  C   UNL     1      -0.224  18.135  16.975  0.00  0.00    +0.000 C 
ENDBRANCH  30  31
ENDBRANCH  29  30
ENDBRANCH  22  29
ENDBRANCH   8  18
TORSDOF 5
ENDMDL
MODEL 3
REMARK VINA RESULT:      -6.9      5.278     11.384
REMARK  Name = 
REMARK  8 active torsions:
REMARK  status: ('A' for Active; 'I' for Inactive)
REMARK    1  A    between atoms: C_1  and  N_2
REMARK    2  A    between atoms: N_8  and  C_9
REMARK    3  A    between atoms: C_12  and  C_13
REMARK    4  A    between atoms: C_16  and  C_17
REMARK    5  A    between atoms: C_17  and  C_18
REMARK    6  A    between atoms: C_18  and  C_19
REMARK    7  A    between atoms: C_26  and  C_27
REMARK    8  A    between atoms: C_26  and  C_28
REMARK                            x       y       z     vdW  Elec       q    Type
REMARK                         _______ _______ _______ _____ _____    ______ ____
ROOT
ATOM      1  C   UNL     1      -6.839  12.513  19.703  0.00  0.00    +0.000 C 
ATOM      2  N   UNL     1      -6.145  13.220  20.775  0.00  0.00    +0.000 NA
ATOM      3  C   UNL     1      -6.300  14.680  20.594  0.00  0.00    +0.000 C 
ATOM      4  C   UNL     1      -5.800  15.445  21.825  0.00  0.00    +0.000 C 
ATOM      5  C   UNL     1      -4.473  14.920  22.258  0.00  0.00    +0.000 A 
ATOM      6  C   UNL     1      -3.566  15.484  23.164  0.00  0.00    +0.000 A 
ATOM      7  C   UNL     1      -2.488  14.625  23.260  0.00  0.00    +0.000 A 
ATOM      8  N   UNL     1      -2.720  13.496  22.438  0.00  0.00    +0.000 N 
ATOM      9  C   UNL     1      -3.957  13.717  21.813  0.00  0.00    +0.000 A 
ATOM     10  C   UNL     1      -4.710  12.829  20.854  0.00  0.00    +0.000 C 
ATOM     11  C   UNL     1      -1.237  14.947  24.017  0.00  0.00    +0.000 C 
ATOM     12  C   UNL     1      -1.272  16.285  24.836  0.00  0.00    +0.000 C 
ATOM     13  C   UNL     1      -1.142  15.934  26.339  0.00  0.00    +0.000 C 
ATOM     14  C   UNL     1      -0.028  17.117  24.449  0.00  0.00    +0.000 C 
ATOM     15  C   UNL     1      -2.511  17.211  24.689  0.00  0.00    +0.000 C 
ATOM     16  C   UNL     1      -3.677  16.745  23.860  0.00  0.00    +0.000 C 
ATOM     17  O   UNL     1      -4.682  17.453  23.775  0.00  0.00    +0.000 OA
ENDROOT
BRANCH   8  18
ATOM     18  C   UNL     1      -1.851  12.351  22.257  0.00  0.00    +0.000 A 
ATOM     19  C   UNL     1      -1.682  11.399  23.265  0.00  0.00    +0.000 A 
ATOM     20  C   UNL     1      -0.836  10.288  23.080  0.00  0.00    +0.000 A 
ATOM     21  C   UNL     1      -0.127  10.095  21.882  0.00  0.00    +0.000 A 
ATOM     22  C   UNL     1      -0.269  11.048  20.854  0.00  0.00    +0.000 A 
ATOM     23  C   UNL     1      -1.129  12.161  21.067  0.00  0.00    +0.000 A 
BRANCH  21  24
ATOM     24  C   UNL     1       0.751   8.886  21.731  0.00  0.00    +0.000 C 
ATOM     25  N   UNL     1       1.921   8.860  22.445  0.00  0.00    +0.000 N 
ATOM     26  O   UNL     1       0.482   7.943  21.001  0.00  0.00    +0.000 OA
ATOM     27  H   UNL     1       2.317   9.673  22.891  0.00  0.00    +0.000 HD
ATOM     28  H   UNL     1       2.535   8.078  22.252  0.00  0.00    +0.000 HD
ENDBRANCH  21  24
BRANCH  22  29
ATOM     29  C   UNL     1       0.524  11.000  19.559  0.00  0.00    +0.000 C 
BRANCH  29  30
ATOM     30  C   UNL     1      -0.118  10.248  18.386  0.00  0.00    +0.000 C 
BRANCH  30  31
ATOM     31  C   UNL     1      -1.613  10.380  18.318  0.00  0.00    +0.000 C 
ATOM     32  C   UNL     1      -2.208  11.294  17.274  0.00  0.00    +0.000 C 
ATOM     33  C   UNL     1      -2.381   9.806  17.155  0.00  0.00    +0.000 C 
ENDBRANCH  30  31
ENDBRANCH  29  30
ENDBRANCH  22  29
ENDBRANCH   8  18
TORSDOF 5
ENDMDL
MODEL 4
REMARK VINA RESULT:      -6.9      7.116     10.108
REMARK  Name = 
REMARK  8 active torsions:
REMARK  status: ('A' for Active; 'I' for Inactive)
REMARK    1  A    between atoms: C_1  and  N_2
REMARK    2  A    between atoms: N_8  and  C_9
REMARK    3  A    between atoms: C_12  and  C_13
REMARK    4  A    between atoms: C_16  and  C_17
REMARK    5  A    between atoms: C_17  and  C_18
REMARK    6  A    between atoms: C_18  and  C_19
REMARK    7  A    between atoms: C_26  and  C_27
REMARK    8  A    between atoms: C_26  and  C_28
REMARK                            x       y       z     vdW  Elec       q    Type
REMARK                         _______ _______ _______ _____ _____    ______ ____
ROOT
ATOM      1  C   UNL     1      -3.168  10.664  15.401  0.00  0.00    +0.000 C 
ATOM      2  N   UNL     1      -3.601  10.886  16.777  0.00  0.00    +0.000 NA
ATOM      3  C   UNL     1      -4.983  11.414  16.788  0.00  0.00    +0.000 C 
ATOM      4  C   UNL     1      -5.558  11.426  18.209  0.00  0.00    +0.000 C 
ATOM      5  C   UNL     1      -4.570  12.004  19.164  0.00  0.00    +0.000 A 
ATOM      6  C   UNL     1      -4.775  12.423  20.484  0.00  0.00    +0.000 A 
ATOM      7  C   UNL     1      -3.561  12.866  20.973  0.00  0.00    +0.000 A 
ATOM      8  N   UNL     1      -2.572  12.702  19.973  0.00  0.00    +0.000 N 
ATOM      9  C   UNL     1      -3.234  12.181  18.851  0.00  0.00    +0.000 A 
ATOM     10  C   UNL     1      -2.667  11.786  17.510  0.00  0.00    +0.000 C 
ATOM     11  C   UNL     1      -3.396  13.534  22.302  0.00  0.00    +0.000 C 
ATOM     12  C   UNL     1      -4.684  13.574  23.199  0.00  0.00    +0.000 C 
ATOM     13  C   UNL     1      -4.410  12.741  24.475  0.00  0.00    +0.000 C 
ATOM     14  C   UNL     1      -4.912  15.036  23.643  0.00  0.00    +0.000 C 
ATOM     15  C   UNL     1      -6.021  13.061  22.596  0.00  0.00    +0.000 C 
ATOM     16  C   UNL     1      -6.015  12.442  21.225  0.00  0.00    +0.000 C 
ATOM     17  O   UNL     1      -7.063  11.992  20.758  0.00  0.00    +0.000 OA
ENDROOT
BRANCH   8  18
ATOM     18  C   UNL     1      -1.163  13.027  20.073  0.00  0.00    +0.000 A 
ATOM     19  C   UNL     1      -0.205  12.042  20.325  0.00  0.00    +0.000 A 
ATOM     20  C   UNL     1       1.162  12.367  20.419  0.00  0.00    +0.000 A 
ATOM     21  C   UNL     1       1.616  13.688  20.270  0.00  0.00    +0.000 A 
ATOM     22  C   UNL     1       0.669  14.703  20.030  0.00  0.00    +0.000 A 
ATOM     23  C   UNL     1      -0.705  14.349  19.939  0.00  0.00    +0.000 A 
BRANCH  21  24
ATOM     24  C   UNL     1       3.086  13.978  20.366  0.00  0.00    +0.000 C 
ATOM     25  N   UNL     1       3.646  14.008  21.618  0.00  0.00    +0.000 N 
ATOM     26  O   UNL     1       3.797  14.198  19.395  0.00  0.00    +0.000 OA
ATOM     27  H   UNL     1       3.104  14.054  22.467  0.00  0.00    +0.000 HD
ATOM     28  H   UNL     1       4.616  14.298  21.659  0.00  0.00    +0.000 HD
ENDBRANCH  21  24
BRANCH  22  29
ATOM     29  C   UNL     1       1.030  16.177  19.955  0.00  0.00    +0.000 C 
BRANCH  29  30
ATOM     30  C   UNL     1       1.496  16.703  18.591  0.00  0.00    +0.000 C 
BRANCH  30  31
ATOM     31  C   UNL     1       0.785  17.946  18.137  0.00  0.00    +0.000 C 
ATOM     32  C   UNL     1       0.857  18.324  16.678  0.00  0.00    +0.000 C 
ATOM     33  C   UNL     1      -0.443  17.852  17.267  0.00  0.00    +0.000 C 
ENDBRANCH  30  31
ENDBRANCH  29  30
ENDBRANCH  22  29
ENDBRANCH   8  18
TORSDOF 5
ENDMDL
MODEL 5
REMARK VINA RESULT:      -6.9      5.782     10.406
REMARK  Name = 
REMARK  8 active torsions:
REMARK  status: ('A' for Active; 'I' for Inactive)
REMARK    1  A    between atoms: C_1  and  N_2
REMARK    2  A    between atoms: N_8  and  C_9
REMARK    3  A    between atoms: C_12  and  C_13
REMARK    4  A    between atoms: C_16  and  C_17
REMARK    5  A    between atoms: C_17  and  C_18
REMARK    6  A    between atoms: C_18  and  C_19
REMARK    7  A    between atoms: C_26  and  C_27
REMARK    8  A    between atoms: C_26  and  C_28
REMARK                            x       y       z     vdW  Elec       q    Type
REMARK                         _______ _______ _______ _____ _____    ______ ____
ROOT
ATOM      1  C   UNL     1       0.157   9.000  21.086  0.00  0.00    +0.000 C 
ATOM      2  N   UNL     1      -0.013  10.367  20.603  0.00  0.00    +0.000 NA
ATOM      3  C   UNL     1       1.286  11.074  20.633  0.00  0.00    +0.000 C 
ATOM      4  C   UNL     1       1.197  12.421  19.906  0.00  0.00    +0.000 C 
ATOM      5  C   UNL     1      -0.023  13.162  20.334  0.00  0.00    +0.000 A 
ATOM      6  C   UNL     1      -0.350  14.506  20.114  0.00  0.00    +0.000 A 
ATOM      7  C   UNL     1      -1.591  14.730  20.678  0.00  0.00    +0.000 A 
ATOM      8  N   UNL     1      -2.072  13.519  21.233  0.00  0.00    +0.000 N 
ATOM      9  C   UNL     1      -1.065  12.565  21.020  0.00  0.00    +0.000 A 
ATOM     10  C   UNL     1      -1.051  11.100  21.380  0.00  0.00    +0.000 C 
ATOM     11  C   UNL     1      -2.222  16.083  20.783  0.00  0.00    +0.000 C 
ATOM     12  C   UNL     1      -1.445  17.245  20.069  0.00  0.00    +0.000 C 
ATOM     13  C   UNL     1      -2.337  17.793  18.929  0.00  0.00    +0.000 C 
ATOM     14  C   UNL     1      -1.249  18.387  21.091  0.00  0.00    +0.000 C 
ATOM     15  C   UNL     1      -0.053  16.934  19.452  0.00  0.00    +0.000 C 
ATOM     16  C   UNL     1       0.449  15.516  19.458  0.00  0.00    +0.000 C 
ATOM     17  O   UNL     1       1.531  15.253  18.931  0.00  0.00    +0.000 OA
ENDROOT
BRANCH   8  18
ATOM     18  C   UNL     1      -3.337  13.307  21.907  0.00  0.00    +0.000 A 
ATOM     19  C   UNL     1      -3.434  13.337  23.300  0.00  0.00    +0.000 A 
ATOM     20  C   UNL     1      -4.669  13.130  23.946  0.00  0.00    +0.000 A 
ATOM     21  C   UNL     1      -5.846  12.881  23.221  0.00  0.00    +0.000 A 
ATOM     22  C   UNL     1      -5.773  12.831  21.815  0.00  0.00    +0.000 A 
ATOM     23  C   UNL     1      -4.515  13.043  21.187  0.00  0.00    +0.000 A 
BRANCH  21  24
ATOM     24  C   UNL     1      -7.139  12.681  23.958  0.00  0.00    +0.000 C 
ATOM     25  N   UNL     1      -7.681  13.770  24.592  0.00  0.00    +0.000 N 
ATOM     26  O   UNL     1      -7.716  11.605  24.031  0.00  0.00    +0.000 OA
ATOM     27  H   UNL     1      -7.172  14.622  24.763  0.00  0.00    +0.000 HD
ATOM     28  H   UNL     1      -8.501  13.585  25.157  0.00  0.00    +0.000 HD
ENDBRANCH  21  24
BRANCH  22  29
ATOM     29  C   UNL     1      -6.956  12.468  20.933  0.00  0.00    +0.000 C 
BRANCH  29  30
ATOM     30  C   UNL     1      -7.097  13.245  19.617  0.00  0.00    +0.000 C 
BRANCH  30  31
ATOM     31  C   UNL     1      -7.266  12.373  18.406  0.00  0.00    +0.000 C 
ATOM     32  C   UNL     1      -6.116  12.262  17.434  0.00  0.00    +0.000 C 
ATOM     33  C   UNL     1      -6.500  11.080  18.279  0.00  0.00    +0.000 C 
ENDBRANCH  30  31
ENDBRANCH  29  30
ENDBRANCH  22  29
ENDBRANCH   8  18
TORSDOF 5
ENDMDL
MODEL 6
REMARK VINA RESULT:      -6.8      2.513      8.080
REMARK  Name = 
REMARK  8 active torsions:
REMARK  status: ('A' for Active; 'I' for Inactive)
REMARK    1  A    between atoms: C_1  and  N_2
REMARK    2  A    between atoms: N_8  and  C_9
REMARK    3  A    between atoms: C_12  and  C_13
REMARK    4  A    between atoms: C_16  and  C_17
REMARK    5  A    between atoms: C_17  and  C_18
REMARK    6  A    between atoms: C_18  and  C_19
REMARK    7  A    between atoms: C_26  and  C_27
REMARK    8  A    between atoms: C_26  and  C_28
REMARK                            x       y       z     vdW  Elec       q    Type
REMARK                         _______ _______ _______ _____ _____    ______ ____
ROOT
ATOM      1  C   UNL     1       3.349  13.728  21.719  0.00  0.00    +0.000 C 
ATOM      2  N   UNL     1       2.187  13.400  20.899  0.00  0.00    +0.000 NA
ATOM      3  C   UNL     1       0.954  13.874  21.566  0.00  0.00    +0.000 C 
ATOM      4  C   UNL     1      -0.254  13.770  20.629  0.00  0.00    +0.000 C 
ATOM      5  C   UNL     1      -0.278  12.439  19.958  0.00  0.00    +0.000 A 
ATOM      6  C   UNL     1      -1.319  11.846  19.233  0.00  0.00    +0.000 A 
ATOM      7  C   UNL     1      -0.867  10.620  18.785  0.00  0.00    +0.000 A 
ATOM      8  N   UNL     1       0.476  10.442  19.197  0.00  0.00    +0.000 N 
ATOM      9  C   UNL     1       0.809  11.584  19.942  0.00  0.00    +0.000 A 
ATOM     10  C   UNL     1       2.119  11.943  20.599  0.00  0.00    +0.000 C 
ATOM     11  C   UNL     1      -1.738   9.616  18.096  0.00  0.00    +0.000 C 
ATOM     12  C   UNL     1      -3.195  10.100  17.773  0.00  0.00    +0.000 C 
ATOM     13  C   UNL     1      -3.366  10.121  16.234  0.00  0.00    +0.000 C 
ATOM     14  C   UNL     1      -4.183   9.050  18.331  0.00  0.00    +0.000 C 
ATOM     15  C   UNL     1      -3.649  11.488  18.303  0.00  0.00    +0.000 C 
ATOM     16  C   UNL     1      -2.648  12.365  19.005  0.00  0.00    +0.000 C 
ATOM     17  O   UNL     1      -2.987  13.486  19.389  0.00  0.00    +0.000 OA
ENDROOT
BRANCH   8  18
ATOM     18  C   UNL     1       1.332   9.304  18.928  0.00  0.00    +0.000 A 
ATOM     19  C   UNL     1       2.090   9.224  17.758  0.00  0.00    +0.000 A 
ATOM     20  C   UNL     1       2.920   8.114  17.505  0.00  0.00    +0.000 A 
ATOM     21  C   UNL     1       3.015   7.046  18.413  0.00  0.00    +0.000 A 
ATOM     22  C   UNL     1       2.251   7.096  19.595  0.00  0.00    +0.000 A 
ATOM     23  C   UNL     1       1.420   8.226  19.826  0.00  0.00    +0.000 A 
BRANCH  21  24
ATOM     24  C   UNL     1       3.926   5.893  18.102  0.00  0.00    +0.000 C 
ATOM     25  N   UNL     1       3.378   4.803  17.476  0.00  0.00    +0.000 N 
ATOM     26  O   UNL     1       5.116   5.875  18.387  0.00  0.00    +0.000 OA
ATOM     27  H   UNL     1       2.385   4.647  17.403  0.00  0.00    +0.000 HD
ATOM     28  H   UNL     1       3.993   4.006  17.364  0.00  0.00    +0.000 HD
ENDBRANCH  21  24
BRANCH  22  29
ATOM     29  C   UNL     1       2.194   5.955  20.597  0.00  0.00    +0.000 C 
BRANCH  29  30
ATOM     30  C   UNL     1       1.055   4.942  20.425  0.00  0.00    +0.000 C 
BRANCH  30  31
ATOM     31  C   UNL     1       1.368   3.571  20.954  0.00  0.00    +0.000 C 
ATOM     32  C   UNL     1       1.681   2.473  19.966  0.00  0.00    +0.000 C 
ATOM     33  C   UNL     1       2.765   3.013  20.855  0.00  0.00    +0.000 C 
ENDBRANCH  30  31
ENDBRANCH  29  30
ENDBRANCH  22  29
ENDBRANCH   8  18
TORSDOF 5
ENDMDL
MODEL 7
REMARK VINA RESULT:      -6.8      1.593      2.425
REMARK  Name = 
REMARK  8 active torsions:
REMARK  status: ('A' for Active; 'I' for Inactive)
REMARK    1  A    between atoms: C_1  and  N_2
REMARK    2  A    between atoms: N_8  and  C_9
REMARK    3  A    between atoms: C_12  and  C_13
REMARK    4  A    between atoms: C_16  and  C_17
REMARK    5  A    between atoms: C_17  and  C_18
REMARK    6  A    between atoms: C_18  and  C_19
REMARK    7  A    between atoms: C_26  and  C_27
REMARK    8  A    between atoms: C_26  and  C_28
REMARK                            x       y       z     vdW  Elec       q    Type
REMARK                         _______ _______ _______ _____ _____    ______ ____
ROOT
ATOM      1  C   UNL     1       7.539   7.933  17.100  0.00  0.00    +0.000 C 
ATOM      2  N   UNL     1       6.728   6.866  17.680  0.00  0.00    +0.000 NA
ATOM      3  C   UNL     1       6.756   5.679  16.797  0.00  0.00    +0.000 C 
ATOM      4  C   UNL     1       6.125   4.465  17.487  0.00  0.00    +0.000 C 
ATOM      5  C   UNL     1       4.832   4.844  18.126  0.00  0.00    +0.000 A 
ATOM      6  C   UNL     1       3.831   4.006  18.633  0.00  0.00    +0.000 A 
ATOM      7  C   UNL     1       2.834   4.814  19.145  0.00  0.00    +0.000 A 
ATOM      8  N   UNL     1       3.212   6.170  18.992  0.00  0.00    +0.000 N 
ATOM      9  C   UNL     1       4.453   6.157  18.337  0.00  0.00    +0.000 A 
ATOM     10  C   UNL     1       5.334   7.317  17.944  0.00  0.00    +0.000 C 
ATOM     11  C   UNL     1       1.521   4.295  19.643  0.00  0.00    +0.000 C 
ATOM     12  C   UNL     1       1.390   2.732  19.690  0.00  0.00    +0.000 C 
ATOM     13  C   UNL     1       1.216   2.307  21.169  0.00  0.00    +0.000 C 
ATOM     14  C   UNL     1       0.096   2.337  18.943  0.00  0.00    +0.000 C 
ATOM     15  C   UNL     1       2.544   1.874  19.101  0.00  0.00    +0.000 C 
ATOM     16  C   UNL     1       3.789   2.562  18.612  0.00  0.00    +0.000 C 
ATOM     17  O   UNL     1       4.727   1.886  18.184  0.00  0.00    +0.000 OA
ENDROOT
BRANCH   8  18
ATOM     18  C   UNL     1       2.463   7.340  19.404  0.00  0.00    +0.000 A 
ATOM     19  C   UNL     1       1.851   7.408  20.658  0.00  0.00    +0.000 A 
ATOM     20  C   UNL     1       1.127   8.550  21.051  0.00  0.00    +0.000 A 
ATOM     21  C   UNL     1       0.985   9.660  20.201  0.00  0.00    +0.000 A 
ATOM     22  C   UNL     1       1.581   9.611  18.925  0.00  0.00    +0.000 A 
ATOM     23  C   UNL     1       2.307   8.447  18.552  0.00  0.00    +0.000 A 
BRANCH  21  24
ATOM     24  C   UNL     1       0.214  10.858  20.674  0.00  0.00    +0.000 C 
ATOM     25  N   UNL     1      -1.044  11.044  20.162  0.00  0.00    +0.000 N 
ATOM     26  O   UNL     1       0.653  11.671  21.475  0.00  0.00    +0.000 OA
ATOM     27  H   UNL     1      -1.391  10.555  19.351  0.00  0.00    +0.000 HD
ATOM     28  H   UNL     1      -1.503  11.908  20.427  0.00  0.00    +0.000 HD
ENDBRANCH  21  24
BRANCH  22  29
ATOM     29  C   UNL     1       1.409  10.705  17.885  0.00  0.00    +0.000 C 
BRANCH  29  30
ATOM     30  C   UNL     1       2.472  11.810  17.866  0.00  0.00    +0.000 C 
BRANCH  30  31
ATOM     31  C   UNL     1       1.979  13.144  18.350  0.00  0.00    +0.000 C 
ATOM     32  C   UNL     1       2.658  13.772  19.543  0.00  0.00    +0.000 C 
ATOM     33  C   UNL     1       2.824  14.382  18.179  0.00  0.00    +0.000 C 
ENDBRANCH  30  31
ENDBRANCH  29  30
ENDBRANCH  22  29
ENDBRANCH   8  18
TORSDOF 5
ENDMDL
MODEL 8
REMARK VINA RESULT:      -6.8      1.527      2.536
REMARK  Name = 
REMARK  8 active torsions:
REMARK  status: ('A' for Active; 'I' for Inactive)
REMARK    1  A    between atoms: C_1  and  N_2
REMARK    2  A    between atoms: N_8  and  C_9
REMARK    3  A    between atoms: C_12  and  C_13
REMARK    4  A    between atoms: C_16  and  C_17
REMARK    5  A    between atoms: C_17  and  C_18
REMARK    6  A    between atoms: C_18  and  C_19
REMARK    7  A    between atoms: C_26  and  C_27
REMARK    8  A    between atoms: C_26  and  C_28
REMARK                            x       y       z     vdW  Elec       q    Type
REMARK                         _______ _______ _______ _____ _____    ______ ____
ROOT
ATOM      1  C   UNL     1       7.398   7.914  17.140  0.00  0.00    +0.000 C 
ATOM      2  N   UNL     1       6.611   6.862  17.775  0.00  0.00    +0.000 NA
ATOM      3  C   UNL     1       6.646   5.639  16.944  0.00  0.00    +0.000 C 
ATOM      4  C   UNL     1       6.041   4.446  17.693  0.00  0.00    +0.000 C 
ATOM      5  C   UNL     1       4.751   4.833  18.332  0.00  0.00    +0.000 A 
ATOM      6  C   UNL     1       3.769   4.004  18.887  0.00  0.00    +0.000 A 
ATOM      7  C   UNL     1       2.766   4.818  19.377  0.00  0.00    +0.000 A 
ATOM      8  N   UNL     1       3.122   6.172  19.161  0.00  0.00    +0.000 N 
ATOM      9  C   UNL     1       4.355   6.149  18.491  0.00  0.00    +0.000 A 
ATOM     10  C   UNL     1       5.213   7.303  18.038  0.00  0.00    +0.000 C 
ATOM     11  C   UNL     1       1.467   4.302  19.914  0.00  0.00    +0.000 C 
ATOM     12  C   UNL     1       1.360   2.741  20.029  0.00  0.00    +0.000 C 
ATOM     13  C   UNL     1       1.211   2.377  21.527  0.00  0.00    +0.000 C 
ATOM     14  C   UNL     1       0.063   2.297  19.316  0.00  0.00    +0.000 C 
ATOM     15  C   UNL     1       2.519   1.876  19.461  0.00  0.00    +0.000 C 
ATOM     16  C   UNL     1       3.748   2.560  18.927  0.00  0.00    +0.000 C 
ATOM     17  O   UNL     1       4.690   1.880  18.516  0.00  0.00    +0.000 OA
ENDROOT
BRANCH   8  18
ATOM     18  C   UNL     1       2.361   7.347  19.534  0.00  0.00    +0.000 A 
ATOM     19  C   UNL     1       2.141   7.678  20.873  0.00  0.00    +0.000 A 
ATOM     20  C   UNL     1       1.402   8.824  21.226  0.00  0.00    +0.000 A 
ATOM     21  C   UNL     1       0.853   9.674  20.250  0.00  0.00    +0.000 A 
ATOM     22  C   UNL     1       1.048   9.355  18.892  0.00  0.00    +0.000 A 
ATOM     23  C   UNL     1       1.798   8.193  18.563  0.00  0.00    +0.000 A 
BRANCH  21  24
ATOM     24  C   UNL     1       0.084  10.890  20.681  0.00  0.00    +0.000 C 
ATOM     25  N   UNL     1       0.764  12.079  20.746  0.00  0.00    +0.000 N 
ATOM     26  O   UNL     1      -1.101  10.868  20.983  0.00  0.00    +0.000 OA
ATOM     27  H   UNL     1       1.770  12.144  20.725  0.00  0.00    +0.000 HD
ATOM     28  H   UNL     1       0.246  12.861  21.127  0.00  0.00    +0.000 HD
ENDBRANCH  21  24
BRANCH  22  29
ATOM     29  C   UNL     1       0.417  10.140  17.755  0.00  0.00    +0.000 C 
BRANCH  29  30
ATOM     30  C   UNL     1      -0.978   9.691  17.299  0.00  0.00    +0.000 C 
BRANCH  30  31
ATOM     31  C   UNL     1      -2.028  10.762  17.394  0.00  0.00    +0.000 C 
ATOM     32  C   UNL     1      -2.929  10.993  16.205  0.00  0.00    +0.000 C 
ATOM     33  C   UNL     1      -3.489  10.398  17.466  0.00  0.00    +0.000 C 
ENDBRANCH  30  31
ENDBRANCH  29  30
ENDBRANCH  22  29
ENDBRANCH   8  18
TORSDOF 5
ENDMDL
MODEL 9
REMARK VINA RESULT:      -6.7      5.637      9.155
REMARK  Name = 
REMARK  8 active torsions:
REMARK  status: ('A' for Active; 'I' for Inactive)
REMARK    1  A    between atoms: C_1  and  N_2
REMARK    2  A    between atoms: N_8  and  C_9
REMARK    3  A    between atoms: C_12  and  C_13
REMARK    4  A    between atoms: C_16  and  C_17
REMARK    5  A    between atoms: C_17  and  C_18
REMARK    6  A    between atoms: C_18  and  C_19
REMARK    7  A    between atoms: C_26  and  C_27
REMARK    8  A    between atoms: C_26  and  C_28
REMARK                            x       y       z     vdW  Elec       q    Type
REMARK                         _______ _______ _______ _____ _____    ______ ____
ROOT
ATOM      1  C   UNL     1      -0.453  18.627  20.449  0.00  0.00    +0.000 C 
ATOM      2  N   UNL     1       0.016  17.252  20.314  0.00  0.00    +0.000 NA
ATOM      3  C   UNL     1       0.769  17.101  19.049  0.00  0.00    +0.000 C 
ATOM      4  C   UNL     1       1.482  15.746  18.991  0.00  0.00    +0.000 C 
ATOM      5  C   UNL     1       0.555  14.652  19.399  0.00  0.00    +0.000 A 
ATOM      6  C   UNL     1       0.718  13.269  19.251  0.00  0.00    +0.000 A 
ATOM      7  C   UNL     1      -0.393  12.659  19.799  0.00  0.00    +0.000 A 
ATOM      8  N   UNL     1      -1.255  13.652  20.326  0.00  0.00    +0.000 N 
ATOM      9  C   UNL     1      -0.645  14.885  20.045  0.00  0.00    +0.000 A 
ATOM     10  C   UNL     1      -1.106  16.276  20.401  0.00  0.00    +0.000 C 
ATOM     11  C   UNL     1      -0.665  11.190  19.703  0.00  0.00    +0.000 C 
ATOM     12  C   UNL     1       0.481  10.335  19.055  0.00  0.00    +0.000 C 
ATOM     13  C   UNL     1       1.019   9.358  20.129  0.00  0.00    +0.000 C 
ATOM     14  C   UNL     1      -0.138   9.482  17.925  0.00  0.00    +0.000 C 
ATOM     15  C   UNL     1       1.708  11.077  18.455  0.00  0.00    +0.000 C 
ATOM     16  C   UNL     1       1.810  12.569  18.615  0.00  0.00    +0.000 C 
ATOM     17  O   UNL     1       2.801  13.159  18.181  0.00  0.00    +0.000 OA
ENDROOT
BRANCH   8  18
ATOM     18  C   UNL     1      -2.520  13.446  21.000  0.00  0.00    +0.000 A 
ATOM     19  C   UNL     1      -2.634  13.562  22.388  0.00  0.00    +0.000 A 
ATOM     20  C   UNL     1      -3.870  13.361  23.034  0.00  0.00    +0.000 A 
ATOM     21  C   UNL     1      -5.031  13.031  22.315  0.00  0.00    +0.000 A 
ATOM     22  C   UNL     1      -4.940  12.894  20.916  0.00  0.00    +0.000 A 
ATOM     23  C   UNL     1      -3.682  13.101  20.287  0.00  0.00    +0.000 A 
BRANCH  21  24
ATOM     24  C   UNL     1      -6.325  12.841  23.051  0.00  0.00    +0.000 C 
ATOM     25  N   UNL     1      -7.337  13.730  22.794  0.00  0.00    +0.000 N 
ATOM     26  O   UNL     1      -6.513  11.950  23.869  0.00  0.00    +0.000 OA
ATOM     27  H   UNL     1      -7.198  14.603  22.310  0.00  0.00    +0.000 HD
ATOM     28  H   UNL     1      -8.164  13.634  23.372  0.00  0.00    +0.000 HD
ENDBRANCH  21  24
BRANCH  22  29
ATOM     29  C   UNL     1      -6.102  12.441  20.047  0.00  0.00    +0.000 C 
BRANCH  29  30
ATOM     30  C   UNL     1      -5.938  12.615  18.532  0.00  0.00    +0.000 C 
BRANCH  30  31
ATOM     31  C   UNL     1      -5.626  11.342  17.799  0.00  0.00    +0.000 C 
ATOM     32  C   UNL     1      -4.646  11.394  16.651  0.00  0.00    +0.000 C 
ATOM     33  C   UNL     1      -4.269  10.696  17.927  0.00  0.00    +0.000 C 
ENDBRANCH  30  31
ENDBRANCH  29  30
ENDBRANCH  22  29
ENDBRANCH   8  18
TORSDOF 5
ENDMDL
