MODEL 1
REMARK VINA RESULT:      -7.5      0.000      0.000
REMARK  Name = 
REMARK  7 active torsions:
REMARK  status: ('A' for Active; 'I' for Inactive)
REMARK    1  A    between atoms: C_1  and  O_2
REMARK    2  A    between atoms: O_2  and  C_3
REMARK    3  A    between atoms: C_3  and  O_4
REMARK    4  A    between atoms: O_4  and  C_5
REMARK    5  A    between atoms: C_9  and  C_10
REMARK    6  A    between atoms: C_12  and  C_13
REMARK    7  A    between atoms: C_22  and  C_23
REMARK                            x       y       z     vdW  Elec       q    Type
REMARK                         _______ _______ _______ _____ _____    ______ ____
ROOT
ATOM      1  C   UNL     1       3.360   3.643  17.772  0.00  0.00    +0.000 C 
ATOM      2  N   UNL     1       1.950   3.235  17.836  0.00  0.00    +0.000 NA
ATOM      3  C   UNL     1       1.475   3.555  18.989  0.00  0.00    +0.000 C 
ATOM      4  N   UNL     1       0.184   3.279  19.336  0.00  0.00    +0.000 N 
ATOM      5  C   UNL     1       2.458   4.126  19.953  0.00  0.00    +0.000 C 
ATOM      6  C   UNL     1       3.077   5.464  19.920  0.00  0.00    +0.000 C 
ATOM      7  C   UNL     1       3.702   4.377  19.066  0.00  0.00    +0.000 C 
ATOM      8  H   UNL     1      -0.271   2.609  18.708  0.00  0.00    +0.000 HD
ATOM      9  H   UNL     1      -0.077   3.164  20.302  0.00  0.00    +0.000 HD
ENDROOT
BRANCH   6  10
ATOM     10  C   UNL     1       2.455   6.783  19.671  0.00  0.00    +0.000 A 
ATOM     11  C   UNL     1       2.591   7.274  18.325  0.00  0.00    +0.000 A 
ATOM     12  C   UNL     1       2.048   8.474  17.893  0.00  0.00    +0.000 A 
ATOM     13  C   UNL     1       1.366   9.190  18.834  0.00  0.00    +0.000 A 
ATOM     14  C   UNL     1       1.221   8.747  20.138  0.00  0.00    +0.000 A 
ATOM     15  C   UNL     1       1.749   7.552  20.584  0.00  0.00    +0.000 A 
ATOM     16  O   UNL     1       0.504   9.620  20.889  0.00  0.00    +0.000 OA
ATOM     17  C   UNL     1       0.207  10.644  19.917  0.00  0.00    +0.000 C 
ATOM     18  O   UNL     1       0.758  10.383  18.612  0.00  0.00    +0.000 OA
ENDBRANCH   6  10
BRANCH   1  20
ATOM     19  C   UNL     1       3.844   1.274  18.170  0.00  0.00    +0.000 C 
ATOM     20  O   UNL     1       4.273   2.523  17.636  0.00  0.00    +0.000 OA
ENDBRANCH   1  20
BRANCH   1  21
ATOM     21  O   UNL     1       3.624   4.498  16.665  0.00  0.00    +0.000 OA
ATOM     22  C   UNL     1       4.812   4.114  15.969  0.00  0.00    +0.000 C 
ENDBRANCH   1  21
BRANCH   5  23
ATOM     23  C   UNL     1       2.275   3.733  21.312  0.00  0.00    +0.000 C 
ATOM     24  N   UNL     1       2.194   3.218  22.346  0.00  0.00    +0.000 NA
ENDBRANCH   5  23
BRANCH   7  25
ATOM     25  C   UNL     1       5.118   4.544  19.262  0.00  0.00    +0.000 C 
ATOM     26  N   UNL     1       6.270   4.667  19.317  0.00  0.00    +0.000 NA
ENDBRANCH   7  25
TORSDOF 5
ENDMDL
MODEL 2
REMARK VINA RESULT:      -7.4      0.603      1.338
REMARK  Name = 
REMARK  7 active torsions:
REMARK  status: ('A' for Active; 'I' for Inactive)
REMARK    1  A    between atoms: C_1  and  O_2
REMARK    2  A    between atoms: O_2  and  C_3
REMARK    3  A    between atoms: C_3  and  O_4
REMARK    4  A    between atoms: O_4  and  C_5
REMARK    5  A    between atoms: C_9  and  C_10
REMARK    6  A    between atoms: C_12  and  C_13
REMARK    7  A    between atoms: C_22  and  C_23
REMARK                            x       y       z     vdW  Elec       q    Type
REMARK                         _______ _______ _______ _____ _____    ______ ____
ROOT
ATOM      1  C   UNL     1       3.378   3.576  17.729  0.00  0.00    +0.000 C 
ATOM      2  N   UNL     1       1.970   3.161  17.774  0.00  0.00    +0.000 NA
ATOM      3  C   UNL     1       1.489   3.444  18.934  0.00  0.00    +0.000 C 
ATOM      4  N   UNL     1       0.197   3.152  19.266  0.00  0.00    +0.000 N 
ATOM      5  C   UNL     1       2.464   3.988  19.919  0.00  0.00    +0.000 C 
ATOM      6  C   UNL     1       3.079   5.329  19.930  0.00  0.00    +0.000 C 
ATOM      7  C   UNL     1       3.712   4.271  19.047  0.00  0.00    +0.000 C 
ATOM      8  H   UNL     1      -0.252   2.500  18.616  0.00  0.00    +0.000 HD
ATOM      9  H   UNL     1      -0.068   3.006  20.227  0.00  0.00    +0.000 HD
ENDROOT
BRANCH   6  10
ATOM     10  C   UNL     1       2.453   6.653  19.719  0.00  0.00    +0.000 A 
ATOM     11  C   UNL     1       1.719   7.165  20.846  0.00  0.00    +0.000 A 
ATOM     12  C   UNL     1       1.092   8.401  20.849  0.00  0.00    +0.000 A 
ATOM     13  C   UNL     1       1.201   9.125  19.696  0.00  0.00    +0.000 A 
ATOM     14  C   UNL     1       1.897   8.659  18.594  0.00  0.00    +0.000 A 
ATOM     15  C   UNL     1       2.533   7.434  18.576  0.00  0.00    +0.000 A 
ATOM     16  O   UNL     1       1.874   9.549  17.571  0.00  0.00    +0.000 OA
ATOM     17  C   UNL     1       1.104  10.621  18.154  0.00  0.00    +0.000 C 
ATOM     18  O   UNL     1       0.666  10.357  19.499  0.00  0.00    +0.000 OA
ENDBRANCH   6  10
BRANCH   1  20
ATOM     19  C   UNL     1       3.904   1.215  18.125  0.00  0.00    +0.000 C 
ATOM     20  O   UNL     1       4.297   2.464  17.563  0.00  0.00    +0.000 OA
ENDBRANCH   1  20
BRANCH   1  21
ATOM     21  O   UNL     1       3.644   4.466  16.650  0.00  0.00    +0.000 OA
ATOM     22  C   UNL     1       4.837   4.107  15.948  0.00  0.00    +0.000 C 
ENDBRANCH   1  21
BRANCH   5  23
ATOM     23  C   UNL     1       2.277   3.553  21.264  0.00  0.00    +0.000 C 
ATOM     24  N   UNL     1       1.983   3.059  22.270  0.00  0.00    +0.000 NA
ENDBRANCH   5  23
BRANCH   7  25
ATOM     25  C   UNL     1       5.127   4.438  19.254  0.00  0.00    +0.000 C 
ATOM     26  N   UNL     1       6.249   4.675  19.423  0.00  0.00    +0.000 NA
ENDBRANCH   7  25
TORSDOF 5
ENDMDL
MODEL 3
REMARK VINA RESULT:      -6.8      1.624      3.551
REMARK  Name = 
REMARK  7 active torsions:
REMARK  status: ('A' for Active; 'I' for Inactive)
REMARK    1  A    between atoms: C_1  and  O_2
REMARK    2  A    between atoms: O_2  and  C_3
REMARK    3  A    between atoms: C_3  and  O_4
REMARK    4  A    between atoms: O_4  and  C_5
REMARK    5  A    between atoms: C_9  and  C_10
REMARK    6  A    between atoms: C_12  and  C_13
REMARK    7  A    between atoms: C_22  and  C_23
REMARK                            x       y       z     vdW  Elec       q    Type
REMARK                         _______ _______ _______ _____ _____    ______ ____
ROOT
ATOM      1  C   UNL     1       3.320   3.858  19.974  0.00  0.00    +0.000 C 
ATOM      2  N   UNL     1       4.658   4.416  20.213  0.00  0.00    +0.000 NA
ATOM      3  C   UNL     1       4.963   5.201  19.239  0.00  0.00    +0.000 C 
ATOM      4  N   UNL     1       6.164   5.849  19.188  0.00  0.00    +0.000 N 
ATOM      5  C   UNL     1       3.979   5.250  18.122  0.00  0.00    +0.000 C 
ATOM      6  C   UNL     1       2.650   5.890  18.121  0.00  0.00    +0.000 C 
ATOM      7  C   UNL     1       2.760   4.494  18.704  0.00  0.00    +0.000 C 
ATOM      8  H   UNL     1       6.855   5.476  19.846  0.00  0.00    +0.000 HD
ATOM      9  H   UNL     1       6.560   6.129  18.306  0.00  0.00    +0.000 HD
ENDROOT
BRANCH   6  10
ATOM     10  C   UNL     1       2.246   7.221  18.625  0.00  0.00    +0.000 A 
ATOM     11  C   UNL     1       2.184   8.255  17.626  0.00  0.00    +0.000 A 
ATOM     12  C   UNL     1       1.794   9.557  17.900  0.00  0.00    +0.000 A 
ATOM     13  C   UNL     1       1.472   9.819  19.200  0.00  0.00    +0.000 A 
ATOM     14  C   UNL     1       1.524   8.847  20.185  0.00  0.00    +0.000 A 
ATOM     15  C   UNL     1       1.903   7.544  19.929  0.00  0.00    +0.000 A 
ATOM     16  O   UNL     1       1.157   9.336  21.395  0.00  0.00    +0.000 OA
ATOM     17  C   UNL     1       0.857  10.707  21.061  0.00  0.00    +0.000 C 
ATOM     18  O   UNL     1       1.062  11.025  19.671  0.00  0.00    +0.000 OA
ENDBRANCH   6  10
BRANCH   1  20
ATOM     19  C   UNL     1       4.591   1.803  19.561  0.00  0.00    +0.000 C 
ATOM     20  O   UNL     1       3.326   2.418  19.790  0.00  0.00    +0.000 OA
ENDBRANCH   1  20
BRANCH   1  21
ATOM     21  O   UNL     1       2.429   4.110  21.055  0.00  0.00    +0.000 OA
ATOM     22  C   UNL     1       1.953   2.897  21.644  0.00  0.00    +0.000 C 
ENDBRANCH   1  21
BRANCH   5  23
ATOM     23  C   UNL     1       4.546   5.357  16.817  0.00  0.00    +0.000 C 
ATOM     24  N   UNL     1       5.139   5.590  15.849  0.00  0.00    +0.000 NA
ENDBRANCH   5  23
BRANCH   7  25
ATOM     25  C   UNL     1       1.605   3.805  18.190  0.00  0.00    +0.000 C 
ATOM     26  N   UNL     1       0.685   3.183  17.856  0.00  0.00    +0.000 NA
ENDBRANCH   7  25
TORSDOF 5
ENDMDL
MODEL 4
REMARK VINA RESULT:      -6.7      1.523      2.070
REMARK  Name = 
REMARK  7 active torsions:
REMARK  status: ('A' for Active; 'I' for Inactive)
REMARK    1  A    between atoms: C_1  and  O_2
REMARK    2  A    between atoms: O_2  and  C_3
REMARK    3  A    between atoms: C_3  and  O_4
REMARK    4  A    between atoms: O_4  and  C_5
REMARK    5  A    between atoms: C_9  and  C_10
REMARK    6  A    between atoms: C_12  and  C_13
REMARK    7  A    between atoms: C_22  and  C_23
REMARK                            x       y       z     vdW  Elec       q    Type
REMARK                         _______ _______ _______ _____ _____    ______ ____
ROOT
ATOM      1  C   UNL     1       5.393   4.938  17.105  0.00  0.00    +0.000 C 
ATOM      2  N   UNL     1       4.238   4.313  16.446  0.00  0.00    +0.000 NA
ATOM      3  C   UNL     1       3.363   4.008  17.340  0.00  0.00    +0.000 C 
ATOM      4  N   UNL     1       2.187   3.395  17.012  0.00  0.00    +0.000 N 
ATOM      5  C   UNL     1       3.772   4.252  18.750  0.00  0.00    +0.000 C 
ATOM      6  C   UNL     1       3.909   5.551  19.436  0.00  0.00    +0.000 C 
ATOM      7  C   UNL     1       5.076   5.073  18.592  0.00  0.00    +0.000 C 
ATOM      8  H   UNL     1       2.183   3.004  16.066  0.00  0.00    +0.000 HD
ATOM      9  H   UNL     1       1.700   2.824  17.685  0.00  0.00    +0.000 HD
ENDROOT
BRANCH   6  10
ATOM     10  C   UNL     1       3.002   6.720  19.427  0.00  0.00    +0.000 A 
ATOM     11  C   UNL     1       2.993   7.472  18.201  0.00  0.00    +0.000 A 
ATOM     12  C   UNL     1       2.184   8.579  17.992  0.00  0.00    +0.000 A 
ATOM     13  C   UNL     1       1.383   8.935  19.038  0.00  0.00    +0.000 A 
ATOM     14  C   UNL     1       1.371   8.234  20.232  0.00  0.00    +0.000 A 
ATOM     15  C   UNL     1       2.164   7.126  20.455  0.00  0.00    +0.000 A 
ATOM     16  O   UNL     1       0.496   8.766  21.120  0.00  0.00    +0.000 OA
ATOM     17  C   UNL     1      -0.046   9.861  20.352  0.00  0.00    +0.000 C 
ATOM     18  O   UNL     1       0.517   9.981  19.033  0.00  0.00    +0.000 OA
ENDBRANCH   6  10
BRANCH   1  20
ATOM     19  C   UNL     1       7.381   4.364  15.792  0.00  0.00    +0.000 C 
ATOM     20  O   UNL     1       6.614   4.163  16.975  0.00  0.00    +0.000 OA
ENDBRANCH   1  20
BRANCH   1  21
ATOM     21  O   UNL     1       5.688   6.224  16.571  0.00  0.00    +0.000 OA
ATOM     22  C   UNL     1       4.966   6.475  15.362  0.00  0.00    +0.000 C 
ENDBRANCH   1  21
BRANCH   5  23
ATOM     23  C   UNL     1       3.326   3.277  19.690  0.00  0.00    +0.000 C 
ATOM     24  N   UNL     1       2.764   2.547  20.393  0.00  0.00    +0.000 NA
ENDBRANCH   5  23
BRANCH   7  25
ATOM     25  C   UNL     1       6.235   5.372  19.392  0.00  0.00    +0.000 C 
ATOM     26  N   UNL     1       7.227   5.575  19.957  0.00  0.00    +0.000 NA
ENDBRANCH   7  25
TORSDOF 5
ENDMDL
MODEL 5
REMARK VINA RESULT:      -6.7      1.595      2.429
REMARK  Name = 
REMARK  7 active torsions:
REMARK  status: ('A' for Active; 'I' for Inactive)
REMARK    1  A    between atoms: C_1  and  O_2
REMARK    2  A    between atoms: O_2  and  C_3
REMARK    3  A    between atoms: C_3  and  O_4
REMARK    4  A    between atoms: O_4  and  C_5
REMARK    5  A    between atoms: C_9  and  C_10
REMARK    6  A    between atoms: C_12  and  C_13
REMARK    7  A    between atoms: C_22  and  C_23
REMARK                            x       y       z     vdW  Elec       q    Type
REMARK                         _______ _______ _______ _____ _____    ______ ____
ROOT
ATOM      1  C   UNL     1       5.428   4.879  17.098  0.00  0.00    +0.000 C 
ATOM      2  N   UNL     1       4.283   4.228  16.448  0.00  0.00    +0.000 NA
ATOM      3  C   UNL     1       3.408   3.931  17.344  0.00  0.00    +0.000 C 
ATOM      4  N   UNL     1       2.240   3.299  17.025  0.00  0.00    +0.000 N 
ATOM      5  C   UNL     1       3.810   4.206  18.752  0.00  0.00    +0.000 C 
ATOM      6  C   UNL     1       3.931   5.518  19.413  0.00  0.00    +0.000 C 
ATOM      7  C   UNL     1       5.105   5.038  18.582  0.00  0.00    +0.000 C 
ATOM      8  H   UNL     1       2.243   2.890  16.086  0.00  0.00    +0.000 HD
ATOM      9  H   UNL     1       1.757   2.735  17.707  0.00  0.00    +0.000 HD
ENDROOT
BRANCH   6  10
ATOM     10  C   UNL     1       3.011   6.677  19.380  0.00  0.00    +0.000 A 
ATOM     11  C   UNL     1       2.232   6.869  20.575  0.00  0.00    +0.000 A 
ATOM     12  C   UNL     1       1.341   7.917  20.744  0.00  0.00    +0.000 A 
ATOM     13  C   UNL     1       1.229   8.777  19.690  0.00  0.00    +0.000 A 
ATOM     14  C   UNL     1       1.962   8.618  18.526  0.00  0.00    +0.000 A 
ATOM     15  C   UNL     1       2.858   7.584  18.342  0.00  0.00    +0.000 A 
ATOM     16  O   UNL     1       1.689   9.592  17.622  0.00  0.00    +0.000 OA
ATOM     17  C   UNL     1       0.723  10.381  18.348  0.00  0.00    +0.000 C 
ATOM     18  O   UNL     1       0.419   9.866  19.658  0.00  0.00    +0.000 OA
ENDBRANCH   6  10
BRANCH   1  20
ATOM     19  C   UNL     1       7.555   4.487  15.944  0.00  0.00    +0.000 C 
ATOM     20  O   UNL     1       6.658   4.115  16.987  0.00  0.00    +0.000 OA
ENDBRANCH   1  20
BRANCH   1  21
ATOM     21  O   UNL     1       5.711   6.157  16.542  0.00  0.00    +0.000 OA
ATOM     22  C   UNL     1       4.937   6.407  15.365  0.00  0.00    +0.000 C 
ENDBRANCH   1  21
BRANCH   5  23
ATOM     23  C   UNL     1       3.372   3.243  19.708  0.00  0.00    +0.000 C 
ATOM     24  N   UNL     1       2.950   2.635  20.600  0.00  0.00    +0.000 NA
ENDBRANCH   5  23
BRANCH   7  25
ATOM     25  C   UNL     1       6.259   5.364  19.379  0.00  0.00    +0.000 C 
ATOM     26  N   UNL     1       7.209   5.525  20.024  0.00  0.00    +0.000 NA
ENDBRANCH   7  25
TORSDOF 5
ENDMDL
MODEL 6
REMARK VINA RESULT:      -6.6      1.643      3.731
REMARK  Name = 
REMARK  7 active torsions:
REMARK  status: ('A' for Active; 'I' for Inactive)
REMARK    1  A    between atoms: C_1  and  O_2
REMARK    2  A    between atoms: O_2  and  C_3
REMARK    3  A    between atoms: C_3  and  O_4
REMARK    4  A    between atoms: O_4  and  C_5
REMARK    5  A    between atoms: C_9  and  C_10
REMARK    6  A    between atoms: C_12  and  C_13
REMARK    7  A    between atoms: C_22  and  C_23
REMARK                            x       y       z     vdW  Elec       q    Type
REMARK                         _______ _______ _______ _____ _____    ______ ____
ROOT
ATOM      1  C   UNL     1       3.322   3.776  20.016  0.00  0.00    +0.000 C 
ATOM      2  N   UNL     1       4.655   4.356  20.228  0.00  0.00    +0.000 NA
ATOM      3  C   UNL     1       4.942   5.118  19.231  0.00  0.00    +0.000 C 
ATOM      4  N   UNL     1       6.134   5.780  19.153  0.00  0.00    +0.000 N 
ATOM      5  C   UNL     1       3.949   5.126  18.121  0.00  0.00    +0.000 C 
ATOM      6  C   UNL     1       2.612   5.748  18.114  0.00  0.00    +0.000 C 
ATOM      7  C   UNL     1       2.744   4.370  18.733  0.00  0.00    +0.000 C 
ATOM      8  H   UNL     1       6.835   5.433  19.815  0.00  0.00    +0.000 HD
ATOM      9  H   UNL     1       6.520   6.041  18.260  0.00  0.00    +0.000 HD
ENDROOT
BRANCH   6  10
ATOM     10  C   UNL     1       2.195   7.087  18.585  0.00  0.00    +0.000 A 
ATOM     11  C   UNL     1       1.834   7.157  19.977  0.00  0.00    +0.000 A 
ATOM     12  C   UNL     1       1.449   8.330  20.607  0.00  0.00    +0.000 A 
ATOM     13  C   UNL     1       1.419   9.445  19.819  0.00  0.00    +0.000 A 
ATOM     14  C   UNL     1       1.757   9.410  18.477  0.00  0.00    +0.000 A 
ATOM     15  C   UNL     1       2.149   8.253  17.835  0.00  0.00    +0.000 A 
ATOM     16  O   UNL     1       1.658  10.634  17.902  0.00  0.00    +0.000 OA
ATOM     17  C   UNL     1       1.239  11.436  19.026  0.00  0.00    +0.000 C 
ATOM     18  O   UNL     1       1.076  10.687  20.245  0.00  0.00    +0.000 OA
ENDBRANCH   6  10
BRANCH   1  20
ATOM     19  C   UNL     1       4.622   1.720  19.709  0.00  0.00    +0.000 C 
ATOM     20  O   UNL     1       3.345   2.331  19.870  0.00  0.00    +0.000 OA
ENDBRANCH   1  20
BRANCH   1  21
ATOM     21  O   UNL     1       2.437   4.045  21.097  0.00  0.00    +0.000 OA
ATOM     22  C   UNL     1       1.878   2.845  21.637  0.00  0.00    +0.000 C 
ENDBRANCH   1  21
BRANCH   5  23
ATOM     23  C   UNL     1       4.503   5.205  16.810  0.00  0.00    +0.000 C 
ATOM     24  N   UNL     1       5.140   5.316  15.848  0.00  0.00    +0.000 NA
ENDBRANCH   5  23
BRANCH   7  25
ATOM     25  C   UNL     1       1.594   3.653  18.248  0.00  0.00    +0.000 C 
ATOM     26  N   UNL     1       0.658   3.035  17.953  0.00  0.00    +0.000 NA
ENDBRANCH   7  25
TORSDOF 5
ENDMDL
MODEL 7
REMARK VINA RESULT:      -6.2      2.547      6.381
REMARK  Name = 
REMARK  7 active torsions:
REMARK  status: ('A' for Active; 'I' for Inactive)
REMARK    1  A    between atoms: C_1  and  O_2
REMARK    2  A    between atoms: O_2  and  C_3
REMARK    3  A    between atoms: C_3  and  O_4
REMARK    4  A    between atoms: O_4  and  C_5
REMARK    5  A    between atoms: C_9  and  C_10
REMARK    6  A    between atoms: C_12  and  C_13
REMARK    7  A    between atoms: C_22  and  C_23
REMARK                            x       y       z     vdW  Elec       q    Type
REMARK                         _______ _______ _______ _____ _____    ______ ____
ROOT
ATOM      1  C   UNL     1       3.326   6.195  18.669  0.00  0.00    +0.000 C 
ATOM      2  N   UNL     1       4.612   6.348  19.361  0.00  0.00    +0.000 NA
ATOM      3  C   UNL     1       5.268   5.244  19.271  0.00  0.00    +0.000 C 
ATOM      4  N   UNL     1       6.500   5.094  19.841  0.00  0.00    +0.000 N 
ATOM      5  C   UNL     1       4.545   4.118  18.620  0.00  0.00    +0.000 C 
ATOM      6  C   UNL     1       4.229   3.959  17.188  0.00  0.00    +0.000 C 
ATOM      7  C   UNL     1       3.294   4.811  18.025  0.00  0.00    +0.000 C 
ATOM      8  H   UNL     1       6.727   5.828  20.518  0.00  0.00    +0.000 HD
ATOM      9  H   UNL     1       6.834   4.182  20.111  0.00  0.00    +0.000 HD
ENDROOT
BRANCH   6  10
ATOM     10  C   UNL     1       5.090   4.177  16.005  0.00  0.00    +0.000 A 
ATOM     11  C   UNL     1       6.180   5.095  16.207  0.00  0.00    +0.000 A 
ATOM     12  C   UNL     1       7.111   5.401  15.227  0.00  0.00    +0.000 A 
ATOM     13  C   UNL     1       6.933   4.779  14.024  0.00  0.00    +0.000 A 
ATOM     14  C   UNL     1       5.893   3.894  13.797  0.00  0.00    +0.000 A 
ATOM     15  C   UNL     1       4.961   3.573  14.763  0.00  0.00    +0.000 A 
ATOM     16  O   UNL     1       5.921   3.399  12.534  0.00  0.00    +0.000 OA
ATOM     17  C   UNL     1       7.092   4.055  12.005  0.00  0.00    +0.000 C 
ATOM     18  O   UNL     1       7.735   4.939  12.941  0.00  0.00    +0.000 OA
ENDBRANCH   6  10
BRANCH   1  20
ATOM     19  C   UNL     1       2.214   5.516  20.746  0.00  0.00    +0.000 C 
ATOM     20  O   UNL     1       2.182   6.302  19.558  0.00  0.00    +0.000 OA
ENDBRANCH   1  20
BRANCH   1  21
ATOM     21  O   UNL     1       3.132   7.183  17.663  0.00  0.00    +0.000 OA
ATOM     22  C   UNL     1       2.385   8.299  18.153  0.00  0.00    +0.000 C 
ENDBRANCH   1  21
BRANCH   5  23
ATOM     23  C   UNL     1       4.787   2.831  19.186  0.00  0.00    +0.000 C 
ATOM     24  N   UNL     1       4.872   1.864  19.818  0.00  0.00    +0.000 NA
ENDBRANCH   5  23
BRANCH   7  25
ATOM     25  C   UNL     1       1.978   4.418  17.594  0.00  0.00    +0.000 C 
ATOM     26  N   UNL     1       0.912   4.044  17.333  0.00  0.00    +0.000 NA
ENDBRANCH   7  25
TORSDOF 5
ENDMDL
MODEL 8
REMARK VINA RESULT:      -6.1      5.378      8.290
REMARK  Name = 
REMARK  7 active torsions:
REMARK  status: ('A' for Active; 'I' for Inactive)
REMARK    1  A    between atoms: C_1  and  O_2
REMARK    2  A    between atoms: O_2  and  C_3
REMARK    3  A    between atoms: C_3  and  O_4
REMARK    4  A    between atoms: O_4  and  C_5
REMARK    5  A    between atoms: C_9  and  C_10
REMARK    6  A    between atoms: C_12  and  C_13
REMARK    7  A    between atoms: C_22  and  C_23
REMARK                            x       y       z     vdW  Elec       q    Type
REMARK                         _______ _______ _______ _____ _____    ______ ____
ROOT
ATOM      1  C   UNL     1       0.980  12.923  20.311  0.00  0.00    +0.000 C 
ATOM      2  N   UNL     1       1.858  12.714  19.152  0.00  0.00    +0.000 NA
ATOM      3  C   UNL     1       1.765  11.486  18.775  0.00  0.00    +0.000 C 
ATOM      4  N   UNL     1       2.489  11.003  17.723  0.00  0.00    +0.000 N 
ATOM      5  C   UNL     1       0.922  10.611  19.636  0.00  0.00    +0.000 C 
ATOM      6  C   UNL     1      -0.548  10.608  19.750  0.00  0.00    +0.000 C 
ATOM      7  C   UNL     1       0.220  11.625  20.572  0.00  0.00    +0.000 C 
ATOM      8  H   UNL     1       3.252  11.622  17.435  0.00  0.00    +0.000 HD
ATOM      9  H   UNL     1       2.723  10.024  17.665  0.00  0.00    +0.000 HD
ENDROOT
BRANCH   6  10
ATOM     10  C   UNL     1      -1.574  10.661  18.685  0.00  0.00    +0.000 A 
ATOM     11  C   UNL     1      -2.728  11.464  18.993  0.00  0.00    +0.000 A 
ATOM     12  C   UNL     1      -3.778  11.661  18.110  0.00  0.00    +0.000 A 
ATOM     13  C   UNL     1      -3.665  11.031  16.904  0.00  0.00    +0.000 A 
ATOM     14  C   UNL     1      -2.570  10.249  16.578  0.00  0.00    +0.000 A 
ATOM     15  C   UNL     1      -1.512  10.048  17.443  0.00  0.00    +0.000 A 
ATOM     16  O   UNL     1      -2.674   9.731  15.329  0.00  0.00    +0.000 OA
ATOM     17  C   UNL     1      -3.939  10.282  14.906  0.00  0.00    +0.000 C 
ATOM     18  O   UNL     1      -4.579  11.101  15.902  0.00  0.00    +0.000 OA
ENDBRANCH   6  10
BRANCH   1  20
ATOM     19  C   UNL     1       2.063  14.639  21.686  0.00  0.00    +0.000 C 
ATOM     20  O   UNL     1       1.704  13.270  21.521  0.00  0.00    +0.000 OA
ENDBRANCH   1  20
BRANCH   1  21
ATOM     21  O   UNL     1       0.047  13.976  20.099  0.00  0.00    +0.000 OA
ATOM     22  C   UNL     1      -0.167  14.223  18.707  0.00  0.00    +0.000 C 
ENDBRANCH   1  21
BRANCH   5  23
ATOM     23  C   UNL     1       1.403   9.279  19.804  0.00  0.00    +0.000 C 
ATOM     24  N   UNL     1       1.799   8.193  19.723  0.00  0.00    +0.000 NA
ENDBRANCH   5  23
BRANCH   7  25
ATOM     25  C   UNL     1      -0.425  11.597  21.859  0.00  0.00    +0.000 C 
ATOM     26  N   UNL     1      -0.942  11.680  22.894  0.00  0.00    +0.000 NA
ENDBRANCH   7  25
TORSDOF 5
ENDMDL
MODEL 9
REMARK VINA RESULT:      -6.1      5.726      8.265
REMARK  Name = 
REMARK  7 active torsions:
REMARK  status: ('A' for Active; 'I' for Inactive)
REMARK    1  A    between atoms: C_1  and  O_2
REMARK    2  A    between atoms: O_2  and  C_3
REMARK    3  A    between atoms: C_3  and  O_4
REMARK    4  A    between atoms: O_4  and  C_5
REMARK    5  A    between atoms: C_9  and  C_10
REMARK    6  A    between atoms: C_12  and  C_13
REMARK    7  A    between atoms: C_22  and  C_23
REMARK                            x       y       z     vdW  Elec       q    Type
REMARK                         _______ _______ _______ _____ _____    ______ ____
ROOT
ATOM      1  C   UNL     1       1.134  13.035  20.325  0.00  0.00    +0.000 C 
ATOM      2  N   UNL     1       1.862  12.746  19.082  0.00  0.00    +0.000 NA
ATOM      3  C   UNL     1       1.626  11.529  18.734  0.00  0.00    +0.000 C 
ATOM      4  N   UNL     1       2.190  10.980  17.618  0.00  0.00    +0.000 N 
ATOM      5  C   UNL     1       0.809  10.734  19.692  0.00  0.00    +0.000 C 
ATOM      6  C   UNL     1      -0.635  10.856  19.961  0.00  0.00    +0.000 C 
ATOM      7  C   UNL     1       0.299  11.808  20.683  0.00  0.00    +0.000 C 
ATOM      8  H   UNL     1       2.967  11.530  17.243  0.00  0.00    +0.000 HD
ATOM      9  H   UNL     1       2.332   9.985  17.550  0.00  0.00    +0.000 HD
ENDROOT
BRANCH   6  10
ATOM     10  C   UNL     1      -1.761  10.992  19.011  0.00  0.00    +0.000 A 
ATOM     11  C   UNL     1      -1.635  10.218  17.804  0.00  0.00    +0.000 A 
ATOM     12  C   UNL     1      -2.602  10.190  16.812  0.00  0.00    +0.000 A 
ATOM     13  C   UNL     1      -3.707  10.961  17.037  0.00  0.00    +0.000 A 
ATOM     14  C   UNL     1      -3.857  11.719  18.186  0.00  0.00    +0.000 A 
ATOM     15  C   UNL     1      -2.907  11.753  19.187  0.00  0.00    +0.000 A 
ATOM     16  O   UNL     1      -5.032  12.396  18.192  0.00  0.00    +0.000 OA
ATOM     17  C   UNL     1      -5.603  11.970  16.937  0.00  0.00    +0.000 C 
ATOM     18  O   UNL     1      -4.765  11.066  16.194  0.00  0.00    +0.000 OA
ENDBRANCH   6  10
BRANCH   1  20
ATOM     19  C   UNL     1       3.243  13.974  21.149  0.00  0.00    +0.000 C 
ATOM     20  O   UNL     1       2.010  13.325  21.446  0.00  0.00    +0.000 OA
ENDBRANCH   1  20
BRANCH   1  21
ATOM     21  O   UNL     1       0.276  14.163  20.198  0.00  0.00    +0.000 OA
ATOM     22  C   UNL     1      -0.054  14.428  18.832  0.00  0.00    +0.000 C 
ENDBRANCH   1  21
BRANCH   5  23
ATOM     23  C   UNL     1       1.191   9.366  19.827  0.00  0.00    +0.000 C 
ATOM     24  N   UNL     1       1.664   8.308  19.803  0.00  0.00    +0.000 NA
ENDBRANCH   5  23
BRANCH   7  25
ATOM     25  C   UNL     1      -0.205  11.843  22.032  0.00  0.00    +0.000 C 
ATOM     26  N   UNL     1      -0.656  11.779  23.098  0.00  0.00    +0.000 NA
ENDBRANCH   7  25
TORSDOF 5
ENDMDL
