MODEL 1
REMARK VINA RESULT:      -8.9      0.000      0.000
REMARK  Name = 
REMARK  5 active torsions:
REMARK  status: ('A' for Active; 'I' for Inactive)
REMARK    1  A    between atoms: C_5  and  N_6
REMARK    2  A    between atoms: N_6  and  C_7
REMARK    3  A    between atoms: N_6  and  C_17
REMARK    4  A    between atoms: C_7  and  C_8
REMARK    5  A    between atoms: C_17  and  C_18
REMARK                            x       y       z     vdW  Elec       q    Type
REMARK                         _______ _______ _______ _____ _____    ______ ____
ROOT
ATOM      1  N   UNL     1       3.254   5.597  18.328  0.00  0.00    +0.000 N 
ENDROOT
BRANCH   1   6
ATOM      2  F   UNL     1       0.929   2.139  21.977  0.00  0.00    +0.000 F 
ATOM      3  C   UNL     1       1.376   3.071  21.126  0.00  0.00    +0.000 A 
ATOM      4  C   UNL     1       2.336   3.984  21.545  0.00  0.00    +0.000 A 
ATOM      5  C   UNL     1       2.883   4.895  20.633  0.00  0.00    +0.000 A 
ATOM      6  C   UNL     1       2.499   4.886  19.282  0.00  0.00    +0.000 A 
ATOM      7  C   UNL     1       1.425   4.016  18.941  0.00  0.00    +0.000 A 
ATOM      8  F   UNL     1       0.894   4.027  17.707  0.00  0.00    +0.000 F 
ATOM      9  C   UNL     1       0.889   3.101  19.834  0.00  0.00    +0.000 A 
ENDBRANCH   1   6
BRANCH   1  10
ATOM     10  C   UNL     1       2.633   6.828  17.824  0.00  0.00    +0.000 C 
BRANCH  10  11
ATOM     11  C   UNL     1       2.157   7.897  18.756  0.00  0.00    +0.000 A 
ATOM     12  N   UNL     1       1.965   7.859  20.059  0.00  0.00    +0.000 NA
ATOM     13  C   UNL     1       1.170   8.946  20.335  0.00  0.00    +0.000 A 
ATOM     14  C   UNL     1       0.553   9.323  21.533  0.00  0.00    +0.000 A 
ATOM     15  C   UNL     1      -0.354  10.391  21.505  0.00  0.00    +0.000 A 
ATOM     16  C   UNL     1      -0.609  11.091  20.321  0.00  0.00    +0.000 A 
ATOM     17  C   UNL     1       0.057  10.778  19.133  0.00  0.00    +0.000 A 
ATOM     18  C   UNL     1       0.931   9.692  19.188  0.00  0.00    +0.000 A 
ATOM     19  N   UNL     1       1.691   9.082  18.232  0.00  0.00    +0.000 N 
ATOM     20  H   UNL     1       1.751   9.359  17.263  0.00  0.00    +0.000 HD
ENDBRANCH  10  11
ENDBRANCH   1  10
BRANCH   1  21
ATOM     21  C   UNL     1       4.730   5.549  18.391  0.00  0.00    +0.000 C 
BRANCH  21  22
ATOM     22  C   UNL     1       5.385   5.181  17.062  0.00  0.00    +0.000 A 
ATOM     23  C   UNL     1       4.749   4.299  16.173  0.00  0.00    +0.000 A 
ATOM     24  C   UNL     1       5.293   4.002  14.922  0.00  0.00    +0.000 A 
ATOM     25  C   UNL     1       6.486   4.598  14.533  0.00  0.00    +0.000 A 
ATOM     26 CL   UNL     1       7.147   4.248  12.983  0.00  0.00    +0.000 Cl
ATOM     27  C   UNL     1       7.137   5.482  15.382  0.00  0.00    +0.000 A 
ATOM     28  C   UNL     1       6.584   5.775  16.639  0.00  0.00    +0.000 A 
ATOM     29 CL   UNL     1       7.452   6.907  17.625  0.00  0.00    +0.000 Cl
ENDBRANCH  21  22
ENDBRANCH   1  21
TORSDOF 5
ENDMDL
MODEL 2
REMARK VINA RESULT:      -8.8      1.126      1.353
REMARK  Name = 
REMARK  5 active torsions:
REMARK  status: ('A' for Active; 'I' for Inactive)
REMARK    1  A    between atoms: C_5  and  N_6
REMARK    2  A    between atoms: N_6  and  C_7
REMARK    3  A    between atoms: N_6  and  C_17
REMARK    4  A    between atoms: C_7  and  C_8
REMARK    5  A    between atoms: C_17  and  C_18
REMARK                            x       y       z     vdW  Elec       q    Type
REMARK                         _______ _______ _______ _____ _____    ______ ____
ROOT
ATOM      1  N   UNL     1       3.406   4.894  18.260  0.00  0.00    +0.000 N 
ENDROOT
BRANCH   1   6
ATOM      2  F   UNL     1       0.871   2.198  22.382  0.00  0.00    +0.000 F 
ATOM      3  C   UNL     1       1.479   2.718  21.308  0.00  0.00    +0.000 A 
ATOM      4  C   UNL     1       0.730   3.379  20.343  0.00  0.00    +0.000 A 
ATOM      5  C   UNL     1       1.369   4.013  19.271  0.00  0.00    +0.000 A 
ATOM      6  C   UNL     1       2.770   4.021  19.166  0.00  0.00    +0.000 A 
ATOM      7  C   UNL     1       3.474   3.223  20.111  0.00  0.00    +0.000 A 
ATOM      8  F   UNL     1       4.804   3.056  20.017  0.00  0.00    +0.000 F 
ATOM      9  C   UNL     1       2.850   2.606  21.184  0.00  0.00    +0.000 A 
ENDBRANCH   1   6
BRANCH   1  10
ATOM     10  C   UNL     1       2.601   6.041  17.821  0.00  0.00    +0.000 C 
BRANCH  10  11
ATOM     11  C   UNL     1       2.331   7.197  18.732  0.00  0.00    +0.000 A 
ATOM     12  N   UNL     1       2.188   7.226  20.041  0.00  0.00    +0.000 NA
ATOM     13  C   UNL     1       1.580   8.430  20.307  0.00  0.00    +0.000 A 
ATOM     14  C   UNL     1       1.076   8.931  21.512  0.00  0.00    +0.000 A 
ATOM     15  C   UNL     1       0.342  10.125  21.479  0.00  0.00    +0.000 A 
ATOM     16  C   UNL     1       0.150  10.822  20.282  0.00  0.00    +0.000 A 
ATOM     17  C   UNL     1       0.713  10.375  19.083  0.00  0.00    +0.000 A 
ATOM     18  C   UNL     1       1.412   9.171  19.144  0.00  0.00    +0.000 A 
ATOM     19  N   UNL     1       2.032   8.424  18.184  0.00  0.00    +0.000 N 
ATOM     20  H   UNL     1       2.094   8.660  17.204  0.00  0.00    +0.000 HD
ENDBRANCH  10  11
ENDBRANCH   1  10
BRANCH   1  21
ATOM     21  C   UNL     1       4.872   5.071  18.335  0.00  0.00    +0.000 C 
BRANCH  21  22
ATOM     22  C   UNL     1       5.570   4.944  16.984  0.00  0.00    +0.000 A 
ATOM     23  C   UNL     1       5.012   4.156  15.964  0.00  0.00    +0.000 A 
ATOM     24  C   UNL     1       5.594   4.080  14.696  0.00  0.00    +0.000 A 
ATOM     25  C   UNL     1       6.746   4.807  14.425  0.00  0.00    +0.000 A 
ATOM     26 CL   UNL     1       7.453   4.729  12.858  0.00  0.00    +0.000 Cl
ATOM     27  C   UNL     1       7.320   5.603  15.407  0.00  0.00    +0.000 A 
ATOM     28  C   UNL     1       6.730   5.674  16.679  0.00  0.00    +0.000 A 
ATOM     29 CL   UNL     1       7.499   6.710  17.837  0.00  0.00    +0.000 Cl
ENDBRANCH  21  22
ENDBRANCH   1  21
TORSDOF 5
ENDMDL
MODEL 3
REMARK VINA RESULT:      -8.7      1.239      1.459
REMARK  Name = 
REMARK  5 active torsions:
REMARK  status: ('A' for Active; 'I' for Inactive)
REMARK    1  A    between atoms: C_5  and  N_6
REMARK    2  A    between atoms: N_6  and  C_7
REMARK    3  A    between atoms: N_6  and  C_17
REMARK    4  A    between atoms: C_7  and  C_8
REMARK    5  A    between atoms: C_17  and  C_18
REMARK                            x       y       z     vdW  Elec       q    Type
REMARK                         _______ _______ _______ _____ _____    ______ ____
ROOT
ATOM      1  N   UNL     1       2.738   6.149  18.476  0.00  0.00    +0.000 N 
ENDROOT
BRANCH   1   6
ATOM      2  F   UNL     1       1.286   1.954  21.790  0.00  0.00    +0.000 F 
ATOM      3  C   UNL     1       1.503   3.032  21.025  0.00  0.00    +0.000 A 
ATOM      4  C   UNL     1       2.219   4.107  21.536  0.00  0.00    +0.000 A 
ATOM      5  C   UNL     1       2.537   5.193  20.711  0.00  0.00    +0.000 A 
ATOM      6  C   UNL     1       2.170   5.204  19.355  0.00  0.00    +0.000 A 
ATOM      7  C   UNL     1       1.332   4.137  18.924  0.00  0.00    +0.000 A 
ATOM      8  F   UNL     1       0.817   4.124  17.683  0.00  0.00    +0.000 F 
ATOM      9  C   UNL     1       1.026   3.052  19.730  0.00  0.00    +0.000 A 
ENDBRANCH   1   6
BRANCH   1  10
ATOM     10  C   UNL     1       1.968   7.386  18.298  0.00  0.00    +0.000 C 
BRANCH  10  11
ATOM     11  C   UNL     1       1.649   8.277  19.456  0.00  0.00    +0.000 A 
ATOM     12  N   UNL     1       1.623   8.011  20.746  0.00  0.00    +0.000 NA
ATOM     13  C   UNL     1       0.905   9.039  21.309  0.00  0.00    +0.000 A 
ATOM     14  C   UNL     1       0.457   9.204  22.625  0.00  0.00    +0.000 A 
ATOM     15  C   UNL     1      -0.412  10.268  22.902  0.00  0.00    +0.000 A 
ATOM     16  C   UNL     1      -0.791  11.169  21.902  0.00  0.00    +0.000 A 
ATOM     17  C   UNL     1      -0.292  11.065  20.601  0.00  0.00    +0.000 A 
ATOM     18  C   UNL     1       0.546   9.979  20.351  0.00  0.00    +0.000 A 
ATOM     19  N   UNL     1       1.159   9.540  19.212  0.00  0.00    +0.000 N 
ATOM     20  H   UNL     1       1.104   9.984  18.307  0.00  0.00    +0.000 HD
ENDBRANCH  10  11
ENDBRANCH   1  10
BRANCH   1  21
ATOM     21  C   UNL     1       4.209   6.232  18.357  0.00  0.00    +0.000 C 
BRANCH  21  22
ATOM     22  C   UNL     1       4.753   5.598  17.079  0.00  0.00    +0.000 A 
ATOM     23  C   UNL     1       5.089   6.396  15.973  0.00  0.00    +0.000 A 
ATOM     24  C   UNL     1       5.654   5.848  14.820  0.00  0.00    +0.000 A 
ATOM     25  C   UNL     1       5.904   4.483  14.759  0.00  0.00    +0.000 A 
ATOM     26 CL   UNL     1       6.617   3.810  13.345  0.00  0.00    +0.000 Cl
ATOM     27  C   UNL     1       5.592   3.665  15.837  0.00  0.00    +0.000 A 
ATOM     28  C   UNL     1       5.024   4.223  16.993  0.00  0.00    +0.000 A 
ATOM     29 CL   UNL     1       4.689   3.133  18.298  0.00  0.00    +0.000 Cl
ENDBRANCH  21  22
ENDBRANCH   1  21
TORSDOF 5
ENDMDL
MODEL 4
REMARK VINA RESULT:      -8.6      0.624      1.248
REMARK  Name = 
REMARK  5 active torsions:
REMARK  status: ('A' for Active; 'I' for Inactive)
REMARK    1  A    between atoms: C_5  and  N_6
REMARK    2  A    between atoms: N_6  and  C_7
REMARK    3  A    between atoms: N_6  and  C_17
REMARK    4  A    between atoms: C_7  and  C_8
REMARK    5  A    between atoms: C_17  and  C_18
REMARK                            x       y       z     vdW  Elec       q    Type
REMARK                         _______ _______ _______ _____ _____    ______ ____
ROOT
ATOM      1  N   UNL     1       3.829   5.637  18.284  0.00  0.00    +0.000 N 
ENDROOT
BRANCH   1   6
ATOM      2  F   UNL     1       0.550   2.559  21.518  0.00  0.00    +0.000 F 
ATOM      3  C   UNL     1       1.241   3.416  20.756  0.00  0.00    +0.000 A 
ATOM      4  C   UNL     1       2.272   4.160  21.316  0.00  0.00    +0.000 A 
ATOM      5  C   UNL     1       3.065   4.981  20.506  0.00  0.00    +0.000 A 
ATOM      6  C   UNL     1       2.858   5.046  19.118  0.00  0.00    +0.000 A 
ATOM      7  C   UNL     1       1.712   4.361  18.623  0.00  0.00    +0.000 A 
ATOM      8  F   UNL     1       1.349   4.469  17.333  0.00  0.00    +0.000 F 
ATOM      9  C   UNL     1       0.932   3.535  19.416  0.00  0.00    +0.000 A 
ENDBRANCH   1   6
BRANCH   1  10
ATOM     10  C   UNL     1       3.691   7.085  18.085  0.00  0.00    +0.000 C 
BRANCH  10  11
ATOM     11  C   UNL     1       2.422   7.799  18.429  0.00  0.00    +0.000 A 
ATOM     12  N   UNL     1       1.583   8.455  17.653  0.00  0.00    +0.000 NA
ATOM     13  C   UNL     1       0.832   9.225  18.508  0.00  0.00    +0.000 A 
ATOM     14  C   UNL     1      -0.119  10.211  18.224  0.00  0.00    +0.000 A 
ATOM     15  C   UNL     1      -0.620  10.977  19.286  0.00  0.00    +0.000 A 
ATOM     16  C   UNL     1      -0.213  10.738  20.602  0.00  0.00    +0.000 A 
ATOM     17  C   UNL     1       0.677   9.706  20.913  0.00  0.00    +0.000 A 
ATOM     18  C   UNL     1       1.178   8.982  19.831  0.00  0.00    +0.000 A 
ATOM     19  N   UNL     1       2.087   7.966  19.754  0.00  0.00    +0.000 N 
ATOM     20  H   UNL     1       2.561   7.541  20.537  0.00  0.00    +0.000 HD
ENDBRANCH  10  11
ENDBRANCH   1  10
BRANCH   1  21
ATOM     21  C   UNL     1       5.191   5.064  18.242  0.00  0.00    +0.000 C 
BRANCH  21  22
ATOM     22  C   UNL     1       5.702   4.813  16.826  0.00  0.00    +0.000 A 
ATOM     23  C   UNL     1       5.086   3.856  16.004  0.00  0.00    +0.000 A 
ATOM     24  C   UNL     1       5.489   3.658  14.681  0.00  0.00    +0.000 A 
ATOM     25  C   UNL     1       6.516   4.430  14.154  0.00  0.00    +0.000 A 
ATOM     26 CL   UNL     1       7.001   4.199  12.519  0.00  0.00    +0.000 Cl
ATOM     27  C   UNL     1       7.142   5.391  14.935  0.00  0.00    +0.000 A 
ATOM     28  C   UNL     1       6.732   5.585  16.263  0.00  0.00    +0.000 A 
ATOM     29 CL   UNL     1       7.552   6.822  17.159  0.00  0.00    +0.000 Cl
ENDBRANCH  21  22
ENDBRANCH   1  21
TORSDOF 5
ENDMDL
MODEL 5
REMARK VINA RESULT:      -8.5      2.848      5.280
REMARK  Name = 
REMARK  5 active torsions:
REMARK  status: ('A' for Active; 'I' for Inactive)
REMARK    1  A    between atoms: C_5  and  N_6
REMARK    2  A    between atoms: N_6  and  C_7
REMARK    3  A    between atoms: N_6  and  C_17
REMARK    4  A    between atoms: C_7  and  C_8
REMARK    5  A    between atoms: C_17  and  C_18
REMARK                            x       y       z     vdW  Elec       q    Type
REMARK                         _______ _______ _______ _____ _____    ______ ____
ROOT
ATOM      1  N   UNL     1       3.294   6.716  17.956  0.00  0.00    +0.000 N 
ENDROOT
BRANCH   1   6
ATOM      2  F   UNL     1       7.841   4.267  15.953  0.00  0.00    +0.000 F 
ATOM      3  C   UNL     1       6.832   4.978  16.473  0.00  0.00    +0.000 A 
ATOM      4  C   UNL     1       6.035   5.755  15.642  0.00  0.00    +0.000 A 
ATOM      5  C   UNL     1       4.918   6.419  16.161  0.00  0.00    +0.000 A 
ATOM      6  C   UNL     1       4.563   6.290  17.514  0.00  0.00    +0.000 A 
ATOM      7  C   UNL     1       5.484   5.586  18.339  0.00  0.00    +0.000 A 
ATOM      8  F   UNL     1       5.306   5.519  19.669  0.00  0.00    +0.000 F 
ATOM      9  C   UNL     1       6.584   4.913  17.830  0.00  0.00    +0.000 A 
ENDBRANCH   1   6
BRANCH   1  10
ATOM     10  C   UNL     1       3.035   8.156  17.831  0.00  0.00    +0.000 C 
BRANCH  10  11
ATOM     11  C   UNL     1       1.789   8.773  18.385  0.00  0.00    +0.000 A 
ATOM     12  N   UNL     1       0.867   9.499  17.786  0.00  0.00    +0.000 NA
ATOM     13  C   UNL     1       0.184  10.120  18.805  0.00  0.00    +0.000 A 
ATOM     14  C   UNL     1      -0.811  11.103  18.748  0.00  0.00    +0.000 A 
ATOM     15  C   UNL     1      -1.224  11.699  19.947  0.00  0.00    +0.000 A 
ATOM     16  C   UNL     1      -0.690  11.296  21.175  0.00  0.00    +0.000 A 
ATOM     17  C   UNL     1       0.248  10.263  21.257  0.00  0.00    +0.000 A 
ATOM     18  C   UNL     1       0.660   9.711  20.045  0.00  0.00    +0.000 A 
ATOM     19  N   UNL     1       1.578   8.747  19.745  0.00  0.00    +0.000 N 
ATOM     20  H   UNL     1       2.133   8.235  20.415  0.00  0.00    +0.000 HD
ENDBRANCH  10  11
ENDBRANCH   1  10
BRANCH   1  21
ATOM     21  C   UNL     1       2.141   5.798  17.841  0.00  0.00    +0.000 C 
BRANCH  21  22
ATOM     22  C   UNL     1       2.067   4.771  18.968  0.00  0.00    +0.000 A 
ATOM     23  C   UNL     1       1.784   5.173  20.283  0.00  0.00    +0.000 A 
ATOM     24  C   UNL     1       1.640   4.247  21.318  0.00  0.00    +0.000 A 
ATOM     25  C   UNL     1       1.768   2.890  21.047  0.00  0.00    +0.000 A 
ATOM     26 CL   UNL     1       1.573   1.746  22.318  0.00  0.00    +0.000 Cl
ATOM     27  C   UNL     1       2.040   2.456  19.757  0.00  0.00    +0.000 A 
ATOM     28  C   UNL     1       2.182   3.393  18.722  0.00  0.00    +0.000 A 
ATOM     29 CL   UNL     1       2.497   2.762  17.138  0.00  0.00    +0.000 Cl
ENDBRANCH  21  22
ENDBRANCH   1  21
TORSDOF 5
ENDMDL
MODEL 6
REMARK VINA RESULT:      -8.4      3.286      6.086
REMARK  Name = 
REMARK  5 active torsions:
REMARK  status: ('A' for Active; 'I' for Inactive)
REMARK    1  A    between atoms: C_5  and  N_6
REMARK    2  A    between atoms: N_6  and  C_7
REMARK    3  A    between atoms: N_6  and  C_17
REMARK    4  A    between atoms: C_7  and  C_8
REMARK    5  A    between atoms: C_17  and  C_18
REMARK                            x       y       z     vdW  Elec       q    Type
REMARK                         _______ _______ _______ _____ _____    ______ ____
ROOT
ATOM      1  N   UNL     1       5.053   4.075  17.944  0.00  0.00    +0.000 N 
ENDROOT
BRANCH   1   6
ATOM      2  F   UNL     1       7.633   5.082  13.147  0.00  0.00    +0.000 F 
ATOM      3  C   UNL     1       6.997   4.991  14.322  0.00  0.00    +0.000 A 
ATOM      4  C   UNL     1       5.619   4.809  14.348  0.00  0.00    +0.000 A 
ATOM      5  C   UNL     1       4.961   4.610  15.567  0.00  0.00    +0.000 A 
ATOM      6  C   UNL     1       5.675   4.559  16.776  0.00  0.00    +0.000 A 
ATOM      7  C   UNL     1       7.061   4.876  16.699  0.00  0.00    +0.000 A 
ATOM      8  F   UNL     1       7.805   4.986  17.812  0.00  0.00    +0.000 F 
ATOM      9  C   UNL     1       7.722   5.059  15.495  0.00  0.00    +0.000 A 
ENDBRANCH   1   6
BRANCH   1  10
ATOM     10  C   UNL     1       4.780   5.084  18.976  0.00  0.00    +0.000 C 
BRANCH  10  11
ATOM     11  C   UNL     1       3.629   6.031  18.851  0.00  0.00    +0.000 A 
ATOM     12  N   UNL     1       3.293   6.828  17.857  0.00  0.00    +0.000 NA
ATOM     13  C   UNL     1       2.420   7.736  18.406  0.00  0.00    +0.000 A 
ATOM     14  C   UNL     1       1.850   8.884  17.843  0.00  0.00    +0.000 A 
ATOM     15  C   UNL     1       1.121   9.741  18.679  0.00  0.00    +0.000 A 
ATOM     16  C   UNL     1       0.931   9.441  20.031  0.00  0.00    +0.000 A 
ATOM     17  C   UNL     1       1.427   8.261  20.591  0.00  0.00    +0.000 A 
ATOM     18  C   UNL     1       2.172   7.444  19.741  0.00  0.00    +0.000 A 
ATOM     19  N   UNL     1       2.839   6.272  19.953  0.00  0.00    +0.000 N 
ATOM     20  H   UNL     1       2.884   5.771  20.828  0.00  0.00    +0.000 HD
ENDBRANCH  10  11
ENDBRANCH   1  10
BRANCH   1  21
ATOM     21  C   UNL     1       4.133   2.922  17.850  0.00  0.00    +0.000 C 
BRANCH  21  22
ATOM     22  C   UNL     1       3.259   2.738  19.087  0.00  0.00    +0.000 A 
ATOM     23  C   UNL     1       3.812   2.270  20.290  0.00  0.00    +0.000 A 
ATOM     24  C   UNL     1       3.049   2.160  21.454  0.00  0.00    +0.000 A 
ATOM     25  C   UNL     1       1.711   2.533  21.435  0.00  0.00    +0.000 A 
ATOM     26 CL   UNL     1       0.774   2.416  22.874  0.00  0.00    +0.000 Cl
ATOM     27  C   UNL     1       1.132   3.008  20.266  0.00  0.00    +0.000 A 
ATOM     28  C   UNL     1       1.906   3.115  19.100  0.00  0.00    +0.000 A 
ATOM     29 CL   UNL     1       1.109   3.740  17.693  0.00  0.00    +0.000 Cl
ENDBRANCH  21  22
ENDBRANCH   1  21
TORSDOF 5
ENDMDL
MODEL 7
REMARK VINA RESULT:      -8.4      1.428      2.184
REMARK  Name = 
REMARK  5 active torsions:
REMARK  status: ('A' for Active; 'I' for Inactive)
REMARK    1  A    between atoms: C_5  and  N_6
REMARK    2  A    between atoms: N_6  and  C_7
REMARK    3  A    between atoms: N_6  and  C_17
REMARK    4  A    between atoms: C_7  and  C_8
REMARK    5  A    between atoms: C_17  and  C_18
REMARK                            x       y       z     vdW  Elec       q    Type
REMARK                         _______ _______ _______ _____ _____    ______ ____
ROOT
ATOM      1  N   UNL     1       4.479   4.898  18.373  0.00  0.00    +0.000 N 
ENDROOT
BRANCH   1   6
ATOM      2  F   UNL     1      -0.175   2.005  19.182  0.00  0.00    +0.000 F 
ATOM      3  C   UNL     1       1.001   2.583  18.908  0.00  0.00    +0.000 A 
ATOM      4  C   UNL     1       1.116   3.426  17.809  0.00  0.00    +0.000 A 
ATOM      5  C   UNL     1       2.312   4.114  17.574  0.00  0.00    +0.000 A 
ATOM      6  C   UNL     1       3.402   3.992  18.453  0.00  0.00    +0.000 A 
ATOM      7  C   UNL     1       3.269   3.022  19.486  0.00  0.00    +0.000 A 
ATOM      8  F   UNL     1       4.300   2.733  20.297  0.00  0.00    +0.000 F 
ATOM      9  C   UNL     1       2.083   2.348  19.734  0.00  0.00    +0.000 A 
ENDBRANCH   1   6
BRANCH   1  10
ATOM     10  C   UNL     1       4.343   6.112  19.187  0.00  0.00    +0.000 C 
BRANCH  10  11
ATOM     11  C   UNL     1       3.115   6.962  19.116  0.00  0.00    +0.000 A 
ATOM     12  N   UNL     1       2.696   7.766  18.159  0.00  0.00    +0.000 NA
ATOM     13  C   UNL     1       1.758   8.574  18.756  0.00  0.00    +0.000 A 
ATOM     14  C   UNL     1       1.084   9.691  18.248  0.00  0.00    +0.000 A 
ATOM     15  C   UNL     1       0.299  10.449  19.128  0.00  0.00    +0.000 A 
ATOM     16  C   UNL     1       0.157  10.080  20.469  0.00  0.00    +0.000 A 
ATOM     17  C   UNL     1       0.760   8.925  20.974  0.00  0.00    +0.000 A 
ATOM     18  C   UNL     1       1.558   8.210  20.082  0.00  0.00    +0.000 A 
ATOM     19  N   UNL     1       2.325   7.091  20.236  0.00  0.00    +0.000 N 
ATOM     20  H   UNL     1       2.427   6.561  21.090  0.00  0.00    +0.000 HD
ENDBRANCH  10  11
ENDBRANCH   1  10
BRANCH   1  21
ATOM     21  C   UNL     1       5.843   4.379  18.134  0.00  0.00    +0.000 C 
BRANCH  21  22
ATOM     22  C   UNL     1       6.291   4.493  16.680  0.00  0.00    +0.000 A 
ATOM     23  C   UNL     1       5.868   3.553  15.726  0.00  0.00    +0.000 A 
ATOM     24  C   UNL     1       6.206   3.675  14.376  0.00  0.00    +0.000 A 
ATOM     25  C   UNL     1       6.969   4.757  13.956  0.00  0.00    +0.000 A 
ATOM     26 CL   UNL     1       7.370   4.919  12.290  0.00  0.00    +0.000 Cl
ATOM     27  C   UNL     1       7.397   5.711  14.869  0.00  0.00    +0.000 A 
ATOM     28  C   UNL     1       7.054   5.581  16.224  0.00  0.00    +0.000 A 
ATOM     29 CL   UNL     1       7.610   6.829  17.291  0.00  0.00    +0.000 Cl
ENDBRANCH  21  22
ENDBRANCH   1  21
TORSDOF 5
ENDMDL
MODEL 8
REMARK VINA RESULT:      -8.4      2.963      7.283
REMARK  Name = 
REMARK  5 active torsions:
REMARK  status: ('A' for Active; 'I' for Inactive)
REMARK    1  A    between atoms: C_5  and  N_6
REMARK    2  A    between atoms: N_6  and  C_7
REMARK    3  A    between atoms: N_6  and  C_17
REMARK    4  A    between atoms: C_7  and  C_8
REMARK    5  A    between atoms: C_17  and  C_18
REMARK                            x       y       z     vdW  Elec       q    Type
REMARK                         _______ _______ _______ _____ _____    ______ ____
ROOT
ATOM      1  N   UNL     1       4.250   6.199  17.967  0.00  0.00    +0.000 N 
ENDROOT
BRANCH   1   6
ATOM      2  F   UNL     1       2.005   1.307  19.275  0.00  0.00    +0.000 F 
ATOM      3  C   UNL     1       2.640   2.412  18.864  0.00  0.00    +0.000 A 
ATOM      4  C   UNL     1       2.107   3.170  17.828  0.00  0.00    +0.000 A 
ATOM      5  C   UNL     1       2.708   4.379  17.462  0.00  0.00    +0.000 A 
ATOM      6  C   UNL     1       3.834   4.865  18.147  0.00  0.00    +0.000 A 
ATOM      7  C   UNL     1       4.408   3.988  19.110  0.00  0.00    +0.000 A 
ATOM      8  F   UNL     1       5.561   4.299  19.725  0.00  0.00    +0.000 F 
ATOM      9  C   UNL     1       3.810   2.796  19.489  0.00  0.00    +0.000 A 
ENDBRANCH   1   6
BRANCH   1  10
ATOM     10  C   UNL     1       5.618   6.370  17.461  0.00  0.00    +0.000 C 
BRANCH  10  11
ATOM     11  C   UNL     1       6.117   5.584  16.290  0.00  0.00    +0.000 A 
ATOM     12  N   UNL     1       7.200   5.751  15.558  0.00  0.00    +0.000 NA
ATOM     13  C   UNL     1       6.972   5.027  14.412  0.00  0.00    +0.000 A 
ATOM     14  C   UNL     1       7.727   4.950  13.236  0.00  0.00    +0.000 A 
ATOM     15  C   UNL     1       7.181   4.268  12.141  0.00  0.00    +0.000 A 
ATOM     16  C   UNL     1       5.934   3.643  12.228  0.00  0.00    +0.000 A 
ATOM     17  C   UNL     1       5.202   3.643  13.419  0.00  0.00    +0.000 A 
ATOM     18  C   UNL     1       5.758   4.355  14.481  0.00  0.00    +0.000 A 
ATOM     19  N   UNL     1       5.309   4.612  15.744  0.00  0.00    +0.000 N 
ATOM     20  H   UNL     1       4.439   4.284  16.136  0.00  0.00    +0.000 HD
ENDBRANCH  10  11
ENDBRANCH   1  10
BRANCH   1  21
ATOM     21  C   UNL     1       3.250   7.226  17.606  0.00  0.00    +0.000 C 
BRANCH  21  22
ATOM     22  C   UNL     1       2.377   7.665  18.779  0.00  0.00    +0.000 A 
ATOM     23  C   UNL     1       2.208   6.829  19.895  0.00  0.00    +0.000 A 
ATOM     24  C   UNL     1       1.473   7.236  21.010  0.00  0.00    +0.000 A 
ATOM     25  C   UNL     1       0.901   8.502  21.030  0.00  0.00    +0.000 A 
ATOM     26 CL   UNL     1       0.011   9.012  22.412  0.00  0.00    +0.000 Cl
ATOM     27  C   UNL     1       1.054   9.358  19.948  0.00  0.00    +0.000 A 
ATOM     28  C   UNL     1       1.795   8.941  18.831  0.00  0.00    +0.000 A 
ATOM     29 CL   UNL     1       1.955  10.082  17.535  0.00  0.00    +0.000 Cl
ENDBRANCH  21  22
ENDBRANCH   1  21
TORSDOF 5
ENDMDL
MODEL 9
REMARK VINA RESULT:      -8.3      1.757      2.776
REMARK  Name = 
REMARK  5 active torsions:
REMARK  status: ('A' for Active; 'I' for Inactive)
REMARK    1  A    between atoms: C_5  and  N_6
REMARK    2  A    between atoms: N_6  and  C_7
REMARK    3  A    between atoms: N_6  and  C_17
REMARK    4  A    between atoms: C_7  and  C_8
REMARK    5  A    between atoms: C_17  and  C_18
REMARK                            x       y       z     vdW  Elec       q    Type
REMARK                         _______ _______ _______ _____ _____    ______ ____
ROOT
ATOM      1  N   UNL     1       3.464   3.846  17.791  0.00  0.00    +0.000 N 
ENDROOT
BRANCH   1   6
ATOM      2  F   UNL     1       0.767   2.502  22.439  0.00  0.00    +0.000 F 
ATOM      3  C   UNL     1       1.422   2.677  21.284  0.00  0.00    +0.000 A 
ATOM      4  C   UNL     1       0.712   2.971  20.126  0.00  0.00    +0.000 A 
ATOM      5  C   UNL     1       1.395   3.256  18.938  0.00  0.00    +0.000 A 
ATOM      6  C   UNL     1       2.798   3.282  18.898  0.00  0.00    +0.000 A 
ATOM      7  C   UNL     1       3.467   2.850  20.078  0.00  0.00    +0.000 A 
ATOM      8  F   UNL     1       4.803   2.710  20.100  0.00  0.00    +0.000 F 
ATOM      9  C   UNL     1       2.799   2.581  21.262  0.00  0.00    +0.000 A 
ENDBRANCH   1   6
BRANCH   1  10
ATOM     10  C   UNL     1       2.953   5.149  17.346  0.00  0.00    +0.000 C 
BRANCH  10  11
ATOM     11  C   UNL     1       2.744   6.273  18.311  0.00  0.00    +0.000 A 
ATOM     12  N   UNL     1       2.543   6.244  19.613  0.00  0.00    +0.000 NA
ATOM     13  C   UNL     1       2.031   7.481  19.924  0.00  0.00    +0.000 A 
ATOM     14  C   UNL     1       1.518   7.960  21.134  0.00  0.00    +0.000 A 
ATOM     15  C   UNL     1       0.893   9.214  21.141  0.00  0.00    +0.000 A 
ATOM     16  C   UNL     1       0.819   9.990  19.979  0.00  0.00    +0.000 A 
ATOM     17  C   UNL     1       1.395   9.561  18.780  0.00  0.00    +0.000 A 
ATOM     18  C   UNL     1       1.983   8.296  18.800  0.00  0.00    +0.000 A 
ATOM     19  N   UNL     1       2.578   7.550  17.824  0.00  0.00    +0.000 N 
ATOM     20  H   UNL     1       2.706   7.833  16.863  0.00  0.00    +0.000 HD
ENDBRANCH  10  11
ENDBRANCH   1  10
BRANCH   1  21
ATOM     21  C   UNL     1       4.903   3.569  17.594  0.00  0.00    +0.000 C 
BRANCH  21  22
ATOM     22  C   UNL     1       5.792   4.792  17.798  0.00  0.00    +0.000 A 
ATOM     23  C   UNL     1       6.328   5.082  19.063  0.00  0.00    +0.000 A 
ATOM     24  C   UNL     1       7.201   6.155  19.261  0.00  0.00    +0.000 A 
ATOM     25  C   UNL     1       7.563   6.952  18.182  0.00  0.00    +0.000 A 
ATOM     26 CL   UNL     1       8.653   8.263  18.421  0.00  0.00    +0.000 Cl
ATOM     27  C   UNL     1       7.059   6.690  16.916  0.00  0.00    +0.000 A 
ATOM     28  C   UNL     1       6.182   5.611  16.726  0.00  0.00    +0.000 A 
ATOM     29 CL   UNL     1       5.620   5.341  15.108  0.00  0.00    +0.000 Cl
ENDBRANCH  21  22
ENDBRANCH   1  21
TORSDOF 5
ENDMDL
