MODEL 1
REMARK VINA RESULT:      -8.8      0.000      0.000
REMARK  Name = 
REMARK  6 active torsions:
REMARK  status: ('A' for Active; 'I' for Inactive)
REMARK    1  A    between atoms: C_1  and  C_2
REMARK    2  A    between atoms: C_5  and  C_6
REMARK    3  A    between atoms: C_9  and  C_10
REMARK    4  A    between atoms: C_11  and  C_12
REMARK    5  A    between atoms: N_14  and  O_15
REMARK    6  A    between atoms: C_16  and  C_17
REMARK                            x       y       z     vdW  Elec       q    Type
REMARK                         _______ _______ _______ _____ _____    ______ ____
ROOT
ATOM      1  C   UNL     1       3.337   5.693  19.032  0.00  0.00    +0.000 C 
ATOM      2  C   UNL     1       2.805   4.332  18.643  0.00  0.00    +0.000 C 
ATOM      3  C   UNL     1       3.347   5.252  17.571  0.00  0.00    +0.000 C 
ENDROOT
BRANCH   1   7
ATOM      4  C   UNL     1       0.996   9.172  20.213  0.00  0.00    +0.000 A 
ATOM      5  C   UNL     1       1.124   8.077  21.076  0.00  0.00    +0.000 A 
ATOM      6  C   UNL     1       1.832   6.930  20.683  0.00  0.00    +0.000 A 
ATOM      7  C   UNL     1       2.448   6.850  19.427  0.00  0.00    +0.000 A 
ATOM      8  C   UNL     1       2.290   7.949  18.564  0.00  0.00    +0.000 A 
ATOM      9  C   UNL     1       1.577   9.089  18.944  0.00  0.00    +0.000 A 
BRANCH   4  14
ATOM     10  C   UNL     1      -2.448  12.761  20.319  0.00  0.00    +0.000 C 
ATOM     11  C   UNL     1      -1.235  12.007  20.693  0.00  0.00    +0.000 A 
ATOM     12  C   UNL     1      -0.281  12.194  21.667  0.00  0.00    +0.000 A 
ATOM     13  N   UNL     1       0.646  11.180  21.645  0.00  0.00    +0.000 NA
ATOM     14  C   UNL     1       0.301  10.385  20.649  0.00  0.00    +0.000 A 
ATOM     15  N   UNL     1      -0.843  10.860  20.050  0.00  0.00    +0.000 N 
ATOM     16  H   UNL     1      -1.324  10.416  19.283  0.00  0.00    +0.000 HD
ENDBRANCH   4  14
ENDBRANCH   1   7
BRANCH   3  17
ATOM     17  C   UNL     1       4.676   5.114  16.870  0.00  0.00    +0.000 A 
ATOM     18  C   UNL     1       4.902   4.089  15.940  0.00  0.00    +0.000 A 
ATOM     19  C   UNL     1       6.160   3.899  15.361  0.00  0.00    +0.000 A 
ATOM     20  C   UNL     1       7.217   4.741  15.695  0.00  0.00    +0.000 A 
ATOM     21  C   UNL     1       6.995   5.821  16.541  0.00  0.00    +0.000 A 
ATOM     22  C   UNL     1       5.730   6.018  17.098  0.00  0.00    +0.000 A 
ENDBRANCH   3  17
BRANCH   2  23
ATOM     23  C   UNL     1       3.426   3.089  19.193  0.00  0.00    +0.000 C 
ATOM     24  O   UNL     1       2.718   2.101  19.382  0.00  0.00    +0.000 OA
ATOM     25  N   UNL     1       4.757   3.080  19.502  0.00  0.00    +0.000 N 
ATOM     26  H   UNL     1       5.424   3.796  19.221  0.00  0.00    +0.000 HD
BRANCH  25  27
ATOM     27  O   UNL     1       5.282   1.859  19.991  0.00  0.00    +0.000 OA
ATOM     28  H   UNL     1       5.669   1.457  19.184  0.00  0.00    +0.000 HD
ENDBRANCH  25  27
ENDBRANCH   2  23
TORSDOF 5
ENDMDL
MODEL 2
REMARK VINA RESULT:      -8.7      0.537      1.313
REMARK  Name = 
REMARK  6 active torsions:
REMARK  status: ('A' for Active; 'I' for Inactive)
REMARK    1  A    between atoms: C_1  and  C_2
REMARK    2  A    between atoms: C_5  and  C_6
REMARK    3  A    between atoms: C_9  and  C_10
REMARK    4  A    between atoms: C_11  and  C_12
REMARK    5  A    between atoms: N_14  and  O_15
REMARK    6  A    between atoms: C_16  and  C_17
REMARK                            x       y       z     vdW  Elec       q    Type
REMARK                         _______ _______ _______ _____ _____    ______ ____
ROOT
ATOM      1  C   UNL     1       3.393   5.615  18.958  0.00  0.00    +0.000 C 
ATOM      2  C   UNL     1       2.858   4.251  18.582  0.00  0.00    +0.000 C 
ATOM      3  C   UNL     1       3.422   5.152  17.505  0.00  0.00    +0.000 C 
ENDROOT
BRANCH   1   7
ATOM      4  C   UNL     1       1.056   9.125  20.055  0.00  0.00    +0.000 A 
ATOM      5  C   UNL     1       1.151   8.035  20.929  0.00  0.00    +0.000 A 
ATOM      6  C   UNL     1       1.858   6.879  20.562  0.00  0.00    +0.000 A 
ATOM      7  C   UNL     1       2.505   6.784  19.322  0.00  0.00    +0.000 A 
ATOM      8  C   UNL     1       2.380   7.877  18.448  0.00  0.00    +0.000 A 
ATOM      9  C   UNL     1       1.668   9.027  18.802  0.00  0.00    +0.000 A 
BRANCH   4  14
ATOM     10  C   UNL     1      -1.265  12.367  23.030  0.00  0.00    +0.000 C 
ATOM     11  C   UNL     1      -0.693  11.802  21.792  0.00  0.00    +0.000 A 
ATOM     12  C   UNL     1      -0.594  12.280  20.505  0.00  0.00    +0.000 A 
ATOM     13  N   UNL     1       0.075  11.387  19.703  0.00  0.00    +0.000 NA
ATOM     14  C   UNL     1       0.362  10.347  20.464  0.00  0.00    +0.000 A 
ATOM     15  N   UNL     1      -0.090  10.571  21.745  0.00  0.00    +0.000 N 
ATOM     16  H   UNL     1       0.031   9.939  22.521  0.00  0.00    +0.000 HD
ENDBRANCH   4  14
ENDBRANCH   1   7
BRANCH   3  17
ATOM     17  C   UNL     1       4.760   4.995  16.827  0.00  0.00    +0.000 A 
ATOM     18  C   UNL     1       5.821   5.868  17.105  0.00  0.00    +0.000 A 
ATOM     19  C   UNL     1       7.030   5.786  16.408  0.00  0.00    +0.000 A 
ATOM     20  C   UNL     1       7.206   4.817  15.425  0.00  0.00    +0.000 A 
ATOM     21  C   UNL     1       6.205   3.879  15.197  0.00  0.00    +0.000 A 
ATOM     22  C   UNL     1       5.008   3.954  15.912  0.00  0.00    +0.000 A 
ENDBRANCH   3  17
BRANCH   2  23
ATOM     23  C   UNL     1       3.462   3.014  19.161  0.00  0.00    +0.000 C 
ATOM     24  O   UNL     1       2.755   2.018  19.312  0.00  0.00    +0.000 OA
ATOM     25  N   UNL     1       4.776   3.016  19.536  0.00  0.00    +0.000 N 
ATOM     26  H   UNL     1       5.450   3.739  19.291  0.00  0.00    +0.000 HD
BRANCH  25  27
ATOM     27  O   UNL     1       5.288   1.800  20.048  0.00  0.00    +0.000 OA
ATOM     28  H   UNL     1       5.305   1.226  19.253  0.00  0.00    +0.000 HD
ENDBRANCH  25  27
ENDBRANCH   2  23
TORSDOF 5
ENDMDL
MODEL 3
REMARK VINA RESULT:      -8.6      0.537      1.653
REMARK  Name = 
REMARK  6 active torsions:
REMARK  status: ('A' for Active; 'I' for Inactive)
REMARK    1  A    between atoms: C_1  and  C_2
REMARK    2  A    between atoms: C_5  and  C_6
REMARK    3  A    between atoms: C_9  and  C_10
REMARK    4  A    between atoms: C_11  and  C_12
REMARK    5  A    between atoms: N_14  and  O_15
REMARK    6  A    between atoms: C_16  and  C_17
REMARK                            x       y       z     vdW  Elec       q    Type
REMARK                         _______ _______ _______ _____ _____    ______ ____
ROOT
ATOM      1  C   UNL     1       3.434   5.760  19.035  0.00  0.00    +0.000 C 
ATOM      2  C   UNL     1       2.816   4.423  18.696  0.00  0.00    +0.000 C 
ATOM      3  C   UNL     1       3.382   5.283  17.586  0.00  0.00    +0.000 C 
ENDROOT
BRANCH   1   7
ATOM      4  C   UNL     1       0.870   9.116  20.108  0.00  0.00    +0.000 A 
ATOM      5  C   UNL     1       1.514   9.085  18.865  0.00  0.00    +0.000 A 
ATOM      6  C   UNL     1       2.383   8.034  18.532  0.00  0.00    +0.000 A 
ATOM      7  C   UNL     1       2.621   6.976  19.420  0.00  0.00    +0.000 A 
ATOM      8  C   UNL     1       1.985   7.035  20.672  0.00  0.00    +0.000 A 
ATOM      9  C   UNL     1       1.127   8.084  21.016  0.00  0.00    +0.000 A 
BRANCH   4  14
ATOM     10  C   UNL     1      -1.728  12.336  22.871  0.00  0.00    +0.000 C 
ATOM     11  C   UNL     1      -1.254  11.627  21.666  0.00  0.00    +0.000 A 
ATOM     12  C   UNL     1      -1.551  11.755  20.328  0.00  0.00    +0.000 A 
ATOM     13  N   UNL     1      -0.805  10.880  19.576  0.00  0.00    +0.000 NA
ATOM     14  C   UNL     1      -0.074  10.187  20.429  0.00  0.00    +0.000 A 
ATOM     15  N   UNL     1      -0.323  10.621  21.712  0.00  0.00    +0.000 N 
ATOM     16  H   UNL     1       0.130  10.269  22.541  0.00  0.00    +0.000 HD
ENDBRANCH   4  14
ENDBRANCH   1   7
BRANCH   3  17
ATOM     17  C   UNL     1       4.682   5.052  16.858  0.00  0.00    +0.000 A 
ATOM     18  C   UNL     1       5.797   5.871  17.086  0.00  0.00    +0.000 A 
ATOM     19  C   UNL     1       6.971   5.721  16.344  0.00  0.00    +0.000 A 
ATOM     20  C   UNL     1       7.058   4.737  15.363  0.00  0.00    +0.000 A 
ATOM     21  C   UNL     1       6.001   3.851  15.183  0.00  0.00    +0.000 A 
ATOM     22  C   UNL     1       4.839   3.993  15.943  0.00  0.00    +0.000 A 
ENDBRANCH   3  17
BRANCH   2  23
ATOM     23  C   UNL     1       3.380   3.161  19.264  0.00  0.00    +0.000 C 
ATOM     24  O   UNL     1       2.614   2.242  19.555  0.00  0.00    +0.000 OA
ATOM     25  N   UNL     1       4.726   3.059  19.476  0.00  0.00    +0.000 N 
ATOM     26  H   UNL     1       5.423   3.706  19.111  0.00  0.00    +0.000 HD
BRANCH  25  27
ATOM     27  O   UNL     1       5.192   1.825  19.988  0.00  0.00    +0.000 OA
ATOM     28  H   UNL     1       4.456   1.547  20.573  0.00  0.00    +0.000 HD
ENDBRANCH  25  27
ENDBRANCH   2  23
TORSDOF 5
ENDMDL
MODEL 4
REMARK VINA RESULT:      -8.6      0.927      1.029
REMARK  Name = 
REMARK  6 active torsions:
REMARK  status: ('A' for Active; 'I' for Inactive)
REMARK    1  A    between atoms: C_1  and  C_2
REMARK    2  A    between atoms: C_5  and  C_6
REMARK    3  A    between atoms: C_9  and  C_10
REMARK    4  A    between atoms: C_11  and  C_12
REMARK    5  A    between atoms: N_14  and  O_15
REMARK    6  A    between atoms: C_16  and  C_17
REMARK                            x       y       z     vdW  Elec       q    Type
REMARK                         _______ _______ _______ _____ _____    ______ ____
ROOT
ATOM      1  C   UNL     1       3.903   5.876  18.603  0.00  0.00    +0.000 C 
ATOM      2  C   UNL     1       3.638   4.388  18.646  0.00  0.00    +0.000 C 
ATOM      3  C   UNL     1       3.728   5.089  17.308  0.00  0.00    +0.000 C 
ENDROOT
BRANCH   1   7
ATOM      4  C   UNL     1       1.105   9.042  19.670  0.00  0.00    +0.000 A 
ATOM      5  C   UNL     1       1.358   7.990  20.558  0.00  0.00    +0.000 A 
ATOM      6  C   UNL     1       2.217   6.938  20.202  0.00  0.00    +0.000 A 
ATOM      7  C   UNL     1       2.862   6.915  18.958  0.00  0.00    +0.000 A 
ATOM      8  C   UNL     1       2.580   7.967  18.069  0.00  0.00    +0.000 A 
ATOM      9  C   UNL     1       1.716   9.011  18.412  0.00  0.00    +0.000 A 
BRANCH   4  14
ATOM     10  C   UNL     1      -2.643  12.308  19.489  0.00  0.00    +0.000 C 
ATOM     11  C   UNL     1      -1.424  11.639  19.985  0.00  0.00    +0.000 A 
ATOM     12  C   UNL     1      -0.625  11.848  21.086  0.00  0.00    +0.000 A 
ATOM     13  N   UNL     1       0.387  10.921  21.138  0.00  0.00    +0.000 NA
ATOM     14  C   UNL     1       0.250  10.161  20.067  0.00  0.00    +0.000 A 
ATOM     15  N   UNL     1      -0.847  10.571  19.344  0.00  0.00    +0.000 N 
ATOM     16  H   UNL     1      -1.181  10.135  18.499  0.00  0.00    +0.000 HD
ENDBRANCH   4  14
ENDBRANCH   1   7
BRANCH   3  17
ATOM     17  C   UNL     1       4.888   5.021  16.345  0.00  0.00    +0.000 A 
ATOM     18  C   UNL     1       4.897   4.104  15.285  0.00  0.00    +0.000 A 
ATOM     19  C   UNL     1       6.011   3.971  14.450  0.00  0.00    +0.000 A 
ATOM     20  C   UNL     1       7.135   4.765  14.654  0.00  0.00    +0.000 A 
ATOM     21  C   UNL     1       7.115   5.747  15.638  0.00  0.00    +0.000 A 
ATOM     22  C   UNL     1       5.991   5.888  16.454  0.00  0.00    +0.000 A 
ENDBRANCH   3  17
BRANCH   2  23
ATOM     23  C   UNL     1       4.628   3.459  19.270  0.00  0.00    +0.000 C 
ATOM     24  O   UNL     1       5.742   3.888  19.571  0.00  0.00    +0.000 OA
ATOM     25  N   UNL     1       4.293   2.150  19.468  0.00  0.00    +0.000 N 
ATOM     26  H   UNL     1       3.350   1.773  19.397  0.00  0.00    +0.000 HD
BRANCH  25  27
ATOM     27  O   UNL     1       5.270   1.336  20.091  0.00  0.00    +0.000 OA
ATOM     28  H   UNL     1       5.046   0.442  19.757  0.00  0.00    +0.000 HD
ENDBRANCH  25  27
ENDBRANCH   2  23
TORSDOF 5
ENDMDL
MODEL 5
REMARK VINA RESULT:      -8.6      0.979      1.374
REMARK  Name = 
REMARK  6 active torsions:
REMARK  status: ('A' for Active; 'I' for Inactive)
REMARK    1  A    between atoms: C_1  and  C_2
REMARK    2  A    between atoms: C_5  and  C_6
REMARK    3  A    between atoms: C_9  and  C_10
REMARK    4  A    between atoms: C_11  and  C_12
REMARK    5  A    between atoms: N_14  and  O_15
REMARK    6  A    between atoms: C_16  and  C_17
REMARK                            x       y       z     vdW  Elec       q    Type
REMARK                         _______ _______ _______ _____ _____    ______ ____
ROOT
ATOM      1  C   UNL     1       3.926   5.901  18.559  0.00  0.00    +0.000 C 
ATOM      2  C   UNL     1       3.665   4.412  18.614  0.00  0.00    +0.000 C 
ATOM      3  C   UNL     1       3.761   5.102  17.270  0.00  0.00    +0.000 C 
ENDROOT
BRANCH   1   7
ATOM      4  C   UNL     1       1.115   9.066  19.590  0.00  0.00    +0.000 A 
ATOM      5  C   UNL     1       1.343   8.005  20.474  0.00  0.00    +0.000 A 
ATOM      6  C   UNL     1       2.206   6.953  20.128  0.00  0.00    +0.000 A 
ATOM      7  C   UNL     1       2.881   6.940  18.900  0.00  0.00    +0.000 A 
ATOM      8  C   UNL     1       2.624   8.002  18.015  0.00  0.00    +0.000 A 
ATOM      9  C   UNL     1       1.757   9.045  18.348  0.00  0.00    +0.000 A 
BRANCH   4  14
ATOM     10  C   UNL     1      -0.676  12.804  22.342  0.00  0.00    +0.000 C 
ATOM     11  C   UNL     1      -0.563  11.856  21.215  0.00  0.00    +0.000 A 
ATOM     12  C   UNL     1      -1.273  11.705  20.046  0.00  0.00    +0.000 A 
ATOM     13  N   UNL     1      -0.749  10.689  19.284  0.00  0.00    +0.000 NA
ATOM     14  C   UNL     1       0.255  10.185  19.978  0.00  0.00    +0.000 A 
ATOM     15  N   UNL     1       0.397  10.877  21.159  0.00  0.00    +0.000 N 
ATOM     16  H   UNL     1       1.109  10.703  21.852  0.00  0.00    +0.000 HD
ENDBRANCH   4  14
ENDBRANCH   1   7
BRANCH   3  17
ATOM     17  C   UNL     1       4.926   5.028  16.315  0.00  0.00    +0.000 A 
ATOM     18  C   UNL     1       4.871   4.227  15.165  0.00  0.00    +0.000 A 
ATOM     19  C   UNL     1       5.982   4.081  14.330  0.00  0.00    +0.000 A 
ATOM     20  C   UNL     1       7.170   4.745  14.623  0.00  0.00    +0.000 A 
ATOM     21  C   UNL     1       7.221   5.618  15.704  0.00  0.00    +0.000 A 
ATOM     22  C   UNL     1       6.100   5.776  16.522  0.00  0.00    +0.000 A 
ENDBRANCH   3  17
BRANCH   2  23
ATOM     23  C   UNL     1       4.654   3.492  19.252  0.00  0.00    +0.000 C 
ATOM     24  O   UNL     1       5.774   3.920  19.532  0.00  0.00    +0.000 OA
ATOM     25  N   UNL     1       4.312   2.190  19.485  0.00  0.00    +0.000 N 
ATOM     26  H   UNL     1       3.365   1.819  19.432  0.00  0.00    +0.000 HD
BRANCH  25  27
ATOM     27  O   UNL     1       5.288   1.385  20.119  0.00  0.00    +0.000 OA
ATOM     28  H   UNL     1       5.581   1.953  20.863  0.00  0.00    +0.000 HD
ENDBRANCH  25  27
ENDBRANCH   2  23
TORSDOF 5
ENDMDL
MODEL 6
REMARK VINA RESULT:      -8.5      1.272      1.919
REMARK  Name = 
REMARK  6 active torsions:
REMARK  status: ('A' for Active; 'I' for Inactive)
REMARK    1  A    between atoms: C_1  and  C_2
REMARK    2  A    between atoms: C_5  and  C_6
REMARK    3  A    between atoms: C_9  and  C_10
REMARK    4  A    between atoms: C_11  and  C_12
REMARK    5  A    between atoms: N_14  and  O_15
REMARK    6  A    between atoms: C_16  and  C_17
REMARK                            x       y       z     vdW  Elec       q    Type
REMARK                         _______ _______ _______ _____ _____    ______ ____
ROOT
ATOM      1  C   UNL     1       2.786   5.955  18.980  0.00  0.00    +0.000 C 
ATOM      2  C   UNL     1       2.208   5.161  17.831  0.00  0.00    +0.000 C 
ATOM      3  C   UNL     1       3.466   5.975  17.614  0.00  0.00    +0.000 C 
ENDROOT
BRANCH   1   7
ATOM      4  C   UNL     1       0.777   9.532  20.448  0.00  0.00    +0.000 A 
ATOM      5  C   UNL     1       1.275   9.484  19.141  0.00  0.00    +0.000 A 
ATOM      6  C   UNL     1       1.970   8.357  18.676  0.00  0.00    +0.000 A 
ATOM      7  C   UNL     1       2.172   7.238  19.496  0.00  0.00    +0.000 A 
ATOM      8  C   UNL     1       1.686   7.310  20.813  0.00  0.00    +0.000 A 
ATOM      9  C   UNL     1       1.003   8.435  21.285  0.00  0.00    +0.000 A 
BRANCH   4  14
ATOM     10  C   UNL     1      -2.804  12.984  20.539  0.00  0.00    +0.000 C 
ATOM     11  C   UNL     1      -1.590  12.250  20.949  0.00  0.00    +0.000 A 
ATOM     12  C   UNL     1      -0.711  12.407  21.996  0.00  0.00    +0.000 A 
ATOM     13  N   UNL     1       0.254  11.429  21.974  0.00  0.00    +0.000 NA
ATOM     14  C   UNL     1       0.008  10.689  20.910  0.00  0.00    +0.000 A 
ATOM     15  N   UNL     1      -1.112  11.161  20.264  0.00  0.00    +0.000 N 
ATOM     16  H   UNL     1      -1.523  10.751  19.439  0.00  0.00    +0.000 HD
ENDBRANCH   4  14
ENDBRANCH   1   7
BRANCH   3  17
ATOM     17  C   UNL     1       4.868   5.429  17.500  0.00  0.00    +0.000 A 
ATOM     18  C   UNL     1       5.786   5.565  18.551  0.00  0.00    +0.000 A 
ATOM     19  C   UNL     1       7.113   5.147  18.413  0.00  0.00    +0.000 A 
ATOM     20  C   UNL     1       7.544   4.574  17.221  0.00  0.00    +0.000 A 
ATOM     21  C   UNL     1       6.632   4.343  16.198  0.00  0.00    +0.000 A 
ATOM     22  C   UNL     1       5.303   4.742  16.352  0.00  0.00    +0.000 A 
ENDBRANCH   3  17
BRANCH   2  23
ATOM     23  C   UNL     1       2.074   3.676  17.926  0.00  0.00    +0.000 C 
ATOM     24  O   UNL     1       2.251   2.995  16.917  0.00  0.00    +0.000 OA
ATOM     25  N   UNL     1       1.732   3.105  19.119  0.00  0.00    +0.000 N 
ATOM     26  H   UNL     1       1.733   3.586  20.016  0.00  0.00    +0.000 HD
BRANCH  25  27
ATOM     27  O   UNL     1       1.653   1.691  19.141  0.00  0.00    +0.000 OA
ATOM     28  H   UNL     1       1.902   1.451  18.224  0.00  0.00    +0.000 HD
ENDBRANCH  25  27
ENDBRANCH   2  23
TORSDOF 5
ENDMDL
MODEL 7
REMARK VINA RESULT:      -8.4      0.708      1.471
REMARK  Name = 
REMARK  6 active torsions:
REMARK  status: ('A' for Active; 'I' for Inactive)
REMARK    1  A    between atoms: C_1  and  C_2
REMARK    2  A    between atoms: C_5  and  C_6
REMARK    3  A    between atoms: C_9  and  C_10
REMARK    4  A    between atoms: C_11  and  C_12
REMARK    5  A    between atoms: N_14  and  O_15
REMARK    6  A    between atoms: C_16  and  C_17
REMARK                            x       y       z     vdW  Elec       q    Type
REMARK                         _______ _______ _______ _____ _____    ______ ____
ROOT
ATOM      1  C   UNL     1       3.657   5.429  18.759  0.00  0.00    +0.000 C 
ATOM      2  C   UNL     1       3.021   4.099  18.426  0.00  0.00    +0.000 C 
ATOM      3  C   UNL     1       3.556   4.968  17.309  0.00  0.00    +0.000 C 
ENDROOT
BRANCH   1   7
ATOM      4  C   UNL     1       1.147   8.794  19.929  0.00  0.00    +0.000 A 
ATOM      5  C   UNL     1       1.831   8.810  18.707  0.00  0.00    +0.000 A 
ATOM      6  C   UNL     1       2.683   7.754  18.345  0.00  0.00    +0.000 A 
ATOM      7  C   UNL     1       2.863   6.645  19.183  0.00  0.00    +0.000 A 
ATOM      8  C   UNL     1       2.188   6.656  20.416  0.00  0.00    +0.000 A 
ATOM      9  C   UNL     1       1.347   7.709  20.787  0.00  0.00    +0.000 A 
BRANCH   4  14
ATOM     10  C   UNL     1      -2.435  12.198  19.352  0.00  0.00    +0.000 C 
ATOM     11  C   UNL     1      -1.379  11.412  20.020  0.00  0.00    +0.000 A 
ATOM     12  C   UNL     1      -0.881  11.415  21.303  0.00  0.00    +0.000 A 
ATOM     13  N   UNL     1       0.086  10.451  21.455  0.00  0.00    +0.000 NA
ATOM     14  C   UNL     1       0.220   9.872  20.276  0.00  0.00    +0.000 A 
ATOM     15  N   UNL     1      -0.661  10.433  19.380  0.00  0.00    +0.000 N 
ATOM     16  H   UNL     1      -0.772  10.147  18.419  0.00  0.00    +0.000 HD
ENDBRANCH   4  14
ENDBRANCH   1   7
BRANCH   3  17
ATOM     17  C   UNL     1       4.831   4.737  16.537  0.00  0.00    +0.000 A 
ATOM     18  C   UNL     1       6.085   4.966  17.122  0.00  0.00    +0.000 A 
ATOM     19  C   UNL     1       7.264   4.847  16.382  0.00  0.00    +0.000 A 
ATOM     20  C   UNL     1       7.212   4.484  15.039  0.00  0.00    +0.000 A 
ATOM     21  C   UNL     1       5.991   4.160  14.460  0.00  0.00    +0.000 A 
ATOM     22  C   UNL     1       4.819   4.260  15.213  0.00  0.00    +0.000 A 
ENDBRANCH   3  17
BRANCH   2  23
ATOM     23  C   UNL     1       3.595   2.828  18.962  0.00  0.00    +0.000 C 
ATOM     24  O   UNL     1       2.972   1.778  18.808  0.00  0.00    +0.000 OA
ATOM     25  N   UNL     1       4.783   2.856  19.637  0.00  0.00    +0.000 N 
ATOM     26  H   UNL     1       5.422   3.649  19.656  0.00  0.00    +0.000 HD
BRANCH  25  27
ATOM     27  O   UNL     1       5.281   1.611  20.090  0.00  0.00    +0.000 OA
ATOM     28  H   UNL     1       5.609   1.828  20.988  0.00  0.00    +0.000 HD
ENDBRANCH  25  27
ENDBRANCH   2  23
TORSDOF 5
ENDMDL
MODEL 8
REMARK VINA RESULT:      -8.4      1.082      1.701
REMARK  Name = 
REMARK  6 active torsions:
REMARK  status: ('A' for Active; 'I' for Inactive)
REMARK    1  A    between atoms: C_1  and  C_2
REMARK    2  A    between atoms: C_5  and  C_6
REMARK    3  A    between atoms: C_9  and  C_10
REMARK    4  A    between atoms: C_11  and  C_12
REMARK    5  A    between atoms: N_14  and  O_15
REMARK    6  A    between atoms: C_16  and  C_17
REMARK                            x       y       z     vdW  Elec       q    Type
REMARK                         _______ _______ _______ _____ _____    ______ ____
ROOT
ATOM      1  C   UNL     1       2.993   6.143  19.077  0.00  0.00    +0.000 C 
ATOM      2  C   UNL     1       2.345   4.957  18.398  0.00  0.00    +0.000 C 
ATOM      3  C   UNL     1       3.207   5.900  17.586  0.00  0.00    +0.000 C 
ENDROOT
BRANCH   1   7
ATOM      4  C   UNL     1       0.562   9.557  20.268  0.00  0.00    +0.000 A 
ATOM      5  C   UNL     1       1.169   9.524  19.007  0.00  0.00    +0.000 A 
ATOM      6  C   UNL     1       1.997   8.453  18.634  0.00  0.00    +0.000 A 
ATOM      7  C   UNL     1       2.228   7.376  19.501  0.00  0.00    +0.000 A 
ATOM      8  C   UNL     1       1.630   7.436  20.773  0.00  0.00    +0.000 A 
ATOM      9  C   UNL     1       0.815   8.505  21.154  0.00  0.00    +0.000 A 
BRANCH   4  14
ATOM     10  C   UNL     1      -2.184  12.545  23.146  0.00  0.00    +0.000 C 
ATOM     11  C   UNL     1      -1.586  11.988  21.915  0.00  0.00    +0.000 A 
ATOM     12  C   UNL     1      -1.670  12.348  20.590  0.00  0.00    +0.000 A 
ATOM     13  N   UNL     1      -0.884  11.533  19.812  0.00  0.00    +0.000 NA
ATOM     14  C   UNL     1      -0.341  10.651  20.630  0.00  0.00    +0.000 A 
ATOM     15  N   UNL     1      -0.747  10.903  21.921  0.00  0.00    +0.000 N 
ATOM     16  H   UNL     1      -0.450  10.386  22.734  0.00  0.00    +0.000 HD
ENDBRANCH   4  14
ENDBRANCH   1   7
BRANCH   3  17
ATOM     17  C   UNL     1       4.607   5.624  17.095  0.00  0.00    +0.000 A 
ATOM     18  C   UNL     1       4.898   4.478  16.343  0.00  0.00    +0.000 A 
ATOM     19  C   UNL     1       6.209   4.170  15.969  0.00  0.00    +0.000 A 
ATOM     20  C   UNL     1       7.256   5.012  16.332  0.00  0.00    +0.000 A 
ATOM     21  C   UNL     1       6.982   6.203  16.996  0.00  0.00    +0.000 A 
ATOM     22  C   UNL     1       5.667   6.515  17.346  0.00  0.00    +0.000 A 
ENDBRANCH   3  17
BRANCH   2  23
ATOM     23  C   UNL     1       2.663   3.565  18.838  0.00  0.00    +0.000 C 
ATOM     24  O   UNL     1       3.238   3.394  19.913  0.00  0.00    +0.000 OA
ATOM     25  N   UNL     1       2.336   2.512  18.031  0.00  0.00    +0.000 N 
ATOM     26  H   UNL     1       1.722   2.568  17.221  0.00  0.00    +0.000 HD
BRANCH  25  27
ATOM     27  O   UNL     1       2.640   1.221  18.526  0.00  0.00    +0.000 OA
ATOM     28  H   UNL     1       3.597   1.139  18.332  0.00  0.00    +0.000 HD
ENDBRANCH  25  27
ENDBRANCH   2  23
TORSDOF 5
ENDMDL
MODEL 9
REMARK VINA RESULT:      -8.3      1.442      2.113
REMARK  Name = 
REMARK  6 active torsions:
REMARK  status: ('A' for Active; 'I' for Inactive)
REMARK    1  A    between atoms: C_1  and  C_2
REMARK    2  A    between atoms: C_5  and  C_6
REMARK    3  A    between atoms: C_9  and  C_10
REMARK    4  A    between atoms: C_11  and  C_12
REMARK    5  A    between atoms: N_14  and  O_15
REMARK    6  A    between atoms: C_16  and  C_17
REMARK                            x       y       z     vdW  Elec       q    Type
REMARK                         _______ _______ _______ _____ _____    ______ ____
ROOT
ATOM      1  C   UNL     1       2.949   6.255  18.945  0.00  0.00    +0.000 C 
ATOM      2  C   UNL     1       2.326   5.079  18.228  0.00  0.00    +0.000 C 
ATOM      3  C   UNL     1       3.481   5.816  17.584  0.00  0.00    +0.000 C 
ENDROOT
BRANCH   1   7
ATOM      4  C   UNL     1       0.793  10.030  19.248  0.00  0.00    +0.000 A 
ATOM      5  C   UNL     1       1.413   9.662  18.048  0.00  0.00    +0.000 A 
ATOM      6  C   UNL     1       2.154   8.473  17.956  0.00  0.00    +0.000 A 
ATOM      7  C   UNL     1       2.283   7.609  19.053  0.00  0.00    +0.000 A 
ATOM      8  C   UNL     1       1.673   8.005  20.256  0.00  0.00    +0.000 A 
ATOM      9  C   UNL     1       0.944   9.193  20.358  0.00  0.00    +0.000 A 
BRANCH   4  14
ATOM     10  C   UNL     1      -3.042  12.979  20.407  0.00  0.00    +0.000 C 
ATOM     11  C   UNL     1      -1.746  12.571  19.828  0.00  0.00    +0.000 A 
ATOM     12  C   UNL     1      -0.781  13.252  19.123  0.00  0.00    +0.000 A 
ATOM     13  N   UNL     1       0.284  12.433  18.836  0.00  0.00    +0.000 NA
ATOM     14  C   UNL     1      -0.021  11.244  19.323  0.00  0.00    +0.000 A 
ATOM     15  N   UNL     1      -1.252  11.296  19.937  0.00  0.00    +0.000 N 
ATOM     16  H   UNL     1      -1.697  10.524  20.410  0.00  0.00    +0.000 HD
ENDBRANCH   4  14
ENDBRANCH   1   7
BRANCH   3  17
ATOM     17  C   UNL     1       4.905   5.328  17.492  0.00  0.00    +0.000 A 
ATOM     18  C   UNL     1       5.784   5.447  18.578  0.00  0.00    +0.000 A 
ATOM     19  C   UNL     1       7.129   5.086  18.465  0.00  0.00    +0.000 A 
ATOM     20  C   UNL     1       7.620   4.584  17.263  0.00  0.00    +0.000 A 
ATOM     21  C   UNL     1       6.749   4.367  16.201  0.00  0.00    +0.000 A 
ATOM     22  C   UNL     1       5.401   4.710  16.329  0.00  0.00    +0.000 A 
ENDBRANCH   3  17
BRANCH   2  23
ATOM     23  C   UNL     1       2.330   3.722  18.852  0.00  0.00    +0.000 C 
ATOM     24  O   UNL     1       2.840   3.577  19.963  0.00  0.00    +0.000 OA
ATOM     25  N   UNL     1       1.797   2.664  18.171  0.00  0.00    +0.000 N 
ATOM     26  H   UNL     1       1.221   2.741  17.335  0.00  0.00    +0.000 HD
BRANCH  25  27
ATOM     27  O   UNL     1       1.810   1.415  18.837  0.00  0.00    +0.000 OA
ATOM     28  H   UNL     1       2.618   1.476  19.388  0.00  0.00    +0.000 HD
ENDBRANCH  25  27
ENDBRANCH   2  23
TORSDOF 5
ENDMDL
