MODEL 1
REMARK VINA RESULT:      -8.2      0.000      0.000
REMARK  Name = 
REMARK  15 active torsions:
REMARK  status: ('A' for Active; 'I' for Inactive)
REMARK    1  A    between atoms: C_1  and  C_2
REMARK    2  A    between atoms: C_2  and  C_3
REMARK    3  A    between atoms: C_3  and  C_4
REMARK    4  A    between atoms: C_4  and  C_5
REMARK    5  A    between atoms: C_5  and  O_6
REMARK    6  A    between atoms: O_6  and  C_7
REMARK    7  A    between atoms: C_9  and  C_10
REMARK    8  A    between atoms: C_12  and  C_13
REMARK    9  A    between atoms: C_14  and  C_15
REMARK   10  A    between atoms: C_15  and  O_17
REMARK   11  A    between atoms: C_20  and  O_21
REMARK   12  A    between atoms: C_25  and  C_26
REMARK   13  A    between atoms: C_25  and  C_27
REMARK   14  A    between atoms: C_30  and  C_31
REMARK   15  A    between atoms: C_30  and  C_32
REMARK                            x       y       z     vdW  Elec       q    Type
REMARK                         _______ _______ _______ _____ _____    ______ ____
ROOT
ATOM      1  C   UNL     1       4.445   6.823  17.330  0.00  0.00    +0.000 A 
ATOM      2  C   UNL     1       3.468   7.751  17.745  0.00  0.00    +0.000 A 
ATOM      3  C   UNL     1       2.328   7.387  18.458  0.00  0.00    +0.000 A 
ATOM      4  C   UNL     1       2.185   6.023  18.703  0.00  0.00    +0.000 A 
ATOM      5  C   UNL     1       3.124   5.037  18.292  0.00  0.00    +0.000 A 
ATOM      6  C   UNL     1       4.236   5.425  17.507  0.00  0.00    +0.000 A 
ATOM      7  C   UNL     1       5.160   4.364  16.883  0.00  0.00    +0.000 C 
ATOM      8  C   UNL     1       6.587   4.495  17.454  0.00  0.00    +0.000 C 
ATOM      9  C   UNL     1       5.181   4.516  15.340  0.00  0.00    +0.000 C 
ATOM     10  C   UNL     1       4.685   2.895  17.105  0.00  0.00    +0.000 C 
ATOM     11  C   UNL     1       4.036   2.636  18.445  0.00  0.00    +0.000 C 
ATOM     12  C   UNL     1       2.883   3.602  18.781  0.00  0.00    +0.000 C 
ATOM     13  C   UNL     1       1.552   3.080  18.195  0.00  0.00    +0.000 C 
ATOM     14  C   UNL     1       2.781   3.584  20.330  0.00  0.00    +0.000 C 
ENDROOT
BRANCH   3  15
ATOM     15  C   UNL     1       1.377   8.413  18.966  0.00  0.00    +0.000 A 
ATOM     16  C   UNL     1       0.465   9.033  18.078  0.00  0.00    +0.000 A 
ATOM     17  C   UNL     1      -0.446  10.024  18.487  0.00  0.00    +0.000 A 
ATOM     18  C   UNL     1      -0.445  10.415  19.827  0.00  0.00    +0.000 A 
ATOM     19  C   UNL     1       0.440   9.831  20.732  0.00  0.00    +0.000 A 
ATOM     20  C   UNL     1       1.345   8.856  20.303  0.00  0.00    +0.000 A 
BRANCH  17  21
ATOM     21  C   UNL     1      -1.347  10.704  17.549  0.00  0.00    +0.000 C 
ATOM     22  C   UNL     1      -2.142  10.072  16.661  0.00  0.00    +0.000 C 
BRANCH  22  23
ATOM     23  C   UNL     1      -3.006  10.860  15.765  0.00  0.00    +0.000 C 
ATOM     24  O   UNL     1      -3.244  10.565  14.604  0.00  0.00    +0.000 OA
BRANCH  23  25
ATOM     25  O   UNL     1      -3.504  11.947  16.370  0.00  0.00    +0.000 OA
ATOM     26  H   UNL     1      -4.471  12.073  16.311  0.00  0.00    +0.000 HD
ENDBRANCH  23  25
ENDBRANCH  22  23
ENDBRANCH  17  21
BRANCH  20  27
ATOM     27  O   UNL     1       2.237   8.361  21.217  0.00  0.00    +0.000 OA
ATOM     28  H   UNL     1       3.131   8.368  20.839  0.00  0.00    +0.000 HD
ENDBRANCH  20  27
ENDBRANCH   3  15
BRANCH   1  29
ATOM     29  O   UNL     1       5.641   7.293  16.797  0.00  0.00    +0.000 OA
BRANCH  29  30
ATOM     30  C   UNL     1       6.644   7.559  17.799  0.00  0.00    +0.000 C 
BRANCH  30  31
ATOM     31  C   UNL     1       7.676   8.611  17.397  0.00  0.00    +0.000 C 
BRANCH  31  32
ATOM     32  C   UNL     1       8.565   8.923  18.616  0.00  0.00    +0.000 C 
BRANCH  32  34
ATOM     33  C   UNL     1       9.485  10.826  19.987  0.00  0.00    +0.000 C 
ATOM     34  C   UNL     1       9.149  10.332  18.586  0.00  0.00    +0.000 C 
ENDBRANCH  32  34
ENDBRANCH  31  32
ENDBRANCH  30  31
ENDBRANCH  29  30
ENDBRANCH   1  29
TORSDOF 10
ENDMDL
MODEL 2
REMARK VINA RESULT:      -8.0      0.887      1.062
REMARK  Name = 
REMARK  15 active torsions:
REMARK  status: ('A' for Active; 'I' for Inactive)
REMARK    1  A    between atoms: C_1  and  C_2
REMARK    2  A    between atoms: C_2  and  C_3
REMARK    3  A    between atoms: C_3  and  C_4
REMARK    4  A    between atoms: C_4  and  C_5
REMARK    5  A    between atoms: C_5  and  O_6
REMARK    6  A    between atoms: O_6  and  C_7
REMARK    7  A    between atoms: C_9  and  C_10
REMARK    8  A    between atoms: C_12  and  C_13
REMARK    9  A    between atoms: C_14  and  C_15
REMARK   10  A    between atoms: C_15  and  O_17
REMARK   11  A    between atoms: C_20  and  O_21
REMARK   12  A    between atoms: C_25  and  C_26
REMARK   13  A    between atoms: C_25  and  C_27
REMARK   14  A    between atoms: C_30  and  C_31
REMARK   15  A    between atoms: C_30  and  C_32
REMARK                            x       y       z     vdW  Elec       q    Type
REMARK                         _______ _______ _______ _____ _____    ______ ____
ROOT
ATOM      1  C   UNL     1       3.905   6.600  17.763  0.00  0.00    +0.000 A 
ATOM      2  C   UNL     1       3.019   7.646  18.099  0.00  0.00    +0.000 A 
ATOM      3  C   UNL     1       1.958   7.487  18.986  0.00  0.00    +0.000 A 
ATOM      4  C   UNL     1       1.792   6.202  19.498  0.00  0.00    +0.000 A 
ATOM      5  C   UNL     1       2.637   5.103  19.181  0.00  0.00    +0.000 A 
ATOM      6  C   UNL     1       3.664   5.273  18.222  0.00  0.00    +0.000 A 
ATOM      7  C   UNL     1       4.466   4.063  17.713  0.00  0.00    +0.000 C 
ATOM      8  C   UNL     1       5.955   4.211  18.091  0.00  0.00    +0.000 C 
ATOM      9  C   UNL     1       4.312   3.929  16.176  0.00  0.00    +0.000 C 
ATOM     10  C   UNL     1       3.964   2.691  18.257  0.00  0.00    +0.000 C 
ATOM     11  C   UNL     1       3.467   2.720  19.684  0.00  0.00    +0.000 C 
ATOM     12  C   UNL     1       2.400   3.799  19.954  0.00  0.00    +0.000 C 
ATOM     13  C   UNL     1       0.990   3.259  19.625  0.00  0.00    +0.000 C 
ATOM     14  C   UNL     1       2.480   4.070  21.481  0.00  0.00    +0.000 C 
ENDROOT
BRANCH   3  15
ATOM     15  C   UNL     1       1.113   8.644  19.392  0.00  0.00    +0.000 A 
ATOM     16  C   UNL     1       0.223   9.230  18.460  0.00  0.00    +0.000 A 
ATOM     17  C   UNL     1      -0.588  10.337  18.770  0.00  0.00    +0.000 A 
ATOM     18  C   UNL     1      -0.506  10.882  20.053  0.00  0.00    +0.000 A 
ATOM     19  C   UNL     1       0.362  10.336  20.998  0.00  0.00    +0.000 A 
ATOM     20  C   UNL     1       1.167   9.243  20.665  0.00  0.00    +0.000 A 
BRANCH  17  21
ATOM     21  C   UNL     1      -1.465  10.975  17.782  0.00  0.00    +0.000 C 
ATOM     22  C   UNL     1      -2.733  10.593  17.527  0.00  0.00    +0.000 C 
BRANCH  22  23
ATOM     23  C   UNL     1      -3.521  11.309  16.508  0.00  0.00    +0.000 C 
ATOM     24  O   UNL     1      -4.648  11.743  16.689  0.00  0.00    +0.000 OA
BRANCH  23  25
ATOM     25  O   UNL     1      -2.858  11.428  15.349  0.00  0.00    +0.000 OA
ATOM     26  H   UNL     1      -3.405  11.476  14.540  0.00  0.00    +0.000 HD
ENDBRANCH  23  25
ENDBRANCH  22  23
ENDBRANCH  17  21
BRANCH  20  27
ATOM     27  O   UNL     1       2.049   8.785  21.609  0.00  0.00    +0.000 OA
ATOM     28  H   UNL     1       1.785   7.897  21.899  0.00  0.00    +0.000 HD
ENDBRANCH  20  27
ENDBRANCH   3  15
BRANCH   1  29
ATOM     29  O   UNL     1       5.047   6.893  17.024  0.00  0.00    +0.000 OA
BRANCH  29  30
ATOM     30  C   UNL     1       5.990   7.717  17.740  0.00  0.00    +0.000 C 
BRANCH  30  31
ATOM     31  C   UNL     1       7.446   7.523  17.319  0.00  0.00    +0.000 C 
BRANCH  31  32
ATOM     32  C   UNL     1       8.357   8.172  18.379  0.00  0.00    +0.000 C 
BRANCH  32  34
ATOM     33  C   UNL     1       9.355  10.293  19.304  0.00  0.00    +0.000 C 
ATOM     34  C   UNL     1       8.512   9.678  18.194  0.00  0.00    +0.000 C 
ENDBRANCH  32  34
ENDBRANCH  31  32
ENDBRANCH  30  31
ENDBRANCH  29  30
ENDBRANCH   1  29
TORSDOF 10
ENDMDL
MODEL 3
REMARK VINA RESULT:      -7.9      1.740      2.048
REMARK  Name = 
REMARK  15 active torsions:
REMARK  status: ('A' for Active; 'I' for Inactive)
REMARK    1  A    between atoms: C_1  and  C_2
REMARK    2  A    between atoms: C_2  and  C_3
REMARK    3  A    between atoms: C_3  and  C_4
REMARK    4  A    between atoms: C_4  and  C_5
REMARK    5  A    between atoms: C_5  and  O_6
REMARK    6  A    between atoms: O_6  and  C_7
REMARK    7  A    between atoms: C_9  and  C_10
REMARK    8  A    between atoms: C_12  and  C_13
REMARK    9  A    between atoms: C_14  and  C_15
REMARK   10  A    between atoms: C_15  and  O_17
REMARK   11  A    between atoms: C_20  and  O_21
REMARK   12  A    between atoms: C_25  and  C_26
REMARK   13  A    between atoms: C_25  and  C_27
REMARK   14  A    between atoms: C_30  and  C_31
REMARK   15  A    between atoms: C_30  and  C_32
REMARK                            x       y       z     vdW  Elec       q    Type
REMARK                         _______ _______ _______ _____ _____    ______ ____
ROOT
ATOM      1  C   UNL     1       5.082   6.724  17.057  0.00  0.00    +0.000 A 
ATOM      2  C   UNL     1       4.130   7.522  17.725  0.00  0.00    +0.000 A 
ATOM      3  C   UNL     1       3.034   6.993  18.400  0.00  0.00    +0.000 A 
ATOM      4  C   UNL     1       2.904   5.607  18.340  0.00  0.00    +0.000 A 
ATOM      5  C   UNL     1       3.818   4.750  17.666  0.00  0.00    +0.000 A 
ATOM      6  C   UNL     1       4.883   5.319  16.928  0.00  0.00    +0.000 A 
ATOM      7  C   UNL     1       5.769   4.437  16.030  0.00  0.00    +0.000 C 
ATOM      8  C   UNL     1       7.228   4.455  16.535  0.00  0.00    +0.000 C 
ATOM      9  C   UNL     1       5.702   4.932  14.562  0.00  0.00    +0.000 C 
ATOM     10  C   UNL     1       5.308   2.950  15.942  0.00  0.00    +0.000 C 
ATOM     11  C   UNL     1       4.737   2.389  17.224  0.00  0.00    +0.000 C 
ATOM     12  C   UNL     1       3.606   3.240  17.832  0.00  0.00    +0.000 C 
ATOM     13  C   UNL     1       2.243   2.845  17.219  0.00  0.00    +0.000 C 
ATOM     14  C   UNL     1       3.592   2.873  19.340  0.00  0.00    +0.000 C 
ENDROOT
BRANCH   3  15
ATOM     15  C   UNL     1       2.112   7.867  19.178  0.00  0.00    +0.000 A 
ATOM     16  C   UNL     1       1.681   9.100  18.635  0.00  0.00    +0.000 A 
ATOM     17  C   UNL     1       0.829   9.983  19.324  0.00  0.00    +0.000 A 
ATOM     18  C   UNL     1       0.396   9.625  20.602  0.00  0.00    +0.000 A 
ATOM     19  C   UNL     1       0.802   8.420  21.174  0.00  0.00    +0.000 A 
ATOM     20  C   UNL     1       1.658   7.563  20.476  0.00  0.00    +0.000 A 
BRANCH  17  21
ATOM     21  C   UNL     1       0.433  11.286  18.779  0.00  0.00    +0.000 C 
ATOM     22  C   UNL     1      -0.311  12.197  19.440  0.00  0.00    +0.000 C 
BRANCH  22  23
ATOM     23  C   UNL     1      -0.649  13.474  18.790  0.00  0.00    +0.000 C 
ATOM     24  O   UNL     1      -0.691  14.550  19.367  0.00  0.00    +0.000 OA
BRANCH  23  25
ATOM     25  O   UNL     1      -0.913  13.323  17.485  0.00  0.00    +0.000 OA
ATOM     26  H   UNL     1      -0.140  13.202  16.897  0.00  0.00    +0.000 HD
ENDBRANCH  23  25
ENDBRANCH  22  23
ENDBRANCH  17  21
BRANCH  20  27
ATOM     27  O   UNL     1       2.078   6.422  21.108  0.00  0.00    +0.000 OA
ATOM     28  H   UNL     1       2.393   5.781  20.450  0.00  0.00    +0.000 HD
ENDBRANCH  20  27
ENDBRANCH   3  15
BRANCH   1  29
ATOM     29  O   UNL     1       6.246   7.317  16.578  0.00  0.00    +0.000 OA
BRANCH  29  30
ATOM     30  C   UNL     1       7.243   7.518  17.600  0.00  0.00    +0.000 C 
BRANCH  30  31
ATOM     31  C   UNL     1       7.839   8.925  17.633  0.00  0.00    +0.000 C 
BRANCH  31  32
ATOM     32  C   UNL     1       8.878   8.995  18.768  0.00  0.00    +0.000 C 
BRANCH  32  34
ATOM     33  C   UNL     1       9.601  11.285  18.002  0.00  0.00    +0.000 C 
ATOM     34  C   UNL     1       9.204  10.423  19.194  0.00  0.00    +0.000 C 
ENDBRANCH  32  34
ENDBRANCH  31  32
ENDBRANCH  30  31
ENDBRANCH  29  30
ENDBRANCH   1  29
TORSDOF 10
ENDMDL
MODEL 4
REMARK VINA RESULT:      -7.4      1.754      2.537
REMARK  Name = 
REMARK  15 active torsions:
REMARK  status: ('A' for Active; 'I' for Inactive)
REMARK    1  A    between atoms: C_1  and  C_2
REMARK    2  A    between atoms: C_2  and  C_3
REMARK    3  A    between atoms: C_3  and  C_4
REMARK    4  A    between atoms: C_4  and  C_5
REMARK    5  A    between atoms: C_5  and  O_6
REMARK    6  A    between atoms: O_6  and  C_7
REMARK    7  A    between atoms: C_9  and  C_10
REMARK    8  A    between atoms: C_12  and  C_13
REMARK    9  A    between atoms: C_14  and  C_15
REMARK   10  A    between atoms: C_15  and  O_17
REMARK   11  A    between atoms: C_20  and  O_21
REMARK   12  A    between atoms: C_25  and  C_26
REMARK   13  A    between atoms: C_25  and  C_27
REMARK   14  A    between atoms: C_30  and  C_31
REMARK   15  A    between atoms: C_30  and  C_32
REMARK                            x       y       z     vdW  Elec       q    Type
REMARK                         _______ _______ _______ _____ _____    ______ ____
ROOT
ATOM      1  C   UNL     1       3.610   6.256  17.997  0.00  0.00    +0.000 A 
ATOM      2  C   UNL     1       2.815   7.365  18.356  0.00  0.00    +0.000 A 
ATOM      3  C   UNL     1       1.830   7.308  19.339  0.00  0.00    +0.000 A 
ATOM      4  C   UNL     1       1.642   6.058  19.927  0.00  0.00    +0.000 A 
ATOM      5  C   UNL     1       2.396   4.899  19.593  0.00  0.00    +0.000 A 
ATOM      6  C   UNL     1       3.341   4.967  18.541  0.00  0.00    +0.000 A 
ATOM      7  C   UNL     1       4.028   3.691  18.025  0.00  0.00    +0.000 C 
ATOM      8  C   UNL     1       5.551   3.770  18.266  0.00  0.00    +0.000 C 
ATOM      9  C   UNL     1       3.731   3.498  16.516  0.00  0.00    +0.000 C 
ATOM     10  C   UNL     1       3.504   2.376  18.679  0.00  0.00    +0.000 C 
ATOM     11  C   UNL     1       3.139   2.498  20.140  0.00  0.00    +0.000 C 
ATOM     12  C   UNL     1       2.159   3.647  20.447  0.00  0.00    +0.000 C 
ATOM     13  C   UNL     1       0.698   3.175  20.268  0.00  0.00    +0.000 C 
ATOM     14  C   UNL     1       2.389   3.981  21.946  0.00  0.00    +0.000 C 
ENDROOT
BRANCH   3  15
ATOM     15  C   UNL     1       1.087   8.528  19.758  0.00  0.00    +0.000 A 
ATOM     16  C   UNL     1       0.219   9.175  18.847  0.00  0.00    +0.000 A 
ATOM     17  C   UNL     1      -0.497  10.342  19.170  0.00  0.00    +0.000 A 
ATOM     18  C   UNL     1      -0.337  10.887  20.445  0.00  0.00    +0.000 A 
ATOM     19  C   UNL     1       0.513  10.283  21.370  0.00  0.00    +0.000 A 
ATOM     20  C   UNL     1       1.223   9.129  21.025  0.00  0.00    +0.000 A 
BRANCH  17  21
ATOM     21  C   UNL     1      -1.350  11.039  18.201  0.00  0.00    +0.000 C 
ATOM     22  C   UNL     1      -2.229  10.429  17.380  0.00  0.00    +0.000 C 
BRANCH  22  23
ATOM     23  C   UNL     1      -3.033  11.233  16.443  0.00  0.00    +0.000 C 
ATOM     24  O   UNL     1      -2.926  11.184  15.228  0.00  0.00    +0.000 OA
BRANCH  23  25
ATOM     25  O   UNL     1      -3.900  12.032  17.079  0.00  0.00    +0.000 OA
ATOM     26  H   UNL     1      -3.680  12.985  17.097  0.00  0.00    +0.000 HD
ENDBRANCH  23  25
ENDBRANCH  22  23
ENDBRANCH  17  21
BRANCH  20  27
ATOM     27  O   UNL     1       2.094   8.611  21.947  0.00  0.00    +0.000 OA
ATOM     28  H   UNL     1       2.621   7.905  21.539  0.00  0.00    +0.000 HD
ENDBRANCH  20  27
ENDBRANCH   3  15
BRANCH   1  29
ATOM     29  O   UNL     1       4.696   6.449  17.150  0.00  0.00    +0.000 OA
BRANCH  29  30
ATOM     30  C   UNL     1       5.880   6.904  17.838  0.00  0.00    +0.000 C 
BRANCH  30  31
ATOM     31  C   UNL     1       7.191   6.572  17.127  0.00  0.00    +0.000 C 
BRANCH  31  32
ATOM     32  C   UNL     1       6.872   6.136  15.684  0.00  0.00    +0.000 C 
BRANCH  32  34
ATOM     33  C   UNL     1       6.449   4.150  14.190  0.00  0.00    +0.000 C 
ATOM     34  C   UNL     1       7.187   4.666  15.420  0.00  0.00    +0.000 C 
ENDBRANCH  32  34
ENDBRANCH  31  32
ENDBRANCH  30  31
ENDBRANCH  29  30
ENDBRANCH   1  29
TORSDOF 10
ENDMDL
MODEL 5
REMARK VINA RESULT:      -7.4      2.413      2.773
REMARK  Name = 
REMARK  15 active torsions:
REMARK  status: ('A' for Active; 'I' for Inactive)
REMARK    1  A    between atoms: C_1  and  C_2
REMARK    2  A    between atoms: C_2  and  C_3
REMARK    3  A    between atoms: C_3  and  C_4
REMARK    4  A    between atoms: C_4  and  C_5
REMARK    5  A    between atoms: C_5  and  O_6
REMARK    6  A    between atoms: O_6  and  C_7
REMARK    7  A    between atoms: C_9  and  C_10
REMARK    8  A    between atoms: C_12  and  C_13
REMARK    9  A    between atoms: C_14  and  C_15
REMARK   10  A    between atoms: C_15  and  O_17
REMARK   11  A    between atoms: C_20  and  O_21
REMARK   12  A    between atoms: C_25  and  C_26
REMARK   13  A    between atoms: C_25  and  C_27
REMARK   14  A    between atoms: C_30  and  C_31
REMARK   15  A    between atoms: C_30  and  C_32
REMARK                            x       y       z     vdW  Elec       q    Type
REMARK                         _______ _______ _______ _____ _____    ______ ____
ROOT
ATOM      1  C   UNL     1       4.922   6.959  17.084  0.00  0.00    +0.000 A 
ATOM      2  C   UNL     1       4.079   7.959  17.613  0.00  0.00    +0.000 A 
ATOM      3  C   UNL     1       2.899   7.676  18.295  0.00  0.00    +0.000 A 
ATOM      4  C   UNL     1       2.570   6.325  18.389  0.00  0.00    +0.000 A 
ATOM      5  C   UNL     1       3.367   5.273  17.858  0.00  0.00    +0.000 A 
ATOM      6  C   UNL     1       4.523   5.591  17.108  0.00  0.00    +0.000 A 
ATOM      7  C   UNL     1       5.295   4.492  16.358  0.00  0.00    +0.000 C 
ATOM      8  C   UNL     1       6.726   4.363  16.921  0.00  0.00    +0.000 C 
ATOM      9  C   UNL     1       5.340   4.812  14.841  0.00  0.00    +0.000 C 
ATOM     10  C   UNL     1       4.624   3.086  16.421  0.00  0.00    +0.000 C 
ATOM     11  C   UNL     1       3.943   2.769  17.732  0.00  0.00    +0.000 C 
ATOM     12  C   UNL     1       2.931   3.839  18.187  0.00  0.00    +0.000 C 
ATOM     13  C   UNL     1       1.542   3.571  17.564  0.00  0.00    +0.000 C 
ATOM     14  C   UNL     1       2.824   3.661  19.726  0.00  0.00    +0.000 C 
ENDROOT
BRANCH   3  15
ATOM     15  C   UNL     1       2.095   8.759  18.927  0.00  0.00    +0.000 A 
ATOM     16  C   UNL     1       2.142  10.072  18.403  0.00  0.00    +0.000 A 
ATOM     17  C   UNL     1       1.425  11.145  18.963  0.00  0.00    +0.000 A 
ATOM     18  C   UNL     1       0.636  10.901  20.088  0.00  0.00    +0.000 A 
ATOM     19  C   UNL     1       0.566   9.621  20.637  0.00  0.00    +0.000 A 
ATOM     20  C   UNL     1       1.295   8.571  20.071  0.00  0.00    +0.000 A 
BRANCH  17  21
ATOM     21  C   UNL     1       1.526  12.516  18.449  0.00  0.00    +0.000 C 
ATOM     22  C   UNL     1       2.625  13.292  18.555  0.00  0.00    +0.000 C 
BRANCH  22  23
ATOM     23  C   UNL     1       2.610  14.657  18.002  0.00  0.00    +0.000 C 
ATOM     24  O   UNL     1       1.766  15.498  18.268  0.00  0.00    +0.000 OA
BRANCH  23  25
ATOM     25  O   UNL     1       3.634  14.874  17.164  0.00  0.00    +0.000 OA
ATOM     26  H   UNL     1       3.563  15.660  16.587  0.00  0.00    +0.000 HD
ENDBRANCH  23  25
ENDBRANCH  22  23
ENDBRANCH  17  21
BRANCH  20  27
ATOM     27  O   UNL     1       1.242   7.349  20.686  0.00  0.00    +0.000 OA
ATOM     28  H   UNL     1       1.727   7.384  21.526  0.00  0.00    +0.000 HD
ENDBRANCH  20  27
ENDBRANCH   3  15
BRANCH   1  29
ATOM     29  O   UNL     1       6.172   7.319  16.591  0.00  0.00    +0.000 OA
BRANCH  29  30
ATOM     30  C   UNL     1       7.134   7.594  17.631  0.00  0.00    +0.000 C 
BRANCH  30  31
ATOM     31  C   UNL     1       7.687   9.018  17.620  0.00  0.00    +0.000 C 
BRANCH  31  32
ATOM     32  C   UNL     1       8.830   9.112  18.649  0.00  0.00    +0.000 C 
BRANCH  32  34
ATOM     33  C   UNL     1      10.443  11.048  18.707  0.00  0.00    +0.000 C 
ATOM     34  C   UNL     1       9.076  10.535  19.141  0.00  0.00    +0.000 C 
ENDBRANCH  32  34
ENDBRANCH  31  32
ENDBRANCH  30  31
ENDBRANCH  29  30
ENDBRANCH   1  29
TORSDOF 10
ENDMDL
MODEL 6
REMARK VINA RESULT:      -7.3      2.585      3.017
REMARK  Name = 
REMARK  15 active torsions:
REMARK  status: ('A' for Active; 'I' for Inactive)
REMARK    1  A    between atoms: C_1  and  C_2
REMARK    2  A    between atoms: C_2  and  C_3
REMARK    3  A    between atoms: C_3  and  C_4
REMARK    4  A    between atoms: C_4  and  C_5
REMARK    5  A    between atoms: C_5  and  O_6
REMARK    6  A    between atoms: O_6  and  C_7
REMARK    7  A    between atoms: C_9  and  C_10
REMARK    8  A    between atoms: C_12  and  C_13
REMARK    9  A    between atoms: C_14  and  C_15
REMARK   10  A    between atoms: C_15  and  O_17
REMARK   11  A    between atoms: C_20  and  O_21
REMARK   12  A    between atoms: C_25  and  C_26
REMARK   13  A    between atoms: C_25  and  C_27
REMARK   14  A    between atoms: C_30  and  C_31
REMARK   15  A    between atoms: C_30  and  C_32
REMARK                            x       y       z     vdW  Elec       q    Type
REMARK                         _______ _______ _______ _____ _____    ______ ____
ROOT
ATOM      1  C   UNL     1       4.001   6.516  17.620  0.00  0.00    +0.000 A 
ATOM      2  C   UNL     1       3.306   7.699  17.948  0.00  0.00    +0.000 A 
ATOM      3  C   UNL     1       2.286   7.744  18.895  0.00  0.00    +0.000 A 
ATOM      4  C   UNL     1       1.956   6.522  19.479  0.00  0.00    +0.000 A 
ATOM      5  C   UNL     1       2.605   5.293  19.174  0.00  0.00    +0.000 A 
ATOM      6  C   UNL     1       3.588   5.263  18.157  0.00  0.00    +0.000 A 
ATOM      7  C   UNL     1       4.166   3.923  17.669  0.00  0.00    +0.000 C 
ATOM      8  C   UNL     1       5.679   3.854  17.964  0.00  0.00    +0.000 C 
ATOM      9  C   UNL     1       3.904   3.751  16.150  0.00  0.00    +0.000 C 
ATOM     10  C   UNL     1       3.493   2.668  18.306  0.00  0.00    +0.000 C 
ATOM     11  C   UNL     1       3.091   2.834  19.753  0.00  0.00    +0.000 C 
ATOM     12  C   UNL     1       2.217   4.074  20.023  0.00  0.00    +0.000 C 
ATOM     13  C   UNL     1       0.724   3.746  19.793  0.00  0.00    +0.000 C 
ATOM     14  C   UNL     1       2.425   4.393  21.528  0.00  0.00    +0.000 C 
ENDROOT
BRANCH   3  15
ATOM     15  C   UNL     1       1.652   9.033  19.285  0.00  0.00    +0.000 A 
ATOM     16  C   UNL     1       2.014  10.229  18.620  0.00  0.00    +0.000 A 
ATOM     17  C   UNL     1       1.470  11.483  18.951  0.00  0.00    +0.000 A 
ATOM     18  C   UNL     1       0.535  11.548  19.986  0.00  0.00    +0.000 A 
ATOM     19  C   UNL     1       0.155  10.394  20.669  0.00  0.00    +0.000 A 
ATOM     20  C   UNL     1       0.717   9.159  20.330  0.00  0.00    +0.000 A 
BRANCH  17  21
ATOM     21  C   UNL     1       1.894  12.726  18.297  0.00  0.00    +0.000 C 
ATOM     22  C   UNL     1       2.119  13.890  18.941  0.00  0.00    +0.000 C 
BRANCH  22  23
ATOM     23  C   UNL     1       2.541  15.077  18.178  0.00  0.00    +0.000 C 
ATOM     24  O   UNL     1       2.105  16.203  18.361  0.00  0.00    +0.000 OA
BRANCH  23  25
ATOM     25  O   UNL     1       3.462  14.780  17.250  0.00  0.00    +0.000 OA
ATOM     26  H   UNL     1       4.301  14.400  17.577  0.00  0.00    +0.000 HD
ENDBRANCH  23  25
ENDBRANCH  22  23
ENDBRANCH  17  21
BRANCH  20  27
ATOM     27  O   UNL     1       0.358   8.066  21.074  0.00  0.00    +0.000 OA
ATOM     28  H   UNL     1       0.494   8.252  22.017  0.00  0.00    +0.000 HD
ENDBRANCH  20  27
ENDBRANCH   3  15
BRANCH   1  29
ATOM     29  O   UNL     1       5.130   6.597  16.812  0.00  0.00    +0.000 OA
BRANCH  29  30
ATOM     30  C   UNL     1       6.145   7.477  17.339  0.00  0.00    +0.000 C 
BRANCH  30  31
ATOM     31  C   UNL     1       7.447   6.778  17.726  0.00  0.00    +0.000 C 
BRANCH  31  32
ATOM     32  C   UNL     1       8.362   7.796  18.434  0.00  0.00    +0.000 C 
BRANCH  32  34
ATOM     33  C   UNL     1       9.063  10.204  18.685  0.00  0.00    +0.000 C 
ATOM     34  C   UNL     1       8.134   9.231  17.969  0.00  0.00    +0.000 C 
ENDBRANCH  32  34
ENDBRANCH  31  32
ENDBRANCH  30  31
ENDBRANCH  29  30
ENDBRANCH   1  29
TORSDOF 10
ENDMDL
MODEL 7
REMARK VINA RESULT:      -7.3      1.606      2.000
REMARK  Name = 
REMARK  15 active torsions:
REMARK  status: ('A' for Active; 'I' for Inactive)
REMARK    1  A    between atoms: C_1  and  C_2
REMARK    2  A    between atoms: C_2  and  C_3
REMARK    3  A    between atoms: C_3  and  C_4
REMARK    4  A    between atoms: C_4  and  C_5
REMARK    5  A    between atoms: C_5  and  O_6
REMARK    6  A    between atoms: O_6  and  C_7
REMARK    7  A    between atoms: C_9  and  C_10
REMARK    8  A    between atoms: C_12  and  C_13
REMARK    9  A    between atoms: C_14  and  C_15
REMARK   10  A    between atoms: C_15  and  O_17
REMARK   11  A    between atoms: C_20  and  O_21
REMARK   12  A    between atoms: C_25  and  C_26
REMARK   13  A    between atoms: C_25  and  C_27
REMARK   14  A    between atoms: C_30  and  C_31
REMARK   15  A    between atoms: C_30  and  C_32
REMARK                            x       y       z     vdW  Elec       q    Type
REMARK                         _______ _______ _______ _____ _____    ______ ____
ROOT
ATOM      1  C   UNL     1       3.805   6.300  18.426  0.00  0.00    +0.000 A 
ATOM      2  C   UNL     1       2.980   7.395  18.756  0.00  0.00    +0.000 A 
ATOM      3  C   UNL     1       1.871   7.287  19.591  0.00  0.00    +0.000 A 
ATOM      4  C   UNL     1       1.593   6.002  20.056  0.00  0.00    +0.000 A 
ATOM      5  C   UNL     1       2.374   4.856  19.741  0.00  0.00    +0.000 A 
ATOM      6  C   UNL     1       3.453   4.981  18.833  0.00  0.00    +0.000 A 
ATOM      7  C   UNL     1       4.192   3.732  18.321  0.00  0.00    +0.000 C 
ATOM      8  C   UNL     1       5.669   3.764  18.768  0.00  0.00    +0.000 C 
ATOM      9  C   UNL     1       4.099   3.653  16.775  0.00  0.00    +0.000 C 
ATOM     10  C   UNL     1       3.572   2.384  18.800  0.00  0.00    +0.000 C 
ATOM     11  C   UNL     1       3.015   2.408  20.204  0.00  0.00    +0.000 C 
ATOM     12  C   UNL     1       2.013   3.550  20.462  0.00  0.00    +0.000 C 
ATOM     13  C   UNL     1       0.586   3.120  20.055  0.00  0.00    +0.000 C 
ATOM     14  C   UNL     1       2.042   3.772  21.998  0.00  0.00    +0.000 C 
ENDROOT
BRANCH   3  15
ATOM     15  C   UNL     1       1.090   8.488  19.996  0.00  0.00    +0.000 A 
ATOM     16  C   UNL     1       0.262   9.143  19.054  0.00  0.00    +0.000 A 
ATOM     17  C   UNL     1      -0.486  10.294  19.363  0.00  0.00    +0.000 A 
ATOM     18  C   UNL     1      -0.402  10.813  20.656  0.00  0.00    +0.000 A 
ATOM     19  C   UNL     1       0.406  10.199  21.612  0.00  0.00    +0.000 A 
ATOM     20  C   UNL     1       1.150   9.062  21.281  0.00  0.00    +0.000 A 
BRANCH  17  21
ATOM     21  C   UNL     1      -1.296  11.001  18.364  0.00  0.00    +0.000 C 
ATOM     22  C   UNL     1      -2.292  10.437  17.651  0.00  0.00    +0.000 C 
BRANCH  22  23
ATOM     23  C   UNL     1      -3.038  11.246  16.672  0.00  0.00    +0.000 C 
ATOM     24  O   UNL     1      -2.861  11.200  15.464  0.00  0.00    +0.000 OA
BRANCH  23  25
ATOM     25  O   UNL     1      -3.937  12.048  17.259  0.00  0.00    +0.000 OA
ATOM     26  H   UNL     1      -3.688  12.990  17.344  0.00  0.00    +0.000 HD
ENDBRANCH  23  25
ENDBRANCH  22  23
ENDBRANCH  17  21
BRANCH  20  27
ATOM     27  O   UNL     1       1.977   8.535  22.237  0.00  0.00    +0.000 OA
ATOM     28  H   UNL     1       2.903   8.695  21.993  0.00  0.00    +0.000 HD
ENDBRANCH  20  27
ENDBRANCH   3  15
BRANCH   1  29
ATOM     29  O   UNL     1       4.997   6.532  17.747  0.00  0.00    +0.000 OA
BRANCH  29  30
ATOM     30  C   UNL     1       4.808   6.797  16.342  0.00  0.00    +0.000 C 
BRANCH  30  31
ATOM     31  C   UNL     1       5.912   6.246  15.441  0.00  0.00    +0.000 C 
BRANCH  31  32
ATOM     32  C   UNL     1       7.150   5.943  16.307  0.00  0.00    +0.000 C 
BRANCH  32  34
ATOM     33  C   UNL     1       7.977   6.640  18.583  0.00  0.00    +0.000 C 
ATOM     34  C   UNL     1       7.559   7.113  17.196  0.00  0.00    +0.000 C 
ENDBRANCH  32  34
ENDBRANCH  31  32
ENDBRANCH  30  31
ENDBRANCH  29  30
ENDBRANCH   1  29
TORSDOF 10
ENDMDL
MODEL 8
REMARK VINA RESULT:      -7.2      1.474      1.864
REMARK  Name = 
REMARK  15 active torsions:
REMARK  status: ('A' for Active; 'I' for Inactive)
REMARK    1  A    between atoms: C_1  and  C_2
REMARK    2  A    between atoms: C_2  and  C_3
REMARK    3  A    between atoms: C_3  and  C_4
REMARK    4  A    between atoms: C_4  and  C_5
REMARK    5  A    between atoms: C_5  and  O_6
REMARK    6  A    between atoms: O_6  and  C_7
REMARK    7  A    between atoms: C_9  and  C_10
REMARK    8  A    between atoms: C_12  and  C_13
REMARK    9  A    between atoms: C_14  and  C_15
REMARK   10  A    between atoms: C_15  and  O_17
REMARK   11  A    between atoms: C_20  and  O_21
REMARK   12  A    between atoms: C_25  and  C_26
REMARK   13  A    between atoms: C_25  and  C_27
REMARK   14  A    between atoms: C_30  and  C_31
REMARK   15  A    between atoms: C_30  and  C_32
REMARK                            x       y       z     vdW  Elec       q    Type
REMARK                         _______ _______ _______ _____ _____    ______ ____
ROOT
ATOM      1  C   UNL     1       3.623   6.461  17.954  0.00  0.00    +0.000 A 
ATOM      2  C   UNL     1       2.808   7.535  18.367  0.00  0.00    +0.000 A 
ATOM      3  C   UNL     1       1.814   7.408  19.335  0.00  0.00    +0.000 A 
ATOM      4  C   UNL     1       1.640   6.125  19.849  0.00  0.00    +0.000 A 
ATOM      5  C   UNL     1       2.414   4.997  19.458  0.00  0.00    +0.000 A 
ATOM      6  C   UNL     1       3.368   5.139  18.422  0.00  0.00    +0.000 A 
ATOM      7  C   UNL     1       4.080   3.905  17.842  0.00  0.00    +0.000 C 
ATOM      8  C   UNL     1       5.598   3.992  18.102  0.00  0.00    +0.000 C 
ATOM      9  C   UNL     1       3.800   3.793  16.320  0.00  0.00    +0.000 C 
ATOM     10  C   UNL     1       3.570   2.547  18.414  0.00  0.00    +0.000 C 
ATOM     11  C   UNL     1       3.189   2.580  19.876  0.00  0.00    +0.000 C 
ATOM     12  C   UNL     1       2.189   3.695  20.238  0.00  0.00    +0.000 C 
ATOM     13  C   UNL     1       0.737   3.213  20.017  0.00  0.00    +0.000 C 
ATOM     14  C   UNL     1       2.399   3.947  21.755  0.00  0.00    +0.000 C 
ENDROOT
BRANCH   3  15
ATOM     15  C   UNL     1       1.049   8.592  19.814  0.00  0.00    +0.000 A 
ATOM     16  C   UNL     1       0.144   9.247  18.946  0.00  0.00    +0.000 A 
ATOM     17  C   UNL     1      -0.595  10.383  19.327  0.00  0.00    +0.000 A 
ATOM     18  C   UNL     1      -0.421  10.885  20.618  0.00  0.00    +0.000 A 
ATOM     19  C   UNL     1       0.465  10.270  21.502  0.00  0.00    +0.000 A 
ATOM     20  C   UNL     1       1.197   9.149  21.099  0.00  0.00    +0.000 A 
BRANCH  17  21
ATOM     21  C   UNL     1      -1.487  11.091  18.403  0.00  0.00    +0.000 C 
ATOM     22  C   UNL     1      -2.527  10.523  17.759  0.00  0.00    +0.000 C 
BRANCH  22  23
ATOM     23  C   UNL     1      -3.355  11.335  16.850  0.00  0.00    +0.000 C 
ATOM     24  O   UNL     1      -4.439  11.810  17.148  0.00  0.00    +0.000 OA
BRANCH  23  25
ATOM     25  O   UNL     1      -2.782  11.491  15.649  0.00  0.00    +0.000 OA
ATOM     26  H   UNL     1      -3.281  12.020  14.995  0.00  0.00    +0.000 HD
ENDBRANCH  23  25
ENDBRANCH  22  23
ENDBRANCH  17  21
BRANCH  20  27
ATOM     27  O   UNL     1       2.100   8.621  21.983  0.00  0.00    +0.000 OA
ATOM     28  H   UNL     1       1.802   8.784  22.893  0.00  0.00    +0.000 HD
ENDBRANCH  20  27
ENDBRANCH   3  15
BRANCH   1  29
ATOM     29  O   UNL     1       4.714   6.717  17.130  0.00  0.00    +0.000 OA
BRANCH  29  30
ATOM     30  C   UNL     1       5.688   7.593  17.734  0.00  0.00    +0.000 C 
BRANCH  30  31
ATOM     31  C   UNL     1       7.116   7.396  17.227  0.00  0.00    +0.000 C 
BRANCH  31  32
ATOM     32  C   UNL     1       8.038   7.145  18.435  0.00  0.00    +0.000 C 
BRANCH  32  34
ATOM     33  C   UNL     1       8.159   5.510  20.349  0.00  0.00    +0.000 C 
ATOM     34  C   UNL     1       8.115   5.674  18.835  0.00  0.00    +0.000 C 
ENDBRANCH  32  34
ENDBRANCH  31  32
ENDBRANCH  30  31
ENDBRANCH  29  30
ENDBRANCH   1  29
TORSDOF 10
ENDMDL
MODEL 9
REMARK VINA RESULT:      -7.1      3.425      8.651
REMARK  Name = 
REMARK  15 active torsions:
REMARK  status: ('A' for Active; 'I' for Inactive)
REMARK    1  A    between atoms: C_1  and  C_2
REMARK    2  A    between atoms: C_2  and  C_3
REMARK    3  A    between atoms: C_3  and  C_4
REMARK    4  A    between atoms: C_4  and  C_5
REMARK    5  A    between atoms: C_5  and  O_6
REMARK    6  A    between atoms: O_6  and  C_7
REMARK    7  A    between atoms: C_9  and  C_10
REMARK    8  A    between atoms: C_12  and  C_13
REMARK    9  A    between atoms: C_14  and  C_15
REMARK   10  A    between atoms: C_15  and  O_17
REMARK   11  A    between atoms: C_20  and  O_21
REMARK   12  A    between atoms: C_25  and  C_26
REMARK   13  A    between atoms: C_25  and  C_27
REMARK   14  A    between atoms: C_30  and  C_31
REMARK   15  A    between atoms: C_30  and  C_32
REMARK                            x       y       z     vdW  Elec       q    Type
REMARK                         _______ _______ _______ _____ _____    ______ ____
ROOT
ATOM      1  C   UNL     1      -0.171  11.693  20.691  0.00  0.00    +0.000 A 
ATOM      2  C   UNL     1       0.724  10.661  20.342  0.00  0.00    +0.000 A 
ATOM      3  C   UNL     1       0.464   9.739  19.331  0.00  0.00    +0.000 A 
ATOM      4  C   UNL     1      -0.773   9.871  18.703  0.00  0.00    +0.000 A 
ATOM      5  C   UNL     1      -1.726  10.876  19.025  0.00  0.00    +0.000 A 
ATOM      6  C   UNL     1      -1.468  11.755  20.103  0.00  0.00    +0.000 A 
ATOM      7  C   UNL     1      -2.557  12.721  20.602  0.00  0.00    +0.000 C 
ATOM      8  C   UNL     1      -2.104  14.184  20.406  0.00  0.00    +0.000 C 
ATOM      9  C   UNL     1      -2.868  12.449  22.096  0.00  0.00    +0.000 C 
ATOM     10  C   UNL     1      -3.937  12.545  19.897  0.00  0.00    +0.000 C 
ATOM     11  C   UNL     1      -3.856  12.191  18.430  0.00  0.00    +0.000 C 
ATOM     12  C   UNL     1      -2.968  10.968  18.128  0.00  0.00    +0.000 C 
ATOM     13  C   UNL     1      -3.785   9.662  18.253  0.00  0.00    +0.000 C 
ATOM     14  C   UNL     1      -2.537  11.140  16.647  0.00  0.00    +0.000 C 
ENDROOT
BRANCH   3  15
ATOM     15  C   UNL     1       1.482   8.731  18.927  0.00  0.00    +0.000 A 
ATOM     16  C   UNL     1       1.573   7.500  19.619  0.00  0.00    +0.000 A 
ATOM     17  C   UNL     1       2.524   6.513  19.303  0.00  0.00    +0.000 A 
ATOM     18  C   UNL     1       3.421   6.764  18.263  0.00  0.00    +0.000 A 
ATOM     19  C   UNL     1       3.367   7.966  17.559  0.00  0.00    +0.000 A 
ATOM     20  C   UNL     1       2.421   8.938  17.897  0.00  0.00    +0.000 A 
BRANCH  17  21
ATOM     21  C   UNL     1       2.650   5.264  20.064  0.00  0.00    +0.000 C 
ATOM     22  C   UNL     1       1.608   4.556  20.545  0.00  0.00    +0.000 C 
BRANCH  22  23
ATOM     23  C   UNL     1       1.855   3.314  21.299  0.00  0.00    +0.000 C 
ATOM     24  O   UNL     1       2.341   3.275  22.418  0.00  0.00    +0.000 OA
BRANCH  23  25
ATOM     25  O   UNL     1       1.487   2.224  20.612  0.00  0.00    +0.000 OA
ATOM     26  H   UNL     1       0.964   2.379  19.800  0.00  0.00    +0.000 HD
ENDBRANCH  23  25
ENDBRANCH  22  23
ENDBRANCH  17  21
BRANCH  20  27
ATOM     27  O   UNL     1       2.452  10.127  17.217  0.00  0.00    +0.000 OA
ATOM     28  H   UNL     1       3.058  10.057  16.462  0.00  0.00    +0.000 HD
ENDBRANCH  20  27
ENDBRANCH   3  15
BRANCH   1  29
ATOM     29  O   UNL     1       0.249  12.683  21.574  0.00  0.00    +0.000 OA
BRANCH  29  30
ATOM     30  C   UNL     1       1.486  13.309  21.177  0.00  0.00    +0.000 C 
BRANCH  30  31
ATOM     31  C   UNL     1       1.370  14.220  19.956  0.00  0.00    +0.000 C 
BRANCH  31  32
ATOM     32  C   UNL     1       2.511  15.253  20.000  0.00  0.00    +0.000 C 
BRANCH  32  34
ATOM     33  C   UNL     1       3.368  15.453  17.638  0.00  0.00    +0.000 C 
ATOM     34  C   UNL     1       2.575  16.128  18.751  0.00  0.00    +0.000 C 
ENDBRANCH  32  34
ENDBRANCH  31  32
ENDBRANCH  30  31
ENDBRANCH  29  30
ENDBRANCH   1  29
TORSDOF 10
ENDMDL
