MODEL 1
REMARK VINA RESULT:      -8.0      0.000      0.000
REMARK  Name = 
REMARK  5 active torsions:
REMARK  status: ('A' for Active; 'I' for Inactive)
REMARK    1  A    between atoms: C_1  and  C_2
REMARK    2  A    between atoms: C_5  and  C_6
REMARK    3  A    between atoms: C_9  and  C_10
REMARK    4  A    between atoms: C_20  and  C_21
REMARK    5  A    between atoms: C_24  and  C_25
REMARK                            x       y       z     vdW  Elec       q    Type
REMARK                         _______ _______ _______ _____ _____    ______ ____
ROOT
ATOM      1  C   UNL     1      -0.170  10.975  20.494  0.00  0.00    +0.000 A 
ATOM      2  N   UNL     1       0.244  11.399  21.729  0.00  0.00    +0.000 NA
ATOM      3  C   UNL     1      -0.421  12.448  22.275  0.00  0.00    +0.000 A 
ATOM      4  C   UNL     1      -1.477  13.067  21.635  0.00  0.00    +0.000 A 
ATOM      5  N   UNL     1      -1.907  12.651  20.422  0.00  0.00    +0.000 NA
ATOM      6  C   UNL     1      -1.285  11.573  19.863  0.00  0.00    +0.000 A 
ENDROOT
BRANCH   4   7
ATOM      7  C   UNL     1      -2.093  14.286  22.220  0.00  0.00    +0.000 C 
ATOM      8  O   UNL     1      -1.702  15.375  21.794  0.00  0.00    +0.000 OA
ATOM      9  N   UNL     1      -3.104  14.196  23.181  0.00  0.00    +0.000 N 
ATOM     10  C   UNL     1      -3.864  15.396  23.523  0.00  0.00    +0.000 C 
ATOM     11  C   UNL     1      -5.350  15.111  23.311  0.00  0.00    +0.000 C 
ATOM     12  N   UNL     1      -5.784  13.925  24.026  0.00  0.00    +0.000 N 
ATOM     13  C   UNL     1      -4.981  12.820  24.180  0.00  0.00    +0.000 C 
ATOM     14  O   UNL     1      -5.467  11.773  24.604  0.00  0.00    +0.000 OA
ATOM     15  C   UNL     1      -3.464  13.014  23.984  0.00  0.00    +0.000 C 
ATOM     16  H   UNL     1      -6.773  13.736  24.127  0.00  0.00    +0.000 HD
ENDBRANCH   4   7
BRANCH   1  21
ATOM     17  C   UNL     1       3.078   6.747  18.160  0.00  0.00    +0.000 C 
ATOM     18  C   UNL     1       2.254   7.834  18.783  0.00  0.00    +0.000 A 
ATOM     19  C   UNL     1       1.829   7.759  20.111  0.00  0.00    +0.000 A 
ATOM     20  C   UNL     1       1.051   8.784  20.664  0.00  0.00    +0.000 A 
ATOM     21  C   UNL     1       0.685   9.915  19.913  0.00  0.00    +0.000 A 
ATOM     22  C   UNL     1       1.171   9.991  18.595  0.00  0.00    +0.000 A 
ATOM     23  C   UNL     1       1.905   8.951  18.024  0.00  0.00    +0.000 A 
ENDBRANCH   1  21
BRANCH   6  24
ATOM     24  C   UNL     1      -1.915  11.147  18.592  0.00  0.00    +0.000 A 
ATOM     25  C   UNL     1      -1.847  11.969  17.450  0.00  0.00    +0.000 A 
ATOM     26  C   UNL     1      -2.383  11.568  16.219  0.00  0.00    +0.000 A 
ATOM     27  C   UNL     1      -2.996  10.319  16.089  0.00  0.00    +0.000 A 
ATOM     28  C   UNL     1      -3.531   9.846  14.776  0.00  0.00    +0.000 C 
ATOM     29  C   UNL     1      -3.107   9.506  17.220  0.00  0.00    +0.000 A 
ATOM     30  C   UNL     1      -2.612   9.932  18.457  0.00  0.00    +0.000 A 
ENDBRANCH   6  24
TORSDOF 3
ENDMDL
MODEL 2
REMARK VINA RESULT:      -7.8      0.830      1.218
REMARK  Name = 
REMARK  5 active torsions:
REMARK  status: ('A' for Active; 'I' for Inactive)
REMARK    1  A    between atoms: C_1  and  C_2
REMARK    2  A    between atoms: C_5  and  C_6
REMARK    3  A    between atoms: C_9  and  C_10
REMARK    4  A    between atoms: C_20  and  C_21
REMARK    5  A    between atoms: C_24  and  C_25
REMARK                            x       y       z     vdW  Elec       q    Type
REMARK                         _______ _______ _______ _____ _____    ______ ____
ROOT
ATOM      1  C   UNL     1      -0.154  10.725  20.455  0.00  0.00    +0.000 A 
ATOM      2  N   UNL     1       0.251  11.073  21.716  0.00  0.00    +0.000 NA
ATOM      3  C   UNL     1      -0.415  12.090  22.318  0.00  0.00    +0.000 A 
ATOM      4  C   UNL     1      -1.465  12.749  21.708  0.00  0.00    +0.000 A 
ATOM      5  N   UNL     1      -1.886  12.407  20.470  0.00  0.00    +0.000 NA
ATOM      6  C   UNL     1      -1.262  11.362  19.852  0.00  0.00    +0.000 A 
ENDROOT
BRANCH   4   7
ATOM      7  C   UNL     1      -2.084  13.932  22.361  0.00  0.00    +0.000 C 
ATOM      8  O   UNL     1      -1.370  14.926  22.516  0.00  0.00    +0.000 OA
ATOM      9  N   UNL     1      -3.427  13.929  22.742  0.00  0.00    +0.000 N 
ATOM     10  C   UNL     1      -4.058  15.191  23.122  0.00  0.00    +0.000 C 
ATOM     11  C   UNL     1      -5.292  15.405  22.246  0.00  0.00    +0.000 C 
ATOM     12  N   UNL     1      -6.194  14.268  22.289  0.00  0.00    +0.000 N 
ATOM     13  C   UNL     1      -5.745  12.972  22.381  0.00  0.00    +0.000 C 
ATOM     14  O   UNL     1      -6.533  12.045  22.200  0.00  0.00    +0.000 OA
ATOM     15  C   UNL     1      -4.307  12.755  22.891  0.00  0.00    +0.000 C 
ATOM     16  H   UNL     1      -7.129  14.358  21.913  0.00  0.00    +0.000 HD
ENDBRANCH   4   7
BRANCH   1  21
ATOM     17  C   UNL     1       3.324   6.757  17.999  0.00  0.00    +0.000 C 
ATOM     18  C   UNL     1       2.416   7.781  18.611  0.00  0.00    +0.000 A 
ATOM     19  C   UNL     1       1.957   8.880  17.882  0.00  0.00    +0.000 A 
ATOM     20  C   UNL     1       1.118   9.827  18.481  0.00  0.00    +0.000 A 
ATOM     21  C   UNL     1       0.703   9.699  19.818  0.00  0.00    +0.000 A 
ATOM     22  C   UNL     1       1.134   8.554  20.513  0.00  0.00    +0.000 A 
ATOM     23  C   UNL     1       2.010   7.633  19.937  0.00  0.00    +0.000 A 
ENDBRANCH   1  21
BRANCH   6  24
ATOM     24  C   UNL     1      -1.884  11.015  18.554  0.00  0.00    +0.000 A 
ATOM     25  C   UNL     1      -1.824  11.912  17.469  0.00  0.00    +0.000 A 
ATOM     26  C   UNL     1      -2.350  11.587  16.213  0.00  0.00    +0.000 A 
ATOM     27  C   UNL     1      -2.947  10.342  15.997  0.00  0.00    +0.000 A 
ATOM     28  C   UNL     1      -3.473   9.952  14.653  0.00  0.00    +0.000 C 
ATOM     29  C   UNL     1      -3.051   9.454  17.070  0.00  0.00    +0.000 A 
ATOM     30  C   UNL     1      -2.565   9.802  18.335  0.00  0.00    +0.000 A 
ENDBRANCH   6  24
TORSDOF 3
ENDMDL
MODEL 3
REMARK VINA RESULT:      -7.3      3.623      7.091
REMARK  Name = 
REMARK  5 active torsions:
REMARK  status: ('A' for Active; 'I' for Inactive)
REMARK    1  A    between atoms: C_1  and  C_2
REMARK    2  A    between atoms: C_5  and  C_6
REMARK    3  A    between atoms: C_9  and  C_10
REMARK    4  A    between atoms: C_20  and  C_21
REMARK    5  A    between atoms: C_24  and  C_25
REMARK                            x       y       z     vdW  Elec       q    Type
REMARK                         _______ _______ _______ _____ _____    ______ ____
ROOT
ATOM      1  C   UNL     1       3.022   7.385  18.009  0.00  0.00    +0.000 A 
ATOM      2  N   UNL     1       2.998   8.667  17.528  0.00  0.00    +0.000 NA
ATOM      3  C   UNL     1       2.203   9.553  18.178  0.00  0.00    +0.000 A 
ATOM      4  C   UNL     1       1.454   9.201  19.285  0.00  0.00    +0.000 A 
ATOM      5  N   UNL     1       1.479   7.944  19.780  0.00  0.00    +0.000 NA
ATOM      6  C   UNL     1       2.298   7.037  19.173  0.00  0.00    +0.000 A 
ENDROOT
BRANCH   4   7
ATOM      7  C   UNL     1       0.509  10.178  19.888  0.00  0.00    +0.000 C 
ATOM      8  O   UNL     1       0.843  10.699  20.954  0.00  0.00    +0.000 OA
ATOM      9  N   UNL     1      -0.685  10.519  19.248  0.00  0.00    +0.000 N 
ATOM     10  C   UNL     1      -1.442  11.671  19.731  0.00  0.00    +0.000 C 
ATOM     11  C   UNL     1      -1.650  12.642  18.569  0.00  0.00    +0.000 C 
ATOM     12  N   UNL     1      -2.252  11.992  17.419  0.00  0.00    +0.000 N 
ATOM     13  C   UNL     1      -1.962  10.696  17.067  0.00  0.00    +0.000 C 
ATOM     14  O   UNL     1      -2.330  10.268  15.975  0.00  0.00    +0.000 OA
ATOM     15  C   UNL     1      -1.347   9.789  18.152  0.00  0.00    +0.000 C 
ATOM     16  H   UNL     1      -2.617  12.555  16.661  0.00  0.00    +0.000 HD
ENDBRANCH   4   7
BRANCH   1  21
ATOM     17  C   UNL     1       6.199   3.698  14.818  0.00  0.00    +0.000 C 
ATOM     18  C   UNL     1       5.380   4.663  15.621  0.00  0.00    +0.000 A 
ATOM     19  C   UNL     1       5.581   6.042  15.532  0.00  0.00    +0.000 A 
ATOM     20  C   UNL     1       4.808   6.921  16.302  0.00  0.00    +0.000 A 
ATOM     21  C   UNL     1       3.808   6.451  17.171  0.00  0.00    +0.000 A 
ATOM     22  C   UNL     1       3.589   5.062  17.200  0.00  0.00    +0.000 A 
ATOM     23  C   UNL     1       4.388   4.178  16.474  0.00  0.00    +0.000 A 
ENDBRANCH   1  21
BRANCH   6  24
ATOM     24  C   UNL     1       2.321   5.732  19.872  0.00  0.00    +0.000 A 
ATOM     25  C   UNL     1       1.119   5.102  20.249  0.00  0.00    +0.000 A 
ATOM     26  C   UNL     1       1.108   3.840  20.859  0.00  0.00    +0.000 A 
ATOM     27  C   UNL     1       2.304   3.161  21.101  0.00  0.00    +0.000 A 
ATOM     28  C   UNL     1       2.317   1.794  21.705  0.00  0.00    +0.000 C 
ATOM     29  C   UNL     1       3.509   3.786  20.768  0.00  0.00    +0.000 A 
ATOM     30  C   UNL     1       3.516   5.066  20.203  0.00  0.00    +0.000 A 
ENDBRANCH   6  24
TORSDOF 3
ENDMDL
MODEL 4
REMARK VINA RESULT:      -7.3      3.595      6.923
REMARK  Name = 
REMARK  5 active torsions:
REMARK  status: ('A' for Active; 'I' for Inactive)
REMARK    1  A    between atoms: C_1  and  C_2
REMARK    2  A    between atoms: C_5  and  C_6
REMARK    3  A    between atoms: C_9  and  C_10
REMARK    4  A    between atoms: C_20  and  C_21
REMARK    5  A    between atoms: C_24  and  C_25
REMARK                            x       y       z     vdW  Elec       q    Type
REMARK                         _______ _______ _______ _____ _____    ______ ____
ROOT
ATOM      1  C   UNL     1       2.931   7.354  18.166  0.00  0.00    +0.000 A 
ATOM      2  N   UNL     1       3.021   8.653  17.741  0.00  0.00    +0.000 NA
ATOM      3  C   UNL     1       2.210   9.557  18.346  0.00  0.00    +0.000 A 
ATOM      4  C   UNL     1       1.334   9.204  19.355  0.00  0.00    +0.000 A 
ATOM      5  N   UNL     1       1.244   7.929  19.795  0.00  0.00    +0.000 NA
ATOM      6  C   UNL     1       2.074   7.003  19.234  0.00  0.00    +0.000 A 
ENDROOT
BRANCH   4   7
ATOM      7  C   UNL     1       0.383  10.208  19.901  0.00  0.00    +0.000 C 
ATOM      8  O   UNL     1       0.699  10.768  20.953  0.00  0.00    +0.000 OA
ATOM      9  N   UNL     1      -0.797  10.529  19.226  0.00  0.00    +0.000 N 
ATOM     10  C   UNL     1      -1.557  11.703  19.650  0.00  0.00    +0.000 C 
ATOM     11  C   UNL     1      -1.739  12.628  18.448  0.00  0.00    +0.000 C 
ATOM     12  N   UNL     1      -2.321  11.937  17.312  0.00  0.00    +0.000 N 
ATOM     13  C   UNL     1      -2.031  10.627  17.016  0.00  0.00    +0.000 C 
ATOM     14  O   UNL     1      -2.381  10.159  15.934  0.00  0.00    +0.000 OA
ATOM     15  C   UNL     1      -1.441   9.760  18.146  0.00  0.00    +0.000 C 
ATOM     16  H   UNL     1      -2.669  12.472  16.526  0.00  0.00    +0.000 HD
ENDBRANCH   4   7
BRANCH   1  21
ATOM     17  C   UNL     1       6.066   3.661  14.941  0.00  0.00    +0.000 C 
ATOM     18  C   UNL     1       5.259   4.596  15.791  0.00  0.00    +0.000 A 
ATOM     19  C   UNL     1       4.300   4.125  16.689  0.00  0.00    +0.000 A 
ATOM     20  C   UNL     1       3.554   5.022  17.463  0.00  0.00    +0.000 A 
ATOM     21  C   UNL     1       3.751   6.411  17.372  0.00  0.00    +0.000 A 
ATOM     22  C   UNL     1       4.761   6.857  16.500  0.00  0.00    +0.000 A 
ATOM     23  C   UNL     1       5.474   5.971  15.690  0.00  0.00    +0.000 A 
ENDBRANCH   1  21
BRANCH   6  24
ATOM     24  C   UNL     1       1.959   5.672  19.875  0.00  0.00    +0.000 A 
ATOM     25  C   UNL     1       2.733   5.355  21.008  0.00  0.00    +0.000 A 
ATOM     26  C   UNL     1       2.603   4.128  21.670  0.00  0.00    +0.000 A 
ATOM     27  C   UNL     1       1.680   3.178  21.224  0.00  0.00    +0.000 A 
ATOM     28  C   UNL     1       1.487   1.881  21.941  0.00  0.00    +0.000 C 
ATOM     29  C   UNL     1       0.931   3.459  20.078  0.00  0.00    +0.000 A 
ATOM     30  C   UNL     1       1.099   4.667  19.394  0.00  0.00    +0.000 A 
ENDBRANCH   6  24
TORSDOF 3
ENDMDL
MODEL 5
REMARK VINA RESULT:      -7.3      1.390      2.493
REMARK  Name = 
REMARK  5 active torsions:
REMARK  status: ('A' for Active; 'I' for Inactive)
REMARK    1  A    between atoms: C_1  and  C_2
REMARK    2  A    between atoms: C_5  and  C_6
REMARK    3  A    between atoms: C_9  and  C_10
REMARK    4  A    between atoms: C_20  and  C_21
REMARK    5  A    between atoms: C_24  and  C_25
REMARK                            x       y       z     vdW  Elec       q    Type
REMARK                         _______ _______ _______ _____ _____    ______ ____
ROOT
ATOM      1  C   UNL     1      -0.290  10.319  20.611  0.00  0.00    +0.000 A 
ATOM      2  N   UNL     1       0.006  10.450  21.942  0.00  0.00    +0.000 NA
ATOM      3  C   UNL     1      -0.812  11.242  22.679  0.00  0.00    +0.000 A 
ATOM      4  C   UNL     1      -1.906  11.885  22.133  0.00  0.00    +0.000 A 
ATOM      5  N   UNL     1      -2.220  11.753  20.825  0.00  0.00    +0.000 NA
ATOM      6  C   UNL     1      -1.439  10.933  20.063  0.00  0.00    +0.000 A 
ENDROOT
BRANCH   4   7
ATOM      7  C   UNL     1      -2.701  12.835  22.956  0.00  0.00    +0.000 C 
ATOM      8  O   UNL     1      -3.776  12.430  23.402  0.00  0.00    +0.000 OA
ATOM      9  N   UNL     1      -2.224  14.116  23.245  0.00  0.00    +0.000 N 
ATOM     10  C   UNL     1      -2.899  14.908  24.270  0.00  0.00    +0.000 C 
ATOM     11  C   UNL     1      -1.872  15.321  25.324  0.00  0.00    +0.000 C 
ATOM     12  N   UNL     1      -0.727  15.990  24.734  0.00  0.00    +0.000 N 
ATOM     13  C   UNL     1      -0.214  15.635  23.509  0.00  0.00    +0.000 C 
ATOM     14  O   UNL     1       0.875  16.085  23.155  0.00  0.00    +0.000 OA
ATOM     15  C   UNL     1      -1.129  14.832  22.564  0.00  0.00    +0.000 C 
ATOM     16  H   UNL     1      -0.073  16.481  25.331  0.00  0.00    +0.000 HD
ENDBRANCH   4   7
BRANCH   1  21
ATOM     17  C   UNL     1       3.580   7.220  17.562  0.00  0.00    +0.000 C 
ATOM     18  C   UNL     1       2.596   8.013  18.368  0.00  0.00    +0.000 A 
ATOM     19  C   UNL     1       2.189   7.599  19.638  0.00  0.00    +0.000 A 
ATOM     20  C   UNL     1       1.260   8.354  20.365  0.00  0.00    +0.000 A 
ATOM     21  C   UNL     1       0.720   9.547  19.851  0.00  0.00    +0.000 A 
ATOM     22  C   UNL     1       1.189   9.970  18.594  0.00  0.00    +0.000 A 
ATOM     23  C   UNL     1       2.076   9.197  17.844  0.00  0.00    +0.000 A 
ENDBRANCH   1  21
BRANCH   6  24
ATOM     24  C   UNL     1      -1.948  10.785  18.680  0.00  0.00    +0.000 A 
ATOM     25  C   UNL     1      -1.814  11.837  17.753  0.00  0.00    +0.000 A 
ATOM     26  C   UNL     1      -2.231  11.705  16.422  0.00  0.00    +0.000 A 
ATOM     27  C   UNL     1      -2.789  10.505  15.972  0.00  0.00    +0.000 A 
ATOM     28  C   UNL     1      -3.198  10.322  14.546  0.00  0.00    +0.000 C 
ATOM     29  C   UNL     1      -2.965   9.463  16.887  0.00  0.00    +0.000 A 
ATOM     30  C   UNL     1      -2.589   9.618  18.225  0.00  0.00    +0.000 A 
ENDBRANCH   6  24
TORSDOF 3
ENDMDL
MODEL 6
REMARK VINA RESULT:      -7.3      3.232      5.264
REMARK  Name = 
REMARK  5 active torsions:
REMARK  status: ('A' for Active; 'I' for Inactive)
REMARK    1  A    between atoms: C_1  and  C_2
REMARK    2  A    between atoms: C_5  and  C_6
REMARK    3  A    between atoms: C_9  and  C_10
REMARK    4  A    between atoms: C_20  and  C_21
REMARK    5  A    between atoms: C_24  and  C_25
REMARK                            x       y       z     vdW  Elec       q    Type
REMARK                         _______ _______ _______ _____ _____    ______ ____
ROOT
ATOM      1  C   UNL     1      -0.259  12.390  19.280  0.00  0.00    +0.000 A 
ATOM      2  N   UNL     1      -1.283  13.299  19.307  0.00  0.00    +0.000 NA
ATOM      3  C   UNL     1      -2.515  12.848  18.962  0.00  0.00    +0.000 A 
ATOM      4  C   UNL     1      -2.748  11.533  18.607  0.00  0.00    +0.000 A 
ATOM      5  N   UNL     1      -1.751  10.622  18.590  0.00  0.00    +0.000 NA
ATOM      6  C   UNL     1      -0.506  11.033  18.969  0.00  0.00    +0.000 A 
ENDROOT
BRANCH   4   7
ATOM      7  C   UNL     1      -4.091  11.118  18.123  0.00  0.00    +0.000 C 
ATOM      8  O   UNL     1      -4.138  10.494  17.060  0.00  0.00    +0.000 OA
ATOM      9  N   UNL     1      -5.243  11.386  18.865  0.00  0.00    +0.000 N 
ATOM     10  C   UNL     1      -6.494  10.728  18.494  0.00  0.00    +0.000 C 
ATOM     11  C   UNL     1      -7.032   9.979  19.713  0.00  0.00    +0.000 C 
ATOM     12  N   UNL     1      -7.152  10.842  20.873  0.00  0.00    +0.000 N 
ATOM     13  C   UNL     1      -6.255  11.849  21.141  0.00  0.00    +0.000 C 
ATOM     14  O   UNL     1      -6.280  12.406  22.238  0.00  0.00    +0.000 OA
ATOM     15  C   UNL     1      -5.383  12.350  19.973  0.00  0.00    +0.000 C 
ATOM     16  H   UNL     1      -7.672  10.524  21.682  0.00  0.00    +0.000 HD
ENDBRANCH   4   7
BRANCH   1  21
ATOM     17  C   UNL     1       4.910  14.858  20.311  0.00  0.00    +0.000 C 
ATOM     18  C   UNL     1       3.589  14.208  20.028  0.00  0.00    +0.000 A 
ATOM     19  C   UNL     1       3.187  13.907  18.725  0.00  0.00    +0.000 A 
ATOM     20  C   UNL     1       1.943  13.309  18.488  0.00  0.00    +0.000 A 
ATOM     21  C   UNL     1       1.071  12.986  19.542  0.00  0.00    +0.000 A 
ATOM     22  C   UNL     1       1.523  13.250  20.848  0.00  0.00    +0.000 A 
ATOM     23  C   UNL     1       2.740  13.889  21.088  0.00  0.00    +0.000 A 
ENDBRANCH   1  21
BRANCH   6  24
ATOM     24  C   UNL     1       0.473   9.923  19.014  0.00  0.00    +0.000 A 
ATOM     25  C   UNL     1       0.733   9.249  20.223  0.00  0.00    +0.000 A 
ATOM     26  C   UNL     1       1.609   8.157  20.285  0.00  0.00    +0.000 A 
ATOM     27  C   UNL     1       2.246   7.696  19.130  0.00  0.00    +0.000 A 
ATOM     28  C   UNL     1       3.147   6.504  19.160  0.00  0.00    +0.000 C 
ATOM     29  C   UNL     1       2.030   8.376  17.928  0.00  0.00    +0.000 A 
ATOM     30  C   UNL     1       1.191   9.494  17.882  0.00  0.00    +0.000 A 
ENDBRANCH   6  24
TORSDOF 3
ENDMDL
MODEL 7
REMARK VINA RESULT:      -6.9      2.749      4.783
REMARK  Name = 
REMARK  5 active torsions:
REMARK  status: ('A' for Active; 'I' for Inactive)
REMARK    1  A    between atoms: C_1  and  C_2
REMARK    2  A    between atoms: C_5  and  C_6
REMARK    3  A    between atoms: C_9  and  C_10
REMARK    4  A    between atoms: C_20  and  C_21
REMARK    5  A    between atoms: C_24  and  C_25
REMARK                            x       y       z     vdW  Elec       q    Type
REMARK                         _______ _______ _______ _____ _____    ______ ____
ROOT
ATOM      1  C   UNL     1      -1.004  13.575  21.816  0.00  0.00    +0.000 A 
ATOM      2  N   UNL     1      -1.720  14.620  22.336  0.00  0.00    +0.000 NA
ATOM      3  C   UNL     1      -2.808  14.310  23.083  0.00  0.00    +0.000 A 
ATOM      4  C   UNL     1      -3.187  13.005  23.331  0.00  0.00    +0.000 A 
ATOM      5  N   UNL     1      -2.483  11.962  22.837  0.00  0.00    +0.000 NA
ATOM      6  C   UNL     1      -1.360  12.239  22.113  0.00  0.00    +0.000 A 
ENDROOT
BRANCH   4   7
ATOM      7  C   UNL     1      -4.454  12.720  24.055  0.00  0.00    +0.000 C 
ATOM      8  O   UNL     1      -4.360  12.330  25.221  0.00  0.00    +0.000 OA
ATOM      9  N   UNL     1      -5.696  12.928  23.450  0.00  0.00    +0.000 N 
ATOM     10  C   UNL     1      -6.899  12.900  24.278  0.00  0.00    +0.000 C 
ATOM     11  C   UNL     1      -7.653  14.216  24.090  0.00  0.00    +0.000 C 
ATOM     12  N   UNL     1      -7.917  14.497  22.691  0.00  0.00    +0.000 N 
ATOM     13  C   UNL     1      -7.031  14.170  21.692  0.00  0.00    +0.000 C 
ATOM     14  O   UNL     1      -7.204  14.618  20.559  0.00  0.00    +0.000 OA
ATOM     15  C   UNL     1      -5.966  13.102  22.011  0.00  0.00    +0.000 C 
ATOM     16  H   UNL     1      -8.569  15.230  22.443  0.00  0.00    +0.000 HD
ENDBRANCH   4   7
BRANCH   1  21
ATOM     17  C   UNL     1       3.290  15.103  18.196  0.00  0.00    +0.000 C 
ATOM     18  C   UNL     1       2.196  14.719  19.148  0.00  0.00    +0.000 A 
ATOM     19  C   UNL     1       2.476  14.268  20.439  0.00  0.00    +0.000 A 
ATOM     20  C   UNL     1       1.435  13.906  21.303  0.00  0.00    +0.000 A 
ATOM     21  C   UNL     1       0.088  13.995  20.909  0.00  0.00    +0.000 A 
ATOM     22  C   UNL     1      -0.168  14.505  19.624  0.00  0.00    +0.000 A 
ATOM     23  C   UNL     1       0.866  14.821  18.741  0.00  0.00    +0.000 A 
ENDBRANCH   1  21
BRANCH   6  24
ATOM     24  C   UNL     1      -0.618  11.018  21.723  0.00  0.00    +0.000 A 
ATOM     25  C   UNL     1      -0.406  10.714  20.364  0.00  0.00    +0.000 A 
ATOM     26  C   UNL     1       0.343   9.599  19.966  0.00  0.00    +0.000 A 
ATOM     27  C   UNL     1       0.916   8.754  20.921  0.00  0.00    +0.000 A 
ATOM     28  C   UNL     1       1.759   7.586  20.523  0.00  0.00    +0.000 C 
ATOM     29  C   UNL     1       0.684   9.018  22.273  0.00  0.00    +0.000 A 
ATOM     30  C   UNL     1      -0.103  10.106  22.664  0.00  0.00    +0.000 A 
ENDBRANCH   6  24
TORSDOF 3
ENDMDL
MODEL 8
REMARK VINA RESULT:      -6.9      3.509      5.464
REMARK  Name = 
REMARK  5 active torsions:
REMARK  status: ('A' for Active; 'I' for Inactive)
REMARK    1  A    between atoms: C_1  and  C_2
REMARK    2  A    between atoms: C_5  and  C_6
REMARK    3  A    between atoms: C_9  and  C_10
REMARK    4  A    between atoms: C_20  and  C_21
REMARK    5  A    between atoms: C_24  and  C_25
REMARK                            x       y       z     vdW  Elec       q    Type
REMARK                         _______ _______ _______ _____ _____    ______ ____
ROOT
ATOM      1  C   UNL     1       0.291  13.338  19.971  0.00  0.00    +0.000 A 
ATOM      2  N   UNL     1      -0.527  14.367  20.358  0.00  0.00    +0.000 NA
ATOM      3  C   UNL     1      -1.844  14.081  20.514  0.00  0.00    +0.000 A 
ATOM      4  C   UNL     1      -2.355  12.814  20.308  0.00  0.00    +0.000 A 
ATOM      5  N   UNL     1      -1.558  11.786  19.940  0.00  0.00    +0.000 NA
ATOM      6  C   UNL     1      -0.222  12.030  19.812  0.00  0.00    +0.000 A 
ENDROOT
BRANCH   4   7
ATOM      7  C   UNL     1      -3.821  12.581  20.375  0.00  0.00    +0.000 C 
ATOM      8  O   UNL     1      -4.405  12.958  21.394  0.00  0.00    +0.000 OA
ATOM      9  N   UNL     1      -4.511  12.000  19.309  0.00  0.00    +0.000 N 
ATOM     10  C   UNL     1      -5.972  12.040  19.305  0.00  0.00    +0.000 C 
ATOM     11  C   UNL     1      -6.439  12.698  18.007  0.00  0.00    +0.000 C 
ATOM     12  N   UNL     1      -5.872  12.054  16.836  0.00  0.00    +0.000 N 
ATOM     13  C   UNL     1      -4.597  11.542  16.819  0.00  0.00    +0.000 C 
ATOM     14  O   UNL     1      -4.095  11.202  15.748  0.00  0.00    +0.000 OA
ATOM     15  C   UNL     1      -3.933  11.249  18.179  0.00  0.00    +0.000 C 
ATOM     16  H   UNL     1      -6.247  12.264  15.919  0.00  0.00    +0.000 HD
ENDBRANCH   4   7
BRANCH   1  21
ATOM     17  C   UNL     1       5.732  15.116  18.920  0.00  0.00    +0.000 C 
ATOM     18  C   UNL     1       4.331  14.644  19.170  0.00  0.00    +0.000 A 
ATOM     19  C   UNL     1       3.425  14.455  18.125  0.00  0.00    +0.000 A 
ATOM     20  C   UNL     1       2.119  14.024  18.388  0.00  0.00    +0.000 A 
ATOM     21  C   UNL     1       1.684  13.758  19.698  0.00  0.00    +0.000 A 
ATOM     22  C   UNL     1       2.632  13.902  20.728  0.00  0.00    +0.000 A 
ATOM     23  C   UNL     1       3.919  14.379  20.477  0.00  0.00    +0.000 A 
ENDBRANCH   1  21
BRANCH   6  24
ATOM     24  C   UNL     1       0.556  10.805  19.515  0.00  0.00    +0.000 A 
ATOM     25  C   UNL     1       0.738   9.817  20.502  0.00  0.00    +0.000 A 
ATOM     26  C   UNL     1       1.418   8.622  20.232  0.00  0.00    +0.000 A 
ATOM     27  C   UNL     1       1.930   8.372  18.957  0.00  0.00    +0.000 A 
ATOM     28  C   UNL     1       2.616   7.086  18.630  0.00  0.00    +0.000 C 
ATOM     29  C   UNL     1       1.792   9.357  17.975  0.00  0.00    +0.000 A 
ATOM     30  C   UNL     1       1.153  10.568  18.263  0.00  0.00    +0.000 A 
ENDBRANCH   6  24
TORSDOF 3
ENDMDL
MODEL 9
REMARK VINA RESULT:      -6.9      6.180      8.839
REMARK  Name = 
REMARK  5 active torsions:
REMARK  status: ('A' for Active; 'I' for Inactive)
REMARK    1  A    between atoms: C_1  and  C_2
REMARK    2  A    between atoms: C_5  and  C_6
REMARK    3  A    between atoms: C_9  and  C_10
REMARK    4  A    between atoms: C_20  and  C_21
REMARK    5  A    between atoms: C_24  and  C_25
REMARK                            x       y       z     vdW  Elec       q    Type
REMARK                         _______ _______ _______ _____ _____    ______ ____
ROOT
ATOM      1  C   UNL     1       3.413  15.684  20.282  0.00  0.00    +0.000 A 
ATOM      2  N   UNL     1       4.462  16.411  20.780  0.00  0.00    +0.000 NA
ATOM      3  C   UNL     1       5.143  15.873  21.823  0.00  0.00    +0.000 A 
ATOM      4  C   UNL     1       4.816  14.645  22.365  0.00  0.00    +0.000 A 
ATOM      5  N   UNL     1       3.793  13.910  21.875  0.00  0.00    +0.000 NA
ATOM      6  C   UNL     1       3.112  14.404  20.800  0.00  0.00    +0.000 A 
ENDROOT
BRANCH   4   7
ATOM      7  C   UNL     1       5.516  14.156  23.582  0.00  0.00    +0.000 C 
ATOM      8  O   UNL     1       4.915  14.254  24.654  0.00  0.00    +0.000 OA
ATOM      9  N   UNL     1       6.782  13.572  23.502  0.00  0.00    +0.000 N 
ATOM     10  C   UNL     1       7.310  12.864  24.667  0.00  0.00    +0.000 C 
ATOM     11  C   UNL     1       7.671  11.439  24.251  0.00  0.00    +0.000 C 
ATOM     12  N   UNL     1       8.561  11.416  23.105  0.00  0.00    +0.000 N 
ATOM     13  C   UNL     1       8.474  12.331  22.083  0.00  0.00    +0.000 C 
ATOM     14  O   UNL     1       9.105  12.140  21.044  0.00  0.00    +0.000 OA
ATOM     15  C   UNL     1       7.727  13.648  22.373  0.00  0.00    +0.000 C 
ATOM     16  H   UNL     1       9.027  10.554  22.850  0.00  0.00    +0.000 HD
ENDBRANCH   4   7
BRANCH   1  21
ATOM     17  C   UNL     1       0.451  18.588  16.200  0.00  0.00    +0.000 C 
ATOM     18  C   UNL     1       1.193  17.830  17.259  0.00  0.00    +0.000 A 
ATOM     19  C   UNL     1       0.652  17.631  18.531  0.00  0.00    +0.000 A 
ATOM     20  C   UNL     1       1.371  16.928  19.505  0.00  0.00    +0.000 A 
ATOM     21  C   UNL     1       2.643  16.393  19.235  0.00  0.00    +0.000 A 
ATOM     22  C   UNL     1       3.141  16.559  17.930  0.00  0.00    +0.000 A 
ATOM     23  C   UNL     1       2.451  17.301  16.970  0.00  0.00    +0.000 A 
ENDBRANCH   1  21
BRANCH   6  24
ATOM     24  C   UNL     1       2.092  13.460  20.289  0.00  0.00    +0.000 A 
ATOM     25  C   UNL     1       2.302  12.764  19.083  0.00  0.00    +0.000 A 
ATOM     26  C   UNL     1       1.382  11.822  18.605  0.00  0.00    +0.000 A 
ATOM     27  C   UNL     1       0.222  11.535  19.329  0.00  0.00    +0.000 A 
ATOM     28  C   UNL     1      -0.751  10.500  18.866  0.00  0.00    +0.000 C 
ATOM     29  C   UNL     1      -0.023  12.243  20.509  0.00  0.00    +0.000 A 
ATOM     30  C   UNL     1       0.876  13.217  20.957  0.00  0.00    +0.000 A 
ENDBRANCH   6  24
TORSDOF 3
ENDMDL
