MODEL 1
REMARK VINA RESULT:      -8.3      0.000      0.000
REMARK  Name = 
REMARK  5 active torsions:
REMARK  status: ('A' for Active; 'I' for Inactive)
REMARK    1  A    between atoms: C_1  and  O_2
REMARK    2  A    between atoms: O_2  and  C_3
REMARK    3  A    between atoms: C_5  and  C_6
REMARK    4  A    between atoms: C_14  and  C_15
REMARK    5  A    between atoms: C_18  and  C_19
REMARK                            x       y       z     vdW  Elec       q    Type
REMARK                         _______ _______ _______ _____ _____    ______ ____
ROOT
ATOM      1  C   UNL     1       2.605   6.082  19.743  0.00  0.00    +0.000 A 
ATOM      2  N   UNL     1       1.934   6.966  20.527  0.00  0.00    +0.000 NA
ATOM      3  C   UNL     1       1.606   8.173  20.008  0.00  0.00    +0.000 A 
ATOM      4  C   UNL     1       1.970   8.527  18.714  0.00  0.00    +0.000 A 
ATOM      5  C   UNL     1       2.676   7.616  17.930  0.00  0.00    +0.000 A 
ATOM      6  C   UNL     1       3.015   6.356  18.441  0.00  0.00    +0.000 A 
ENDROOT
BRANCH   3   7
ATOM      7  C   UNL     1       0.819   9.061  20.885  0.00  0.00    +0.000 A 
ATOM      8  C   UNL     1       0.151  10.185  20.367  0.00  0.00    +0.000 A 
ATOM      9  C   UNL     1      -0.587  11.036  21.194  0.00  0.00    +0.000 A 
ATOM     10  C   UNL     1      -0.672  10.781  22.561  0.00  0.00    +0.000 A 
ATOM     11  C   UNL     1      -0.015   9.680  23.100  0.00  0.00    +0.000 A 
ATOM     12  C   UNL     1       0.725   8.832  22.270  0.00  0.00    +0.000 A 
ENDBRANCH   3   7
BRANCH   6  13
ATOM     13  C   UNL     1       3.738   5.423  17.587  0.00  0.00    +0.000 A 
ATOM     14  N   UNL     1       3.873   4.107  17.809  0.00  0.00    +0.000 NA
ATOM     15  O   UNL     1       4.644   3.661  16.743  0.00  0.00    +0.000 OA
ATOM     16  C   UNL     1       4.909   4.748  15.964  0.00  0.00    +0.000 A 
ATOM     17  N   UNL     1       4.367   5.851  16.429  0.00  0.00    +0.000 NA
BRANCH  16  18
ATOM     18  C   UNL     1       5.730   4.543  14.781  0.00  0.00    +0.000 A 
ATOM     19  C   UNL     1       5.242   3.758  13.721  0.00  0.00    +0.000 A 
ATOM     20  C   UNL     1       6.002   3.566  12.563  0.00  0.00    +0.000 A 
ATOM     21  C   UNL     1       7.259   4.155  12.446  0.00  0.00    +0.000 A 
ATOM     22  C   UNL     1       7.759   4.930  13.489  0.00  0.00    +0.000 A 
ATOM     23  C   UNL     1       6.998   5.117  14.642  0.00  0.00    +0.000 A 
ATOM     24  F   UNL     1       7.523   5.875  15.616  0.00  0.00    +0.000 F 
ENDBRANCH  16  18
ENDBRANCH   6  13
BRANCH   1  26
ATOM     25  C   UNL     1       1.766   4.210  20.853  0.00  0.00    +0.000 C 
ATOM     26  O   UNL     1       2.907   4.860  20.305  0.00  0.00    +0.000 OA
ENDBRANCH   1  26
TORSDOF 4
ENDMDL
MODEL 2
REMARK VINA RESULT:      -8.1      2.099      8.858
REMARK  Name = 
REMARK  5 active torsions:
REMARK  status: ('A' for Active; 'I' for Inactive)
REMARK    1  A    between atoms: C_1  and  O_2
REMARK    2  A    between atoms: O_2  and  C_3
REMARK    3  A    between atoms: C_5  and  C_6
REMARK    4  A    between atoms: C_14  and  C_15
REMARK    5  A    between atoms: C_18  and  C_19
REMARK                            x       y       z     vdW  Elec       q    Type
REMARK                         _______ _______ _______ _____ _____    ______ ____
ROOT
ATOM      1  C   UNL     1       3.650   4.710  17.433  0.00  0.00    +0.000 A 
ATOM      2  N   UNL     1       4.345   4.337  16.326  0.00  0.00    +0.000 NA
ATOM      3  C   UNL     1       5.033   5.283  15.644  0.00  0.00    +0.000 A 
ATOM      4  C   UNL     1       5.012   6.617  16.036  0.00  0.00    +0.000 A 
ATOM      5  C   UNL     1       4.278   6.986  17.161  0.00  0.00    +0.000 A 
ATOM      6  C   UNL     1       3.568   6.023  17.891  0.00  0.00    +0.000 A 
ENDROOT
BRANCH   3   7
ATOM      7  C   UNL     1       5.823   4.803  14.494  0.00  0.00    +0.000 A 
ATOM      8  C   UNL     1       7.113   5.304  14.240  0.00  0.00    +0.000 A 
ATOM      9  C   UNL     1       7.861   4.861  13.146  0.00  0.00    +0.000 A 
ATOM     10  C   UNL     1       7.333   3.908  12.279  0.00  0.00    +0.000 A 
ATOM     11  C   UNL     1       6.057   3.403  12.502  0.00  0.00    +0.000 A 
ATOM     12  C   UNL     1       5.310   3.849  13.596  0.00  0.00    +0.000 A 
ENDBRANCH   3   7
BRANCH   6  13
ATOM     13  C   UNL     1       2.825   6.443  19.072  0.00  0.00    +0.000 A 
ATOM     14  N   UNL     1       2.620   5.699  20.169  0.00  0.00    +0.000 NA
ATOM     15  O   UNL     1       1.859   6.516  20.995  0.00  0.00    +0.000 OA
ATOM     16  C   UNL     1       1.671   7.690  20.327  0.00  0.00    +0.000 A 
ATOM     17  N   UNL     1       2.253   7.702  19.149  0.00  0.00    +0.000 NA
BRANCH  16  18
ATOM     18  C   UNL     1       0.876   8.716  20.982  0.00  0.00    +0.000 A 
ATOM     19  C   UNL     1       0.810   8.756  22.386  0.00  0.00    +0.000 A 
ATOM     20  C   UNL     1       0.073   9.747  23.040  0.00  0.00    +0.000 A 
ATOM     21  C   UNL     1      -0.610  10.713  22.303  0.00  0.00    +0.000 A 
ATOM     22  C   UNL     1      -0.559  10.683  20.912  0.00  0.00    +0.000 A 
ATOM     23  C   UNL     1       0.176   9.692  20.264  0.00  0.00    +0.000 A 
ATOM     24  F   UNL     1       0.196   9.710  18.923  0.00  0.00    +0.000 F 
ENDBRANCH  16  18
ENDBRANCH   6  13
BRANCH   1  26
ATOM     25  C   UNL     1       3.486   2.417  17.823  0.00  0.00    +0.000 C 
ATOM     26  O   UNL     1       2.976   3.715  18.106  0.00  0.00    +0.000 OA
ENDBRANCH   1  26
TORSDOF 4
ENDMDL
MODEL 3
REMARK VINA RESULT:      -8.0      3.943      5.982
REMARK  Name = 
REMARK  5 active torsions:
REMARK  status: ('A' for Active; 'I' for Inactive)
REMARK    1  A    between atoms: C_1  and  O_2
REMARK    2  A    between atoms: O_2  and  C_3
REMARK    3  A    between atoms: C_5  and  C_6
REMARK    4  A    between atoms: C_14  and  C_15
REMARK    5  A    between atoms: C_18  and  C_19
REMARK                            x       y       z     vdW  Elec       q    Type
REMARK                         _______ _______ _______ _____ _____    ______ ____
ROOT
ATOM      1  C   UNL     1       0.237  10.795  20.488  0.00  0.00    +0.000 A 
ATOM      2  N   UNL     1      -0.507  11.697  21.181  0.00  0.00    +0.000 NA
ATOM      3  C   UNL     1      -0.984  11.345  22.399  0.00  0.00    +0.000 A 
ATOM      4  C   UNL     1      -0.754  10.079  22.928  0.00  0.00    +0.000 A 
ATOM      5  C   UNL     1      -0.006   9.160  22.194  0.00  0.00    +0.000 A 
ATOM      6  C   UNL     1       0.508   9.505  20.938  0.00  0.00    +0.000 A 
ENDROOT
BRANCH   3   7
ATOM      7  C   UNL     1      -1.724  12.391  23.130  0.00  0.00    +0.000 A 
ATOM      8  C   UNL     1      -3.043  12.173  23.569  0.00  0.00    +0.000 A 
ATOM      9  C   UNL     1      -3.753  13.164  24.252  0.00  0.00    +0.000 A 
ATOM     10  C   UNL     1      -3.159  14.397  24.510  0.00  0.00    +0.000 A 
ATOM     11  C   UNL     1      -1.860  14.641  24.080  0.00  0.00    +0.000 A 
ATOM     12  C   UNL     1      -1.152  13.648  23.395  0.00  0.00    +0.000 A 
ENDBRANCH   3   7
BRANCH   6  13
ATOM     13  C   UNL     1       1.299   8.524  20.208  0.00  0.00    +0.000 A 
ATOM     14  N   UNL     1       1.784   8.680  18.967  0.00  0.00    +0.000 NA
ATOM     15  O   UNL     1       2.445   7.487  18.709  0.00  0.00    +0.000 OA
ATOM     16  C   UNL     1       2.306   6.708  19.819  0.00  0.00    +0.000 A 
ATOM     17  N   UNL     1       1.623   7.301  20.772  0.00  0.00    +0.000 NA
BRANCH  16  18
ATOM     18  C   UNL     1       2.900   5.381  19.789  0.00  0.00    +0.000 A 
ATOM     19  C   UNL     1       4.218   5.218  19.326  0.00  0.00    +0.000 A 
ATOM     20  C   UNL     1       4.820   3.957  19.310  0.00  0.00    +0.000 A 
ATOM     21  C   UNL     1       4.117   2.839  19.756  0.00  0.00    +0.000 A 
ATOM     22  C   UNL     1       2.809   2.984  20.211  0.00  0.00    +0.000 A 
ATOM     23  C   UNL     1       2.212   4.243  20.224  0.00  0.00    +0.000 A 
ATOM     24  F   UNL     1       0.952   4.329  20.675  0.00  0.00    +0.000 F 
ENDBRANCH  16  18
ENDBRANCH   6  13
BRANCH   1  26
ATOM     25  C   UNL     1       1.456  12.412  19.331  0.00  0.00    +0.000 C 
ATOM     26  O   UNL     1       0.714  11.199  19.260  0.00  0.00    +0.000 OA
ENDBRANCH   1  26
TORSDOF 4
ENDMDL
MODEL 4
REMARK VINA RESULT:      -7.9      4.128     10.182
REMARK  Name = 
REMARK  5 active torsions:
REMARK  status: ('A' for Active; 'I' for Inactive)
REMARK    1  A    between atoms: C_1  and  O_2
REMARK    2  A    between atoms: O_2  and  C_3
REMARK    3  A    between atoms: C_5  and  C_6
REMARK    4  A    between atoms: C_14  and  C_15
REMARK    5  A    between atoms: C_18  and  C_19
REMARK                            x       y       z     vdW  Elec       q    Type
REMARK                         _______ _______ _______ _____ _____    ______ ____
ROOT
ATOM      1  C   UNL     1       1.484   9.408  18.862  0.00  0.00    +0.000 A 
ATOM      2  N   UNL     1       2.116   8.392  18.218  0.00  0.00    +0.000 NA
ATOM      3  C   UNL     1       2.381   7.254  18.904  0.00  0.00    +0.000 A 
ATOM      4  C   UNL     1       2.048   7.126  20.248  0.00  0.00    +0.000 A 
ATOM      5  C   UNL     1       1.418   8.185  20.899  0.00  0.00    +0.000 A 
ATOM      6  C   UNL     1       1.123   9.367  20.207  0.00  0.00    +0.000 A 
ENDROOT
BRANCH   3   7
ATOM      7  C   UNL     1       3.006   6.164  18.130  0.00  0.00    +0.000 A 
ATOM      8  C   UNL     1       2.436   4.878  18.099  0.00  0.00    +0.000 A 
ATOM      9  C   UNL     1       3.029   3.839  17.377  0.00  0.00    +0.000 A 
ATOM     10  C   UNL     1       4.208   4.064  16.670  0.00  0.00    +0.000 A 
ATOM     11  C   UNL     1       4.796   5.324  16.691  0.00  0.00    +0.000 A 
ATOM     12  C   UNL     1       4.201   6.361  17.416  0.00  0.00    +0.000 A 
ENDBRANCH   3   7
BRANCH   6  13
ATOM     13  C   UNL     1       0.449  10.446  20.916  0.00  0.00    +0.000 A 
ATOM     14  N   UNL     1       1.056  11.464  21.545  0.00  0.00    +0.000 NA
ATOM     15  O   UNL     1       0.009  12.209  22.071  0.00  0.00    +0.000 OA
ATOM     16  C   UNL     1      -1.146  11.580  21.712  0.00  0.00    +0.000 A 
ATOM     17  N   UNL     1      -0.933  10.500  20.993  0.00  0.00    +0.000 NA
BRANCH  16  18
ATOM     18  C   UNL     1      -2.399  12.161  22.167  0.00  0.00    +0.000 A 
ATOM     19  C   UNL     1      -2.756  12.070  23.525  0.00  0.00    +0.000 A 
ATOM     20  C   UNL     1      -3.943  12.642  23.992  0.00  0.00    +0.000 A 
ATOM     21  C   UNL     1      -4.791  13.312  23.112  0.00  0.00    +0.000 A 
ATOM     22  C   UNL     1      -4.454  13.405  21.765  0.00  0.00    +0.000 A 
ATOM     23  C   UNL     1      -3.270  12.832  21.303  0.00  0.00    +0.000 A 
ATOM     24  F   UNL     1      -2.990  12.953  19.997  0.00  0.00    +0.000 F 
ENDBRANCH  16  18
ENDBRANCH   6  13
BRANCH   1  26
ATOM     25  C   UNL     1       2.343  11.413  18.038  0.00  0.00    +0.000 C 
ATOM     26  O   UNL     1       1.221  10.541  18.125  0.00  0.00    +0.000 OA
ENDBRANCH   1  26
TORSDOF 4
ENDMDL
MODEL 5
REMARK VINA RESULT:      -7.9      3.756      5.726
REMARK  Name = 
REMARK  5 active torsions:
REMARK  status: ('A' for Active; 'I' for Inactive)
REMARK    1  A    between atoms: C_1  and  O_2
REMARK    2  A    between atoms: O_2  and  C_3
REMARK    3  A    between atoms: C_5  and  C_6
REMARK    4  A    between atoms: C_14  and  C_15
REMARK    5  A    between atoms: C_18  and  C_19
REMARK                            x       y       z     vdW  Elec       q    Type
REMARK                         _______ _______ _______ _____ _____    ______ ____
ROOT
ATOM      1  C   UNL     1      -0.123  10.412  20.417  0.00  0.00    +0.000 A 
ATOM      2  N   UNL     1      -0.868  11.328  21.090  0.00  0.00    +0.000 NA
ATOM      3  C   UNL     1      -0.992  11.202  22.432  0.00  0.00    +0.000 A 
ATOM      4  C   UNL     1      -0.404  10.145  23.118  0.00  0.00    +0.000 A 
ATOM      5  C   UNL     1       0.340   9.203  22.409  0.00  0.00    +0.000 A 
ATOM      6  C   UNL     1       0.494   9.319  21.021  0.00  0.00    +0.000 A 
ENDROOT
BRANCH   3   7
ATOM      7  C   UNL     1      -1.756  12.266  23.113  0.00  0.00    +0.000 A 
ATOM      8  C   UNL     1      -3.077  12.047  23.545  0.00  0.00    +0.000 A 
ATOM      9  C   UNL     1      -3.808  13.054  24.180  0.00  0.00    +0.000 A 
ATOM     10  C   UNL     1      -3.234  14.304  24.395  0.00  0.00    +0.000 A 
ATOM     11  C   UNL     1      -1.933  14.550  23.971  0.00  0.00    +0.000 A 
ATOM     12  C   UNL     1      -1.204  13.541  23.334  0.00  0.00    +0.000 A 
ENDBRANCH   3   7
BRANCH   6  13
ATOM     13  C   UNL     1       1.293   8.325  20.317  0.00  0.00    +0.000 A 
ATOM     14  N   UNL     1       1.893   8.506  19.131  0.00  0.00    +0.000 NA
ATOM     15  O   UNL     1       2.509   7.288  18.875  0.00  0.00    +0.000 OA
ATOM     16  C   UNL     1       2.232   6.473  19.932  0.00  0.00    +0.000 A 
ATOM     17  N   UNL     1       1.500   7.064  20.850  0.00  0.00    +0.000 NA
BRANCH  16  18
ATOM     18  C   UNL     1       2.755   5.117  19.891  0.00  0.00    +0.000 A 
ATOM     19  C   UNL     1       1.931   4.042  20.271  0.00  0.00    +0.000 A 
ATOM     20  C   UNL     1       2.401   2.726  20.217  0.00  0.00    +0.000 A 
ATOM     21  C   UNL     1       3.700   2.464  19.784  0.00  0.00    +0.000 A 
ATOM     22  C   UNL     1       4.529   3.518  19.410  0.00  0.00    +0.000 A 
ATOM     23  C   UNL     1       4.056   4.828  19.467  0.00  0.00    +0.000 A 
ATOM     24  F   UNL     1       4.893   5.807  19.093  0.00  0.00    +0.000 F 
ENDBRANCH  16  18
ENDBRANCH   6  13
BRANCH   1  26
ATOM     25  C   UNL     1      -1.272  10.592  18.395  0.00  0.00    +0.000 C 
ATOM     26  O   UNL     1      -0.010  10.585  19.055  0.00  0.00    +0.000 OA
ENDBRANCH   1  26
TORSDOF 4
ENDMDL
MODEL 6
REMARK VINA RESULT:      -7.9      3.840      5.764
REMARK  Name = 
REMARK  5 active torsions:
REMARK  status: ('A' for Active; 'I' for Inactive)
REMARK    1  A    between atoms: C_1  and  O_2
REMARK    2  A    between atoms: O_2  and  C_3
REMARK    3  A    between atoms: C_5  and  C_6
REMARK    4  A    between atoms: C_14  and  C_15
REMARK    5  A    between atoms: C_18  and  C_19
REMARK                            x       y       z     vdW  Elec       q    Type
REMARK                         _______ _______ _______ _____ _____    ______ ____
ROOT
ATOM      1  C   UNL     1      -0.181  10.596  20.196  0.00  0.00    +0.000 A 
ATOM      2  N   UNL     1      -0.922  11.472  20.924  0.00  0.00    +0.000 NA
ATOM      3  C   UNL     1      -0.978  11.314  22.268  0.00  0.00    +0.000 A 
ATOM      4  C   UNL     1      -0.325  10.262  22.900  0.00  0.00    +0.000 A 
ATOM      5  C   UNL     1       0.414   9.360  22.136  0.00  0.00    +0.000 A 
ATOM      6  C   UNL     1       0.498   9.511  20.746  0.00  0.00    +0.000 A 
ENDROOT
BRANCH   3   7
ATOM      7  C   UNL     1      -1.742  12.337  23.007  0.00  0.00    +0.000 A 
ATOM      8  C   UNL     1      -1.157  13.569  23.353  0.00  0.00    +0.000 A 
ATOM      9  C   UNL     1      -1.871  14.538  24.062  0.00  0.00    +0.000 A 
ATOM     10  C   UNL     1      -3.188  14.294  24.445  0.00  0.00    +0.000 A 
ATOM     11  C   UNL     1      -3.787  13.082  24.123  0.00  0.00    +0.000 A 
ATOM     12  C   UNL     1      -3.069  12.114  23.414  0.00  0.00    +0.000 A 
ENDBRANCH   3   7
BRANCH   6  13
ATOM     13  C   UNL     1       1.293   8.559  19.983  0.00  0.00    +0.000 A 
ATOM     14  N   UNL     1       1.682   8.713  18.708  0.00  0.00    +0.000 NA
ATOM     15  O   UNL     1       2.392   7.554  18.428  0.00  0.00    +0.000 OA
ATOM     16  C   UNL     1       2.376   6.795  19.561  0.00  0.00    +0.000 A 
ATOM     17  N   UNL     1       1.725   7.370  20.547  0.00  0.00    +0.000 NA
BRANCH  16  18
ATOM     18  C   UNL     1       3.042   5.503  19.515  0.00  0.00    +0.000 A 
ATOM     19  C   UNL     1       4.427   5.443  19.274  0.00  0.00    +0.000 A 
ATOM     20  C   UNL     1       5.096   4.215  19.250  0.00  0.00    +0.000 A 
ATOM     21  C   UNL     1       4.394   3.031  19.467  0.00  0.00    +0.000 A 
ATOM     22  C   UNL     1       3.022   3.075  19.701  0.00  0.00    +0.000 A 
ATOM     23  C   UNL     1       2.359   4.301  19.722  0.00  0.00    +0.000 A 
ATOM     24  F   UNL     1       1.039   4.288  19.956  0.00  0.00    +0.000 F 
ENDBRANCH  16  18
ENDBRANCH   6  13
BRANCH   1  26
ATOM     25  C   UNL     1      -1.387  10.544  18.201  0.00  0.00    +0.000 C 
ATOM     26  O   UNL     1      -0.139  10.801  18.834  0.00  0.00    +0.000 OA
ENDBRANCH   1  26
TORSDOF 4
ENDMDL
MODEL 7
REMARK VINA RESULT:      -7.9      4.219     10.068
REMARK  Name = 
REMARK  5 active torsions:
REMARK  status: ('A' for Active; 'I' for Inactive)
REMARK    1  A    between atoms: C_1  and  O_2
REMARK    2  A    between atoms: O_2  and  C_3
REMARK    3  A    between atoms: C_5  and  C_6
REMARK    4  A    between atoms: C_14  and  C_15
REMARK    5  A    between atoms: C_18  and  C_19
REMARK                            x       y       z     vdW  Elec       q    Type
REMARK                         _______ _______ _______ _____ _____    ______ ____
ROOT
ATOM      1  C   UNL     1       1.529   9.291  18.773  0.00  0.00    +0.000 A 
ATOM      2  N   UNL     1       2.164   8.260  18.154  0.00  0.00    +0.000 NA
ATOM      3  C   UNL     1       2.411   7.133  18.861  0.00  0.00    +0.000 A 
ATOM      4  C   UNL     1       2.059   7.028  20.202  0.00  0.00    +0.000 A 
ATOM      5  C   UNL     1       1.427   8.102  20.827  0.00  0.00    +0.000 A 
ATOM      6  C   UNL     1       1.149   9.275  20.113  0.00  0.00    +0.000 A 
ENDROOT
BRANCH   3   7
ATOM      7  C   UNL     1       3.039   6.026  18.114  0.00  0.00    +0.000 A 
ATOM      8  C   UNL     1       4.281   6.196  17.475  0.00  0.00    +0.000 A 
ATOM      9  C   UNL     1       4.876   5.156  16.757  0.00  0.00    +0.000 A 
ATOM     10  C   UNL     1       4.239   3.921  16.660  0.00  0.00    +0.000 A 
ATOM     11  C   UNL     1       3.007   3.728  17.276  0.00  0.00    +0.000 A 
ATOM     12  C   UNL     1       2.414   4.772  17.992  0.00  0.00    +0.000 A 
ENDBRANCH   3   7
BRANCH   6  13
ATOM     13  C   UNL     1       0.473  10.369  20.795  0.00  0.00    +0.000 A 
ATOM     14  N   UNL     1       1.033  11.193  21.694  0.00  0.00    +0.000 NA
ATOM     15  O   UNL     1       0.001  12.045  22.062  0.00  0.00    +0.000 OA
ATOM     16  C   UNL     1      -1.099  11.666  21.351  0.00  0.00    +0.000 A 
ATOM     17  N   UNL     1      -0.861  10.651  20.551  0.00  0.00    +0.000 NA
BRANCH  16  18
ATOM     18  C   UNL     1      -2.333  12.400  21.579  0.00  0.00    +0.000 A 
ATOM     19  C   UNL     1      -2.822  13.265  20.583  0.00  0.00    +0.000 A 
ATOM     20  C   UNL     1      -4.020  13.964  20.767  0.00  0.00    +0.000 A 
ATOM     21  C   UNL     1      -4.746  13.809  21.946  0.00  0.00    +0.000 A 
ATOM     22  C   UNL     1      -4.272  12.962  22.943  0.00  0.00    +0.000 A 
ATOM     23  C   UNL     1      -3.077  12.268  22.756  0.00  0.00    +0.000 A 
ATOM     24  F   UNL     1      -2.666  11.461  23.745  0.00  0.00    +0.000 F 
ENDBRANCH  16  18
ENDBRANCH   6  13
BRANCH   1  26
ATOM     25  C   UNL     1       2.389  11.312  17.988  0.00  0.00    +0.000 C 
ATOM     26  O   UNL     1       1.284  10.414  18.013  0.00  0.00    +0.000 OA
ENDBRANCH   1  26
TORSDOF 4
ENDMDL
MODEL 8
REMARK VINA RESULT:      -7.8      3.103      5.328
REMARK  Name = 
REMARK  5 active torsions:
REMARK  status: ('A' for Active; 'I' for Inactive)
REMARK    1  A    between atoms: C_1  and  O_2
REMARK    2  A    between atoms: O_2  and  C_3
REMARK    3  A    between atoms: C_5  and  C_6
REMARK    4  A    between atoms: C_14  and  C_15
REMARK    5  A    between atoms: C_18  and  C_19
REMARK                            x       y       z     vdW  Elec       q    Type
REMARK                         _______ _______ _______ _____ _____    ______ ____
ROOT
ATOM      1  C   UNL     1       0.005  11.373  19.658  0.00  0.00    +0.000 A 
ATOM      2  N   UNL     1      -0.726  12.094  20.549  0.00  0.00    +0.000 NA
ATOM      3  C   UNL     1      -0.865  11.618  21.809  0.00  0.00    +0.000 A 
ATOM      4  C   UNL     1      -0.307  10.403  22.189  0.00  0.00    +0.000 A 
ATOM      5  C   UNL     1       0.422   9.666  21.257  0.00  0.00    +0.000 A 
ATOM      6  C   UNL     1       0.591  10.144  19.951  0.00  0.00    +0.000 A 
ENDROOT
BRANCH   3   7
ATOM      7  C   UNL     1      -1.610  12.480  22.746  0.00  0.00    +0.000 A 
ATOM      8  C   UNL     1      -1.073  13.701  23.192  0.00  0.00    +0.000 A 
ATOM      9  C   UNL     1      -1.769  14.517  24.088  0.00  0.00    +0.000 A 
ATOM     10  C   UNL     1      -3.020  14.127  24.560  0.00  0.00    +0.000 A 
ATOM     11  C   UNL     1      -3.571  12.921  24.142  0.00  0.00    +0.000 A 
ATOM     12  C   UNL     1      -2.871  12.106  23.246  0.00  0.00    +0.000 A 
ENDBRANCH   3   7
BRANCH   6  13
ATOM     13  C   UNL     1       1.373   9.354  19.010  0.00  0.00    +0.000 A 
ATOM     14  N   UNL     1       1.811   9.776  17.814  0.00  0.00    +0.000 NA
ATOM     15  O   UNL     1       2.484   8.679  17.293  0.00  0.00    +0.000 OA
ATOM     16  C   UNL     1       2.400   7.685  18.222  0.00  0.00    +0.000 A 
ATOM     17  N   UNL     1       1.740   8.050  19.298  0.00  0.00    +0.000 NA
BRANCH  16  18
ATOM     18  C   UNL     1       3.017   6.408  17.900  0.00  0.00    +0.000 A 
ATOM     19  C   UNL     1       2.250   5.230  17.959  0.00  0.00    +0.000 A 
ATOM     20  C   UNL     1       2.813   3.993  17.630  0.00  0.00    +0.000 A 
ATOM     21  C   UNL     1       4.148   3.913  17.237  0.00  0.00    +0.000 A 
ATOM     22  C   UNL     1       4.920   5.070  17.179  0.00  0.00    +0.000 A 
ATOM     23  C   UNL     1       4.355   6.301  17.509  0.00  0.00    +0.000 A 
ATOM     24  F   UNL     1       5.141   7.385  17.433  0.00  0.00    +0.000 F 
ENDBRANCH  16  18
ENDBRANCH   6  13
BRANCH   1  26
ATOM     25  C   UNL     1      -0.271  13.262  18.319  0.00  0.00    +0.000 C 
ATOM     26  O   UNL     1       0.133  11.899  18.392  0.00  0.00    +0.000 OA
ENDBRANCH   1  26
TORSDOF 4
ENDMDL
MODEL 9
REMARK VINA RESULT:      -7.8      4.264      6.202
REMARK  Name = 
REMARK  5 active torsions:
REMARK  status: ('A' for Active; 'I' for Inactive)
REMARK    1  A    between atoms: C_1  and  O_2
REMARK    2  A    between atoms: O_2  and  C_3
REMARK    3  A    between atoms: C_5  and  C_6
REMARK    4  A    between atoms: C_14  and  C_15
REMARK    5  A    between atoms: C_18  and  C_19
REMARK                            x       y       z     vdW  Elec       q    Type
REMARK                         _______ _______ _______ _____ _____    ______ ____
ROOT
ATOM      1  C   UNL     1      -0.203  10.445  20.640  0.00  0.00    +0.000 A 
ATOM      2  N   UNL     1      -0.928  11.424  21.243  0.00  0.00    +0.000 NA
ATOM      3  C   UNL     1      -1.159  11.334  22.574  0.00  0.00    +0.000 A 
ATOM      4  C   UNL     1      -0.699  10.252  23.317  0.00  0.00    +0.000 A 
ATOM      5  C   UNL     1       0.025   9.246  22.679  0.00  0.00    +0.000 A 
ATOM      6  C   UNL     1       0.288   9.323  21.305  0.00  0.00    +0.000 A 
ENDROOT
BRANCH   3   7
ATOM      7  C   UNL     1      -1.892  12.462  23.180  0.00  0.00    +0.000 A 
ATOM      8  C   UNL     1      -3.235  12.326  23.574  0.00  0.00    +0.000 A 
ATOM      9  C   UNL     1      -3.938  13.394  24.139  0.00  0.00    +0.000 A 
ATOM     10  C   UNL     1      -3.311  14.624  24.320  0.00  0.00    +0.000 A 
ATOM     11  C   UNL     1      -1.986  14.788  23.932  0.00  0.00    +0.000 A 
ATOM     12  C   UNL     1      -1.286  13.718  23.365  0.00  0.00    +0.000 A 
ENDBRANCH   3   7
BRANCH   6  13
ATOM     13  C   UNL     1       1.063   8.262  20.677  0.00  0.00    +0.000 A 
ATOM     14  N   UNL     1       2.043   8.440  19.779  0.00  0.00    +0.000 NA
ATOM     15  O   UNL     1       2.458   7.151  19.471  0.00  0.00    +0.000 OA
ATOM     16  C   UNL     1       1.694   6.300  20.214  0.00  0.00    +0.000 A 
ATOM     17  N   UNL     1       0.831   6.930  20.979  0.00  0.00    +0.000 NA
BRANCH  16  18
ATOM     18  C   UNL     1       1.924   4.874  20.052  0.00  0.00    +0.000 A 
ATOM     19  C   UNL     1       2.286   4.096  21.167  0.00  0.00    +0.000 A 
ATOM     20  C   UNL     1       2.488   2.718  21.042  0.00  0.00    +0.000 A 
ATOM     21  C   UNL     1       2.333   2.096  19.805  0.00  0.00    +0.000 A 
ATOM     22  C   UNL     1       1.981   2.854  18.691  0.00  0.00    +0.000 A 
ATOM     23  C   UNL     1       1.781   4.228  18.820  0.00  0.00    +0.000 A 
ATOM     24  F   UNL     1       1.440   4.911  17.717  0.00  0.00    +0.000 F 
ENDBRANCH  16  18
ENDBRANCH   6  13
BRANCH   1  26
ATOM     25  C   UNL     1       0.752  11.761  18.969  0.00  0.00    +0.000 C 
ATOM     26  O   UNL     1       0.021  10.582  19.288  0.00  0.00    +0.000 OA
ENDBRANCH   1  26
TORSDOF 4
ENDMDL
