MODEL 1
REMARK VINA RESULT:      -7.0      0.000      0.000
REMARK  Name = 
REMARK  8 active torsions:
REMARK  status: ('A' for Active; 'I' for Inactive)
REMARK    1  A    between atoms: C_1  and  C_2
REMARK    2  A    between atoms: C_2  and  N_3
REMARK    3  A    between atoms: C_4  and  C_6
REMARK    4  A    between atoms: C_9  and  C_10
REMARK    5  A    between atoms: C_14  and  O_15
REMARK    6  A    between atoms: C_17  and  O_18
REMARK    7  A    between atoms: C_19  and  N_20
REMARK    8  A    between atoms: C_21  and  C_23
REMARK                            x       y       z     vdW  Elec       q    Type
REMARK                         _______ _______ _______ _____ _____    ______ ____
ROOT
ATOM      1  C   UNL     1      -0.976  11.635  18.055  0.00  0.00    +0.000 A 
ATOM      2  N   UNL     1      -1.411  12.881  18.319  0.00  0.00    +0.000 NA
ATOM      3  O   UNL     1      -0.343  13.539  18.873  0.00  0.00    +0.000 OA
ATOM      4  C   UNL     1       0.755  12.726  18.912  0.00  0.00    +0.000 A 
ATOM      5  C   UNL     1       0.402  11.495  18.395  0.00  0.00    +0.000 A 
ENDROOT
BRANCH   4   6
ATOM      6  C   UNL     1       1.964  13.373  19.412  0.00  0.00    +0.000 A 
ATOM      7  C   UNL     1       2.991  13.704  18.498  0.00  0.00    +0.000 A 
ATOM      8  C   UNL     1       4.115  14.417  18.915  0.00  0.00    +0.000 A 
ATOM      9 CL   UNL     1       5.325  14.847  17.767  0.00  0.00    +0.000 Cl
ATOM     10  C   UNL     1       4.238  14.799  20.249  0.00  0.00    +0.000 A 
ATOM     11  C   UNL     1       3.263  14.443  21.178  0.00  0.00    +0.000 A 
ATOM     12  C   UNL     1       2.136  13.729  20.758  0.00  0.00    +0.000 A 
BRANCH  10  13
ATOM     13  O   UNL     1       5.295  15.535  20.699  0.00  0.00    +0.000 OA
ATOM     14  H   UNL     1       4.988  16.456  20.801  0.00  0.00    +0.000 HD
ENDBRANCH  10  13
BRANCH  12  15
ATOM     15  O   UNL     1       1.182  13.394  21.683  0.00  0.00    +0.000 OA
ATOM     16  H   UNL     1       0.579  14.156  21.786  0.00  0.00    +0.000 HD
ENDBRANCH  12  15
ENDBRANCH   4   6
BRANCH   1  18
ATOM     17  N   UNL     1      -2.222  10.721  16.235  0.00  0.00    +0.000 N 
ATOM     18  C   UNL     1      -1.903  10.608  17.575  0.00  0.00    +0.000 C 
ATOM     19  O   UNL     1      -2.381   9.749  18.304  0.00  0.00    +0.000 OA
ATOM     20  H   UNL     1      -1.672  11.366  15.683  0.00  0.00    +0.000 HD
BRANCH  17  22
ATOM     21  C   UNL     1      -3.344  10.091  14.148  0.00  0.00    +0.000 C 
ATOM     22  C   UNL     1      -3.103   9.768  15.607  0.00  0.00    +0.000 C 
ENDBRANCH  17  22
ENDBRANCH   1  18
BRANCH   5  23
ATOM     23  N   UNL     1       1.256  10.408  18.205  0.00  0.00    +0.000 N 
ATOM     24  C   UNL     1       1.320   9.421  19.181  0.00  0.00    +0.000 C 
ATOM     25  O   UNL     1       0.658   9.434  20.216  0.00  0.00    +0.000 OA
ATOM     26  H   UNL     1       1.438  10.146  17.240  0.00  0.00    +0.000 HD
BRANCH  24  27
ATOM     27  C   UNL     1       2.136   8.213  18.869  0.00  0.00    +0.000 A 
ATOM     28  C   UNL     1       2.923   8.105  17.714  0.00  0.00    +0.000 A 
ATOM     29  C   UNL     1       3.681   6.947  17.494  0.00  0.00    +0.000 A 
ATOM     30  C   UNL     1       3.652   5.902  18.420  0.00  0.00    +0.000 A 
ATOM     31 BR   UNL     1       4.666   4.337  18.111  0.00  0.00    +0.000 Br
ATOM     32  C   UNL     1       2.884   6.007  19.576  0.00  0.00    +0.000 A 
ATOM     33  C   UNL     1       2.133   7.163  19.801  0.00  0.00    +0.000 A 
ENDBRANCH  24  27
ENDBRANCH   5  23
TORSDOF 7
ENDMDL
MODEL 2
REMARK VINA RESULT:      -6.9      4.438      6.758
REMARK  Name = 
REMARK  8 active torsions:
REMARK  status: ('A' for Active; 'I' for Inactive)
REMARK    1  A    between atoms: C_1  and  C_2
REMARK    2  A    between atoms: C_2  and  N_3
REMARK    3  A    between atoms: C_4  and  C_6
REMARK    4  A    between atoms: C_9  and  C_10
REMARK    5  A    between atoms: C_14  and  O_15
REMARK    6  A    between atoms: C_17  and  O_18
REMARK    7  A    between atoms: C_19  and  N_20
REMARK    8  A    between atoms: C_21  and  C_23
REMARK                            x       y       z     vdW  Elec       q    Type
REMARK                         _______ _______ _______ _____ _____    ______ ____
ROOT
ATOM      1  C   UNL     1       0.889   8.958  21.419  0.00  0.00    +0.000 A 
ATOM      2  N   UNL     1       1.414   9.238  22.627  0.00  0.00    +0.000 NA
ATOM      3  O   UNL     1       0.730  10.334  23.087  0.00  0.00    +0.000 OA
ATOM      4  C   UNL     1      -0.238  10.706  22.196  0.00  0.00    +0.000 A 
ATOM      5  C   UNL     1      -0.180   9.852  21.112  0.00  0.00    +0.000 A 
ENDROOT
BRANCH   4   6
ATOM      6  C   UNL     1      -1.071  11.816  22.645  0.00  0.00    +0.000 A 
ATOM      7  C   UNL     1      -2.315  11.536  23.255  0.00  0.00    +0.000 A 
ATOM      8  C   UNL     1      -3.094  12.561  23.793  0.00  0.00    +0.000 A 
ATOM      9 CL   UNL     1      -4.582  12.182  24.572  0.00  0.00    +0.000 Cl
ATOM     10  C   UNL     1      -2.650  13.880  23.718  0.00  0.00    +0.000 A 
ATOM     11  C   UNL     1      -1.452  14.186  23.079  0.00  0.00    +0.000 A 
ATOM     12  C   UNL     1      -0.671  13.157  22.542  0.00  0.00    +0.000 A 
BRANCH  10  13
ATOM     13  O   UNL     1      -3.352  14.913  24.266  0.00  0.00    +0.000 OA
ATOM     14  H   UNL     1      -4.174  14.542  24.643  0.00  0.00    +0.000 HD
ENDBRANCH  10  13
BRANCH  12  15
ATOM     15  O   UNL     1       0.510  13.476  21.924  0.00  0.00    +0.000 OA
ATOM     16  H   UNL     1       1.191  12.844  22.228  0.00  0.00    +0.000 HD
ENDBRANCH  12  15
ENDBRANCH   4   6
BRANCH   1  18
ATOM     17  N   UNL     1       1.608   6.693  21.201  0.00  0.00    +0.000 N 
ATOM     18  C   UNL     1       1.476   7.917  20.574  0.00  0.00    +0.000 C 
ATOM     19  O   UNL     1       1.847   8.122  19.426  0.00  0.00    +0.000 OA
ATOM     20  H   UNL     1       1.143   6.579  22.092  0.00  0.00    +0.000 HD
BRANCH  17  22
ATOM     21  C   UNL     1       1.183   4.390  20.473  0.00  0.00    +0.000 C 
ATOM     22  C   UNL     1       2.146   5.559  20.491  0.00  0.00    +0.000 C 
ENDBRANCH  17  22
ENDBRANCH   1  18
BRANCH   5  23
ATOM     23  N   UNL     1      -1.041   9.860  20.014  0.00  0.00    +0.000 N 
ATOM     24  C   UNL     1      -0.838  10.791  19.004  0.00  0.00    +0.000 C 
ATOM     25  O   UNL     1       0.069  11.620  19.005  0.00  0.00    +0.000 OA
ATOM     26  H   UNL     1      -1.463   8.967  19.772  0.00  0.00    +0.000 HD
BRANCH  24  27
ATOM     27  C   UNL     1      -1.692  10.668  17.788  0.00  0.00    +0.000 A 
ATOM     28  C   UNL     1      -2.732  11.563  17.497  0.00  0.00    +0.000 A 
ATOM     29  C   UNL     1      -3.484  11.398  16.326  0.00  0.00    +0.000 A 
ATOM     30  C   UNL     1      -3.201  10.348  15.451  0.00  0.00    +0.000 A 
ATOM     31 BR   UNL     1      -4.228  10.123  13.880  0.00  0.00    +0.000 Br
ATOM     32  C   UNL     1      -2.162   9.463  15.726  0.00  0.00    +0.000 A 
ATOM     33  C   UNL     1      -1.408   9.628  16.890  0.00  0.00    +0.000 A 
ENDBRANCH  24  27
ENDBRANCH   5  23
TORSDOF 7
ENDMDL
MODEL 3
REMARK VINA RESULT:      -6.9      5.154      8.555
REMARK  Name = 
REMARK  8 active torsions:
REMARK  status: ('A' for Active; 'I' for Inactive)
REMARK    1  A    between atoms: C_1  and  C_2
REMARK    2  A    between atoms: C_2  and  N_3
REMARK    3  A    between atoms: C_4  and  C_6
REMARK    4  A    between atoms: C_9  and  C_10
REMARK    5  A    between atoms: C_14  and  O_15
REMARK    6  A    between atoms: C_17  and  O_18
REMARK    7  A    between atoms: C_19  and  N_20
REMARK    8  A    between atoms: C_21  and  C_23
REMARK                            x       y       z     vdW  Elec       q    Type
REMARK                         _______ _______ _______ _____ _____    ______ ____
ROOT
ATOM      1  C   UNL     1       3.384   3.078  20.200  0.00  0.00    +0.000 A 
ATOM      2  N   UNL     1       2.655   3.263  21.316  0.00  0.00    +0.000 NA
ATOM      3  O   UNL     1       2.219   4.563  21.267  0.00  0.00    +0.000 OA
ATOM      4  C   UNL     1       2.635   5.165  20.113  0.00  0.00    +0.000 A 
ATOM      5  C   UNL     1       3.381   4.254  19.392  0.00  0.00    +0.000 A 
ENDROOT
BRANCH   4   6
ATOM      6  C   UNL     1       2.145   6.528  19.937  0.00  0.00    +0.000 A 
ATOM      7  C   UNL     1       1.484   7.163  21.015  0.00  0.00    +0.000 A 
ATOM      8  C   UNL     1       1.094   8.499  20.926  0.00  0.00    +0.000 A 
ATOM      9 CL   UNL     1       0.336   9.256  22.274  0.00  0.00    +0.000 Cl
ATOM     10  C   UNL     1       1.345   9.218  19.759  0.00  0.00    +0.000 A 
ATOM     11  C   UNL     1       1.949   8.602  18.667  0.00  0.00    +0.000 A 
ATOM     12  C   UNL     1       2.341   7.262  18.757  0.00  0.00    +0.000 A 
BRANCH  10  13
ATOM     13  O   UNL     1       1.023  10.538  19.638  0.00  0.00    +0.000 OA
ATOM     14  H   UNL     1       0.083  10.588  19.378  0.00  0.00    +0.000 HD
ENDBRANCH  10  13
BRANCH  12  15
ATOM     15  O   UNL     1       2.943   6.674  17.676  0.00  0.00    +0.000 OA
ATOM     16  H   UNL     1       3.866   6.464  17.919  0.00  0.00    +0.000 HD
ENDBRANCH  12  15
ENDBRANCH   4   6
BRANCH   1  18
ATOM     17  N   UNL     1       4.982   1.506  21.019  0.00  0.00    +0.000 N 
ATOM     18  C   UNL     1       4.120   1.830  19.989  0.00  0.00    +0.000 C 
ATOM     19  O   UNL     1       4.007   1.154  18.975  0.00  0.00    +0.000 OA
ATOM     20  H   UNL     1       4.901   2.040  21.873  0.00  0.00    +0.000 HD
BRANCH  17  22
ATOM     21  C   UNL     1       6.346  -0.062  22.321  0.00  0.00    +0.000 C 
ATOM     22  C   UNL     1       5.758   0.292  20.971  0.00  0.00    +0.000 C 
ENDBRANCH  17  22
ENDBRANCH   1  18
BRANCH   5  23
ATOM     23  N   UNL     1       3.935   4.461  18.128  0.00  0.00    +0.000 N 
ATOM     24  C   UNL     1       5.316   4.508  17.995  0.00  0.00    +0.000 C 
ATOM     25  O   UNL     1       6.102   4.368  18.930  0.00  0.00    +0.000 OA
ATOM     26  H   UNL     1       3.383   4.131  17.340  0.00  0.00    +0.000 HD
BRANCH  24  27
ATOM     27  C   UNL     1       5.861   4.589  16.610  0.00  0.00    +0.000 A 
ATOM     28  C   UNL     1       7.157   5.044  16.328  0.00  0.00    +0.000 A 
ATOM     29  C   UNL     1       7.611   5.077  15.003  0.00  0.00    +0.000 A 
ATOM     30  C   UNL     1       6.776   4.659  13.964  0.00  0.00    +0.000 A 
ATOM     31 BR   UNL     1       7.389   4.719  12.177  0.00  0.00    +0.000 Br
ATOM     32  C   UNL     1       5.493   4.194  14.236  0.00  0.00    +0.000 A 
ATOM     33  C   UNL     1       5.040   4.155  15.557  0.00  0.00    +0.000 A 
ENDBRANCH  24  27
ENDBRANCH   5  23
TORSDOF 7
ENDMDL
MODEL 4
REMARK VINA RESULT:      -6.8      1.183      1.328
REMARK  Name = 
REMARK  8 active torsions:
REMARK  status: ('A' for Active; 'I' for Inactive)
REMARK    1  A    between atoms: C_1  and  C_2
REMARK    2  A    between atoms: C_2  and  N_3
REMARK    3  A    between atoms: C_4  and  C_6
REMARK    4  A    between atoms: C_9  and  C_10
REMARK    5  A    between atoms: C_14  and  O_15
REMARK    6  A    between atoms: C_17  and  O_18
REMARK    7  A    between atoms: C_19  and  N_20
REMARK    8  A    between atoms: C_21  and  C_23
REMARK                            x       y       z     vdW  Elec       q    Type
REMARK                         _______ _______ _______ _____ _____    ______ ____
ROOT
ATOM      1  C   UNL     1      -0.598  13.015  18.684  0.00  0.00    +0.000 A 
ATOM      2  N   UNL     1      -0.751  14.321  18.970  0.00  0.00    +0.000 NA
ATOM      3  O   UNL     1       0.478  14.758  19.395  0.00  0.00    +0.000 OA
ATOM      4  C   UNL     1       1.395  13.746  19.332  0.00  0.00    +0.000 A 
ATOM      5  C   UNL     1       0.756  12.608  18.877  0.00  0.00    +0.000 A 
ENDROOT
BRANCH   4   6
ATOM      6  C   UNL     1       2.752  14.144  19.687  0.00  0.00    +0.000 A 
ATOM      7  C   UNL     1       3.718  14.275  18.663  0.00  0.00    +0.000 A 
ATOM      8  C   UNL     1       4.998  14.755  18.945  0.00  0.00    +0.000 A 
ATOM      9 CL   UNL     1       6.136  14.949  17.667  0.00  0.00    +0.000 Cl
ATOM     10  C   UNL     1       5.336  15.098  20.252  0.00  0.00    +0.000 A 
ATOM     11  C   UNL     1       4.418  14.932  21.286  0.00  0.00    +0.000 A 
ATOM     12  C   UNL     1       3.135  14.452  21.002  0.00  0.00    +0.000 A 
BRANCH  10  13
ATOM     13  O   UNL     1       6.558  15.613  20.573  0.00  0.00    +0.000 OA
ATOM     14  H   UNL     1       7.151  14.861  20.765  0.00  0.00    +0.000 HD
ENDBRANCH  10  13
BRANCH  12  15
ATOM     15  O   UNL     1       2.242  14.303  22.029  0.00  0.00    +0.000 OA
ATOM     16  H   UNL     1       2.747  14.236  22.863  0.00  0.00    +0.000 HD
ENDBRANCH  12  15
ENDBRANCH   4   6
BRANCH   1  18
ATOM     17  N   UNL     1      -1.914  12.011  16.963  0.00  0.00    +0.000 N 
ATOM     18  C   UNL     1      -1.753  12.190  18.324  0.00  0.00    +0.000 C 
ATOM     19  O   UNL     1      -2.526  11.729  19.153  0.00  0.00    +0.000 OA
ATOM     20  H   UNL     1      -1.151  12.303  16.367  0.00  0.00    +0.000 HD
BRANCH  17  22
ATOM     21  C   UNL     1      -2.532   9.800  16.102  0.00  0.00    +0.000 C 
ATOM     22  C   UNL     1      -2.991  11.200  16.452  0.00  0.00    +0.000 C 
ENDBRANCH  17  22
ENDBRANCH   1  18
BRANCH   5  23
ATOM     23  N   UNL     1       1.357  11.376  18.618  0.00  0.00    +0.000 N 
ATOM     24  C   UNL     1       1.179  10.335  19.519  0.00  0.00    +0.000 C 
ATOM     25  O   UNL     1       0.508  10.421  20.545  0.00  0.00    +0.000 OA
ATOM     26  H   UNL     1       1.503  11.149  17.638  0.00  0.00    +0.000 HD
BRANCH  24  27
ATOM     27  C   UNL     1       1.721   9.002  19.130  0.00  0.00    +0.000 A 
ATOM     28  C   UNL     1       2.244   8.737  17.856  0.00  0.00    +0.000 A 
ATOM     29  C   UNL     1       2.754   7.465  17.564  0.00  0.00    +0.000 A 
ATOM     30  C   UNL     1       2.741   6.463  18.536  0.00  0.00    +0.000 A 
ATOM     31 BR   UNL     1       3.418   4.745  18.131  0.00  0.00    +0.000 Br
ATOM     32  C   UNL     1       2.235   6.721  19.806  0.00  0.00    +0.000 A 
ATOM     33  C   UNL     1       1.731   7.990  20.102  0.00  0.00    +0.000 A 
ENDBRANCH  24  27
ENDBRANCH   5  23
TORSDOF 7
ENDMDL
MODEL 5
REMARK VINA RESULT:      -6.7      4.458      7.039
REMARK  Name = 
REMARK  8 active torsions:
REMARK  status: ('A' for Active; 'I' for Inactive)
REMARK    1  A    between atoms: C_1  and  C_2
REMARK    2  A    between atoms: C_2  and  N_3
REMARK    3  A    between atoms: C_4  and  C_6
REMARK    4  A    between atoms: C_9  and  C_10
REMARK    5  A    between atoms: C_14  and  O_15
REMARK    6  A    between atoms: C_17  and  O_18
REMARK    7  A    between atoms: C_19  and  N_20
REMARK    8  A    between atoms: C_21  and  C_23
REMARK                            x       y       z     vdW  Elec       q    Type
REMARK                         _______ _______ _______ _____ _____    ______ ____
ROOT
ATOM      1  C   UNL     1      -0.201  10.392  22.074  0.00  0.00    +0.000 A 
ATOM      2  N   UNL     1       0.865  10.115  22.847  0.00  0.00    +0.000 NA
ATOM      3  O   UNL     1       1.543   9.110  22.204  0.00  0.00    +0.000 OA
ATOM      4  C   UNL     1       0.929   8.796  21.024  0.00  0.00    +0.000 A 
ATOM      5  C   UNL     1      -0.192   9.593  20.891  0.00  0.00    +0.000 A 
ENDROOT
BRANCH   4   6
ATOM      6  C   UNL     1       1.631   7.792  20.232  0.00  0.00    +0.000 A 
ATOM      7  C   UNL     1       1.813   6.498  20.773  0.00  0.00    +0.000 A 
ATOM      8  C   UNL     1       2.383   5.478  20.010  0.00  0.00    +0.000 A 
ATOM      9 CL   UNL     1       2.547   3.901  20.681  0.00  0.00    +0.000 Cl
ATOM     10  C   UNL     1       2.793   5.737  18.703  0.00  0.00    +0.000 A 
ATOM     11  C   UNL     1       2.669   7.016  18.165  0.00  0.00    +0.000 A 
ATOM     12  C   UNL     1       2.095   8.036  18.931  0.00  0.00    +0.000 A 
BRANCH  10  13
ATOM     13  O   UNL     1       3.315   4.766  17.901  0.00  0.00    +0.000 OA
ATOM     14  H   UNL     1       2.569   4.325  17.451  0.00  0.00    +0.000 HD
ENDBRANCH  10  13
BRANCH  12  15
ATOM     15  O   UNL     1       1.973   9.286  18.382  0.00  0.00    +0.000 OA
ATOM     16  H   UNL     1       2.772   9.798  18.614  0.00  0.00    +0.000 HD
ENDBRANCH  12  15
ENDBRANCH   4   6
BRANCH   1  18
ATOM     17  N   UNL     1      -1.217  12.541  21.853  0.00  0.00    +0.000 N 
ATOM     18  C   UNL     1      -1.226  11.334  22.527  0.00  0.00    +0.000 C 
ATOM     19  O   UNL     1      -1.999  11.088  23.443  0.00  0.00    +0.000 OA
ATOM     20  H   UNL     1      -0.646  12.599  21.020  0.00  0.00    +0.000 HD
BRANCH  17  22
ATOM     21  C   UNL     1      -3.353  13.555  21.204  0.00  0.00    +0.000 C 
ATOM     22  C   UNL     1      -2.184  13.563  22.166  0.00  0.00    +0.000 C 
ENDBRANCH  17  22
ENDBRANCH   1  18
BRANCH   5  23
ATOM     23  N   UNL     1      -1.055   9.621  19.796  0.00  0.00    +0.000 N 
ATOM     24  C   UNL     1      -0.965  10.672  18.892  0.00  0.00    +0.000 C 
ATOM     25  O   UNL     1      -0.157  11.592  18.986  0.00  0.00    +0.000 OA
ATOM     26  H   UNL     1      -1.376   8.718  19.458  0.00  0.00    +0.000 HD
BRANCH  24  27
ATOM     27  C   UNL     1      -1.809  10.584  17.666  0.00  0.00    +0.000 A 
ATOM     28  C   UNL     1      -2.842  11.490  17.389  0.00  0.00    +0.000 A 
ATOM     29  C   UNL     1      -3.584  11.359  16.207  0.00  0.00    +0.000 A 
ATOM     30  C   UNL     1      -3.297  10.330  15.308  0.00  0.00    +0.000 A 
ATOM     31 BR   UNL     1      -4.310  10.150  13.722  0.00  0.00    +0.000 Br
ATOM     32  C   UNL     1      -2.264   9.434  15.569  0.00  0.00    +0.000 A 
ATOM     33  C   UNL     1      -1.520   9.566  16.744  0.00  0.00    +0.000 A 
ENDBRANCH  24  27
ENDBRANCH   5  23
TORSDOF 7
ENDMDL
MODEL 6
REMARK VINA RESULT:      -6.7      1.005      1.111
REMARK  Name = 
REMARK  8 active torsions:
REMARK  status: ('A' for Active; 'I' for Inactive)
REMARK    1  A    between atoms: C_1  and  C_2
REMARK    2  A    between atoms: C_2  and  N_3
REMARK    3  A    between atoms: C_4  and  C_6
REMARK    4  A    between atoms: C_9  and  C_10
REMARK    5  A    between atoms: C_14  and  O_15
REMARK    6  A    between atoms: C_17  and  O_18
REMARK    7  A    between atoms: C_19  and  N_20
REMARK    8  A    between atoms: C_21  and  C_23
REMARK                            x       y       z     vdW  Elec       q    Type
REMARK                         _______ _______ _______ _____ _____    ______ ____
ROOT
ATOM      1  C   UNL     1      -0.897  12.223  18.324  0.00  0.00    +0.000 A 
ATOM      2  N   UNL     1      -1.220  13.498  18.612  0.00  0.00    +0.000 NA
ATOM      3  O   UNL     1      -0.084  14.062  19.134  0.00  0.00    +0.000 OA
ATOM      4  C   UNL     1       0.945  13.162  19.130  0.00  0.00    +0.000 A 
ATOM      5  C   UNL     1       0.476  11.969  18.615  0.00  0.00    +0.000 A 
ENDROOT
BRANCH   4   6
ATOM      6  C   UNL     1       2.218  13.704  19.592  0.00  0.00    +0.000 A 
ATOM      7  C   UNL     1       3.238  13.959  18.646  0.00  0.00    +0.000 A 
ATOM      8  C   UNL     1       4.430  14.575  19.030  0.00  0.00    +0.000 A 
ATOM      9 CL   UNL     1       5.633  14.915  17.846  0.00  0.00    +0.000 Cl
ATOM     10  C   UNL     1       4.627  14.933  20.362  0.00  0.00    +0.000 A 
ATOM     11  C   UNL     1       3.658  14.649  21.321  0.00  0.00    +0.000 A 
ATOM     12  C   UNL     1       2.463  14.033  20.934  0.00  0.00    +0.000 A 
BRANCH  10  13
ATOM     13  O   UNL     1       5.755  15.576  20.781  0.00  0.00    +0.000 OA
ATOM     14  H   UNL     1       5.510  16.126  21.550  0.00  0.00    +0.000 HD
ENDBRANCH  10  13
BRANCH  12  15
ATOM     15  O   UNL     1       1.516  13.768  21.889  0.00  0.00    +0.000 OA
ATOM     16  H   UNL     1       0.636  13.827  21.468  0.00  0.00    +0.000 HD
ENDBRANCH  12  15
ENDBRANCH   4   6
BRANCH   1  18
ATOM     17  N   UNL     1      -3.131  11.871  17.559  0.00  0.00    +0.000 N 
ATOM     18  C   UNL     1      -1.920  11.280  17.868  0.00  0.00    +0.000 C 
ATOM     19  O   UNL     1      -1.730  10.073  17.801  0.00  0.00    +0.000 OA
ATOM     20  H   UNL     1      -3.150  12.880  17.503  0.00  0.00    +0.000 HD
BRANCH  17  22
ATOM     21  C   UNL     1      -5.518  11.372  17.810  0.00  0.00    +0.000 C 
ATOM     22  C   UNL     1      -4.230  11.077  17.070  0.00  0.00    +0.000 C 
ENDBRANCH  17  22
ENDBRANCH   1  18
BRANCH   5  23
ATOM     23  N   UNL     1       1.232  10.818  18.389  0.00  0.00    +0.000 N 
ATOM     24  C   UNL     1       1.238   9.815  19.349  0.00  0.00    +0.000 C 
ATOM     25  O   UNL     1       0.606   9.867  20.402  0.00  0.00    +0.000 OA
ATOM     26  H   UNL     1       1.367  10.558  17.416  0.00  0.00    +0.000 HD
BRANCH  24  27
ATOM     27  C   UNL     1       1.944   8.549  19.001  0.00  0.00    +0.000 A 
ATOM     28  C   UNL     1       2.629   8.369  17.791  0.00  0.00    +0.000 A 
ATOM     29  C   UNL     1       3.287   7.158  17.537  0.00  0.00    +0.000 A 
ATOM     30  C   UNL     1       3.260   6.132  18.484  0.00  0.00    +0.000 A 
ATOM     31 BR   UNL     1       4.137   4.495  18.129  0.00  0.00    +0.000 Br
ATOM     32  C   UNL     1       2.593   6.307  19.693  0.00  0.00    +0.000 A 
ATOM     33  C   UNL     1       1.942   7.515  19.951  0.00  0.00    +0.000 A 
ENDBRANCH  24  27
ENDBRANCH   5  23
TORSDOF 7
ENDMDL
MODEL 7
REMARK VINA RESULT:      -6.7      0.755      1.173
REMARK  Name = 
REMARK  8 active torsions:
REMARK  status: ('A' for Active; 'I' for Inactive)
REMARK    1  A    between atoms: C_1  and  C_2
REMARK    2  A    between atoms: C_2  and  N_3
REMARK    3  A    between atoms: C_4  and  C_6
REMARK    4  A    between atoms: C_9  and  C_10
REMARK    5  A    between atoms: C_14  and  O_15
REMARK    6  A    between atoms: C_17  and  O_18
REMARK    7  A    between atoms: C_19  and  N_20
REMARK    8  A    between atoms: C_21  and  C_23
REMARK                            x       y       z     vdW  Elec       q    Type
REMARK                         _______ _______ _______ _____ _____    ______ ____
ROOT
ATOM      1  C   UNL     1      -0.882  12.405  18.471  0.00  0.00    +0.000 A 
ATOM      2  N   UNL     1      -1.170  13.690  18.749  0.00  0.00    +0.000 NA
ATOM      3  O   UNL     1      -0.011  14.235  19.242  0.00  0.00    +0.000 OA
ATOM      4  C   UNL     1       0.996  13.311  19.229  0.00  0.00    +0.000 A 
ATOM      5  C   UNL     1       0.490  12.122  18.739  0.00  0.00    +0.000 A 
ENDROOT
BRANCH   4   6
ATOM      6  C   UNL     1       2.290  13.829  19.660  0.00  0.00    +0.000 A 
ATOM      7  C   UNL     1       3.306  14.023  18.696  0.00  0.00    +0.000 A 
ATOM      8  C   UNL     1       4.520  14.615  19.047  0.00  0.00    +0.000 A 
ATOM      9 CL   UNL     1       5.718  14.881  17.839  0.00  0.00    +0.000 Cl
ATOM     10  C   UNL     1       4.744  15.008  20.365  0.00  0.00    +0.000 A 
ATOM     11  C   UNL     1       3.778  14.783  21.342  0.00  0.00    +0.000 A 
ATOM     12  C   UNL     1       2.561  14.191  20.989  0.00  0.00    +0.000 A 
BRANCH  10  13
ATOM     13  O   UNL     1       5.895  15.630  20.750  0.00  0.00    +0.000 OA
ATOM     14  H   UNL     1       5.714  16.589  20.781  0.00  0.00    +0.000 HD
ENDBRANCH  10  13
BRANCH  12  15
ATOM     15  O   UNL     1       1.618  13.985  21.961  0.00  0.00    +0.000 OA
ATOM     16  H   UNL     1       1.979  13.340  22.601  0.00  0.00    +0.000 HD
ENDBRANCH  12  15
ENDBRANCH   4   6
BRANCH   1  18
ATOM     17  N   UNL     1      -1.719  10.913  16.805  0.00  0.00    +0.000 N 
ATOM     18  C   UNL     1      -1.935  11.481  18.047  0.00  0.00    +0.000 C 
ATOM     19  O   UNL     1      -2.935  11.257  18.717  0.00  0.00    +0.000 OA
ATOM     20  H   UNL     1      -0.804  11.041  16.394  0.00  0.00    +0.000 HD
BRANCH  17  22
ATOM     21  C   UNL     1      -3.284  10.453  14.975  0.00  0.00    +0.000 C 
ATOM     22  C   UNL     1      -2.654   9.961  16.261  0.00  0.00    +0.000 C 
ENDBRANCH  17  22
ENDBRANCH   1  18
BRANCH   5  23
ATOM     23  N   UNL     1       1.214  10.952  18.513  0.00  0.00    +0.000 N 
ATOM     24  C   UNL     1       1.212   9.959  19.484  0.00  0.00    +0.000 C 
ATOM     25  O   UNL     1       0.598  10.036  20.546  0.00  0.00    +0.000 OA
ATOM     26  H   UNL     1       1.328  10.678  17.541  0.00  0.00    +0.000 HD
BRANCH  24  27
ATOM     27  C   UNL     1       1.882   8.672  19.138  0.00  0.00    +0.000 A 
ATOM     28  C   UNL     1       1.907   7.571  20.006  0.00  0.00    +0.000 A 
ATOM     29  C   UNL     1       2.539   6.386  19.608  0.00  0.00    +0.000 A 
ATOM     30  C   UNL     1       3.144   6.299  18.352  0.00  0.00    +0.000 A 
ATOM     31 BR   UNL     1       4.007   4.702  17.826  0.00  0.00    +0.000 Br
ATOM     32  C   UNL     1       3.112   7.383  17.479  0.00  0.00    +0.000 A 
ATOM     33  C   UNL     1       2.477   8.564  17.872  0.00  0.00    +0.000 A 
ENDBRANCH  24  27
ENDBRANCH   5  23
TORSDOF 7
ENDMDL
MODEL 8
REMARK VINA RESULT:      -6.7      1.666      2.086
REMARK  Name = 
REMARK  8 active torsions:
REMARK  status: ('A' for Active; 'I' for Inactive)
REMARK    1  A    between atoms: C_1  and  C_2
REMARK    2  A    between atoms: C_2  and  N_3
REMARK    3  A    between atoms: C_4  and  C_6
REMARK    4  A    between atoms: C_9  and  C_10
REMARK    5  A    between atoms: C_14  and  O_15
REMARK    6  A    between atoms: C_17  and  O_18
REMARK    7  A    between atoms: C_19  and  N_20
REMARK    8  A    between atoms: C_21  and  C_23
REMARK                            x       y       z     vdW  Elec       q    Type
REMARK                         _______ _______ _______ _____ _____    ______ ____
ROOT
ATOM      1  C   UNL     1      -0.577  13.081  18.607  0.00  0.00    +0.000 A 
ATOM      2  N   UNL     1      -0.717  14.407  18.789  0.00  0.00    +0.000 NA
ATOM      3  O   UNL     1       0.524  14.869  19.146  0.00  0.00    +0.000 OA
ATOM      4  C   UNL     1       1.434  13.849  19.144  0.00  0.00    +0.000 A 
ATOM      5  C   UNL     1       0.779  12.683  18.800  0.00  0.00    +0.000 A 
ENDROOT
BRANCH   4   6
ATOM      6  C   UNL     1       2.802  14.266  19.432  0.00  0.00    +0.000 A 
ATOM      7  C   UNL     1       3.282  14.170  20.759  0.00  0.00    +0.000 A 
ATOM      8  C   UNL     1       4.614  14.458  21.059  0.00  0.00    +0.000 A 
ATOM      9 CL   UNL     1       5.180  14.285  22.676  0.00  0.00    +0.000 Cl
ATOM     10  C   UNL     1       5.482  14.857  20.044  0.00  0.00    +0.000 A 
ATOM     11  C   UNL     1       5.021  15.006  18.739  0.00  0.00    +0.000 A 
ATOM     12  C   UNL     1       3.686  14.716  18.439  0.00  0.00    +0.000 A 
BRANCH  10  13
ATOM     13  O   UNL     1       6.803  15.108  20.277  0.00  0.00    +0.000 OA
ATOM     14  H   UNL     1       7.236  14.251  20.456  0.00  0.00    +0.000 HD
ENDBRANCH  10  13
BRANCH  12  15
ATOM     15  O   UNL     1       3.252  14.860  17.148  0.00  0.00    +0.000 OA
ATOM     16  H   UNL     1       3.049  15.804  16.999  0.00  0.00    +0.000 HD
ENDBRANCH  12  15
ENDBRANCH   4   6
BRANCH   1  18
ATOM     17  N   UNL     1      -1.911  11.907  17.013  0.00  0.00    +0.000 N 
ATOM     18  C   UNL     1      -1.744  12.237  18.345  0.00  0.00    +0.000 C 
ATOM     19  O   UNL     1      -2.522  11.885  19.222  0.00  0.00    +0.000 OA
ATOM     20  H   UNL     1      -1.146  12.117  16.387  0.00  0.00    +0.000 HD
BRANCH  17  22
ATOM     21  C   UNL     1      -2.903  10.679  15.136  0.00  0.00    +0.000 C 
ATOM     22  C   UNL     1      -3.001  11.058  16.599  0.00  0.00    +0.000 C 
ENDBRANCH  17  22
ENDBRANCH   1  18
BRANCH   5  23
ATOM     23  N   UNL     1       1.368  11.429  18.628  0.00  0.00    +0.000 N 
ATOM     24  C   UNL     1       1.113  10.430  19.559  0.00  0.00    +0.000 C 
ATOM     25  O   UNL     1       0.383  10.573  20.537  0.00  0.00    +0.000 OA
ATOM     26  H   UNL     1       1.568  11.158  17.669  0.00  0.00    +0.000 HD
BRANCH  24  27
ATOM     27  C   UNL     1       1.648   9.072  19.257  0.00  0.00    +0.000 A 
ATOM     28  C   UNL     1       2.197   8.731  18.014  0.00  0.00    +0.000 A 
ATOM     29  C   UNL     1       2.699   7.439  17.805  0.00  0.00    +0.000 A 
ATOM     30  C   UNL     1       2.652   6.493  18.831  0.00  0.00    +0.000 A 
ATOM     31 BR   UNL     1       3.318   4.748  18.540  0.00  0.00    +0.000 Br
ATOM     32  C   UNL     1       2.120   6.827  20.073  0.00  0.00    +0.000 A 
ATOM     33  C   UNL     1       1.624   8.116  20.285  0.00  0.00    +0.000 A 
ENDBRANCH  24  27
ENDBRANCH   5  23
TORSDOF 7
ENDMDL
MODEL 9
REMARK VINA RESULT:      -6.6      4.470      6.659
REMARK  Name = 
REMARK  8 active torsions:
REMARK  status: ('A' for Active; 'I' for Inactive)
REMARK    1  A    between atoms: C_1  and  C_2
REMARK    2  A    between atoms: C_2  and  N_3
REMARK    3  A    between atoms: C_4  and  C_6
REMARK    4  A    between atoms: C_9  and  C_10
REMARK    5  A    between atoms: C_14  and  O_15
REMARK    6  A    between atoms: C_17  and  O_18
REMARK    7  A    between atoms: C_19  and  N_20
REMARK    8  A    between atoms: C_21  and  C_23
REMARK                            x       y       z     vdW  Elec       q    Type
REMARK                         _______ _______ _______ _____ _____    ______ ____
ROOT
ATOM      1  C   UNL     1       0.679   8.929  21.660  0.00  0.00    +0.000 A 
ATOM      2  N   UNL     1       1.157   9.233  22.881  0.00  0.00    +0.000 NA
ATOM      3  O   UNL     1       0.470  10.350  23.284  0.00  0.00    +0.000 OA
ATOM      4  C   UNL     1      -0.454  10.710  22.343  0.00  0.00    +0.000 A 
ATOM      5  C   UNL     1      -0.363   9.828  21.284  0.00  0.00    +0.000 A 
ENDROOT
BRANCH   4   6
ATOM      6  C   UNL     1      -1.289  11.843  22.726  0.00  0.00    +0.000 A 
ATOM      7  C   UNL     1      -2.503  11.599  23.409  0.00  0.00    +0.000 A 
ATOM      8  C   UNL     1      -3.279  12.655  23.887  0.00  0.00    +0.000 A 
ATOM      9 CL   UNL     1      -4.728  12.323  24.757  0.00  0.00    +0.000 Cl
ATOM     10  C   UNL     1      -2.864  13.969  23.679  0.00  0.00    +0.000 A 
ATOM     11  C   UNL     1      -1.697  14.236  22.967  0.00  0.00    +0.000 A 
ATOM     12  C   UNL     1      -0.920  13.176  22.490  0.00  0.00    +0.000 A 
BRANCH  10  13
ATOM     13  O   UNL     1      -3.563  15.036  24.163  0.00  0.00    +0.000 OA
ATOM     14  H   UNL     1      -4.347  14.685  24.629  0.00  0.00    +0.000 HD
ENDBRANCH  10  13
BRANCH  12  15
ATOM     15  O   UNL     1       0.229  13.457  21.799  0.00  0.00    +0.000 OA
ATOM     16  H   UNL     1      -0.016  13.937  20.984  0.00  0.00    +0.000 HD
ENDBRANCH  12  15
ENDBRANCH   4   6
BRANCH   1  18
ATOM     17  N   UNL     1       1.868   8.291  19.690  0.00  0.00    +0.000 N 
ATOM     18  C   UNL     1       1.287   7.858  20.868  0.00  0.00    +0.000 C 
ATOM     19  O   UNL     1       1.253   6.681  21.200  0.00  0.00    +0.000 OA
ATOM     20  H   UNL     1       1.977   9.289  19.570  0.00  0.00    +0.000 HD
BRANCH  17  22
ATOM     21  C   UNL     1       2.970   8.009  17.518  0.00  0.00    +0.000 C 
ATOM     22  C   UNL     1       2.532   7.359  18.814  0.00  0.00    +0.000 C 
ENDBRANCH  17  22
ENDBRANCH   1  18
BRANCH   5  23
ATOM     23  N   UNL     1      -1.175   9.818  20.150  0.00  0.00    +0.000 N 
ATOM     24  C   UNL     1      -1.036  10.832  19.211  0.00  0.00    +0.000 C 
ATOM     25  O   UNL     1      -0.225  11.750  19.306  0.00  0.00    +0.000 OA
ATOM     26  H   UNL     1      -1.488   8.904  19.833  0.00  0.00    +0.000 HD
BRANCH  24  27
ATOM     27  C   UNL     1      -1.824  10.701  17.952  0.00  0.00    +0.000 A 
ATOM     28  C   UNL     1      -2.883  11.560  17.626  0.00  0.00    +0.000 A 
ATOM     29  C   UNL     1      -3.569  11.391  16.416  0.00  0.00    +0.000 A 
ATOM     30  C   UNL     1      -3.202  10.370  15.537  0.00  0.00    +0.000 A 
ATOM     31 BR   UNL     1      -4.140  10.138  13.912  0.00  0.00    +0.000 Br
ATOM     32  C   UNL     1      -2.143   9.521  15.847  0.00  0.00    +0.000 A 
ATOM     33  C   UNL     1      -1.454   9.691  17.050  0.00  0.00    +0.000 A 
ENDBRANCH  24  27
ENDBRANCH   5  23
TORSDOF 7
ENDMDL
