MODEL 1
REMARK VINA RESULT:      -8.0      0.000      0.000
REMARK  Name = 
REMARK  8 active torsions:
REMARK  status: ('A' for Active; 'I' for Inactive)
REMARK    1  A    between atoms: C_1  and  O_2
REMARK    2  A    between atoms: O_2  and  C_3
REMARK    3  A    between atoms: C_7  and  N_8
REMARK    4  A    between atoms: N_11  and  C_12
REMARK    5  A    between atoms: C_12  and  C_13
REMARK    6  A    between atoms: C_13  and  C_14
REMARK    7  A    between atoms: N_16  and  C_17
REMARK    8  A    between atoms: C_20  and  N_21
REMARK                            x       y       z     vdW  Elec       q    Type
REMARK                         _______ _______ _______ _____ _____    ______ ____
ROOT
ATOM      1  C   UNL     1       1.982   2.885  20.346  0.00  0.00    +0.000 C 
ENDROOT
BRANCH   1   5
ATOM      2  N   UNL     1       4.457   3.563  17.767  0.00  0.00    +0.000 N 
ATOM      3  C   UNL     1       3.094   3.171  17.415  0.00  0.00    +0.000 C 
ATOM      4  C   UNL     1       2.745   1.892  18.224  0.00  0.00    +0.000 C 
ATOM      5  N   UNL     1       2.946   1.982  19.698  0.00  0.00    +0.000 NA
ATOM      6  C   UNL     1       4.327   2.491  19.952  0.00  0.00    +0.000 C 
ATOM      7  C   UNL     1       4.692   3.789  19.191  0.00  0.00    +0.000 C 
BRANCH   2  12
ATOM      8  C   UNL     1       6.931   5.579  16.164  0.00  0.00    +0.000 A 
ATOM      9  C   UNL     1       6.931   5.136  14.854  0.00  0.00    +0.000 A 
ATOM     10  C   UNL     1       6.062   4.113  14.516  0.00  0.00    +0.000 A 
ATOM     11  C   UNL     1       5.249   3.573  15.504  0.00  0.00    +0.000 A 
ATOM     12  C   UNL     1       5.304   4.066  16.810  0.00  0.00    +0.000 A 
ATOM     13  N   UNL     1       6.130   5.081  17.132  0.00  0.00    +0.000 NA
BRANCH   8  15
ATOM     14  C   UNL     1       7.373   7.430  17.519  0.00  0.00    +0.000 C 
ATOM     15  O   UNL     1       7.825   6.590  16.463  0.00  0.00    +0.000 OA
ENDBRANCH   8  15
ENDBRANCH   2  12
ENDBRANCH   1   5
BRANCH   1  16
ATOM     16  C   UNL     1       2.591   4.142  20.970  0.00  0.00    +0.000 C 
BRANCH  16  17
ATOM     17  C   UNL     1       1.736   5.324  20.563  0.00  0.00    +0.000 C 
ATOM     18  O   UNL     1       0.515   5.228  20.481  0.00  0.00    +0.000 OA
ATOM     19  N   UNL     1       2.467   6.470  20.305  0.00  0.00    +0.000 N 
ATOM     20  H   UNL     1       3.468   6.369  20.188  0.00  0.00    +0.000 HD
BRANCH  19  21
ATOM     21  C   UNL     1       1.902   7.733  20.031  0.00  0.00    +0.000 A 
ATOM     22  C   UNL     1       1.265   8.504  21.011  0.00  0.00    +0.000 A 
ATOM     23  C   UNL     1       0.689   9.736  20.700  0.00  0.00    +0.000 A 
ATOM     24  C   UNL     1       0.763  10.211  19.391  0.00  0.00    +0.000 A 
ATOM     25  C   UNL     1       1.419   9.466  18.400  0.00  0.00    +0.000 A 
ATOM     26  C   UNL     1       1.997   8.232  18.727  0.00  0.00    +0.000 A 
BRANCH  24  27
ATOM     27  N   UNL     1       0.148  11.501  19.060  0.00  0.00    +0.000 N 
ATOM     28  O   UNL     1      -0.810  11.503  18.273  0.00  0.00    +0.000 OA
ATOM     29  O   UNL     1       0.622  12.514  19.593  0.00  0.00    +0.000 OA
ENDBRANCH  24  27
ENDBRANCH  19  21
ENDBRANCH  16  17
ENDBRANCH   1  16
TORSDOF 7
ENDMDL
MODEL 2
REMARK VINA RESULT:      -8.0      0.460      1.044
REMARK  Name = 
REMARK  8 active torsions:
REMARK  status: ('A' for Active; 'I' for Inactive)
REMARK    1  A    between atoms: C_1  and  O_2
REMARK    2  A    between atoms: O_2  and  C_3
REMARK    3  A    between atoms: C_7  and  N_8
REMARK    4  A    between atoms: N_11  and  C_12
REMARK    5  A    between atoms: C_12  and  C_13
REMARK    6  A    between atoms: C_13  and  C_14
REMARK    7  A    between atoms: N_16  and  C_17
REMARK    8  A    between atoms: C_20  and  N_21
REMARK                            x       y       z     vdW  Elec       q    Type
REMARK                         _______ _______ _______ _____ _____    ______ ____
ROOT
ATOM      1  C   UNL     1       1.989   2.787  20.103  0.00  0.00    +0.000 C 
ENDROOT
BRANCH   1   5
ATOM      2  N   UNL     1       4.565   3.558  17.652  0.00  0.00    +0.000 N 
ATOM      3  C   UNL     1       3.253   3.070  17.234  0.00  0.00    +0.000 C 
ATOM      4  C   UNL     1       2.937   1.793  18.059  0.00  0.00    +0.000 C 
ATOM      5  N   UNL     1       3.044   1.933  19.538  0.00  0.00    +0.000 NA
ATOM      6  C   UNL     1       4.373   2.536  19.857  0.00  0.00    +0.000 C 
ATOM      7  C   UNL     1       4.701   3.835  19.080  0.00  0.00    +0.000 C 
BRANCH   2  12
ATOM      8  C   UNL     1       6.953   5.723  16.114  0.00  0.00    +0.000 A 
ATOM      9  C   UNL     1       7.102   5.210  14.839  0.00  0.00    +0.000 A 
ATOM     10  C   UNL     1       6.367   4.087  14.502  0.00  0.00    +0.000 A 
ATOM     11  C   UNL     1       5.533   3.522  15.459  0.00  0.00    +0.000 A 
ATOM     12  C   UNL     1       5.434   4.091  16.731  0.00  0.00    +0.000 A 
ATOM     13  N   UNL     1       6.128   5.201  17.049  0.00  0.00    +0.000 NA
BRANCH   8  15
ATOM     14  C   UNL     1       7.611   7.224  17.778  0.00  0.00    +0.000 C 
ATOM     15  O   UNL     1       7.718   6.835  16.414  0.00  0.00    +0.000 OA
ENDBRANCH   8  15
ENDBRANCH   2  12
ENDBRANCH   1   5
BRANCH   1  16
ATOM     16  C   UNL     1       2.491   3.975  20.928  0.00  0.00    +0.000 C 
BRANCH  16  17
ATOM     17  C   UNL     1       1.669   5.188  20.544  0.00  0.00    +0.000 C 
ATOM     18  O   UNL     1       0.450   5.116  20.415  0.00  0.00    +0.000 OA
ATOM     19  N   UNL     1       2.426   6.331  20.363  0.00  0.00    +0.000 N 
ATOM     20  H   UNL     1       3.428   6.218  20.276  0.00  0.00    +0.000 HD
BRANCH  19  21
ATOM     21  C   UNL     1       1.891   7.614  20.124  0.00  0.00    +0.000 A 
ATOM     22  C   UNL     1       1.932   8.227  18.865  0.00  0.00    +0.000 A 
ATOM     23  C   UNL     1       1.421   9.510  18.670  0.00  0.00    +0.000 A 
ATOM     24  C   UNL     1       0.848  10.186  19.746  0.00  0.00    +0.000 A 
ATOM     25  C   UNL     1       0.774   9.580  21.009  0.00  0.00    +0.000 A 
ATOM     26  C   UNL     1       1.286   8.289  21.191  0.00  0.00    +0.000 A 
BRANCH  24  27
ATOM     27  N   UNL     1       0.321  11.541  19.545  0.00  0.00    +0.000 N 
ATOM     28  O   UNL     1       0.795  12.216  18.619  0.00  0.00    +0.000 OA
ATOM     29  O   UNL     1      -0.573  11.926  20.311  0.00  0.00    +0.000 OA
ENDBRANCH  24  27
ENDBRANCH  19  21
ENDBRANCH  16  17
ENDBRANCH   1  16
TORSDOF 7
ENDMDL
MODEL 3
REMARK VINA RESULT:      -7.8      5.177      7.933
REMARK  Name = 
REMARK  8 active torsions:
REMARK  status: ('A' for Active; 'I' for Inactive)
REMARK    1  A    between atoms: C_1  and  O_2
REMARK    2  A    between atoms: O_2  and  C_3
REMARK    3  A    between atoms: C_7  and  N_8
REMARK    4  A    between atoms: N_11  and  C_12
REMARK    5  A    between atoms: C_12  and  C_13
REMARK    6  A    between atoms: C_13  and  C_14
REMARK    7  A    between atoms: N_16  and  C_17
REMARK    8  A    between atoms: C_20  and  N_21
REMARK                            x       y       z     vdW  Elec       q    Type
REMARK                         _______ _______ _______ _____ _____    ______ ____
ROOT
ATOM      1  C   UNL     1       7.312   8.085  17.514  0.00  0.00    +0.000 C 
ENDROOT
BRANCH   1   5
ATOM      2  N   UNL     1       5.022   5.323  18.119  0.00  0.00    +0.000 N 
ATOM      3  C   UNL     1       6.294   5.413  18.831  0.00  0.00    +0.000 C 
ATOM      4  C   UNL     1       7.413   5.637  17.777  0.00  0.00    +0.000 C 
ATOM      5  N   UNL     1       7.204   6.780  16.843  0.00  0.00    +0.000 NA
ATOM      6  C   UNL     1       5.839   6.656  16.249  0.00  0.00    +0.000 C 
ATOM      7  C   UNL     1       4.696   6.473  17.278  0.00  0.00    +0.000 C 
BRANCH   2  12
ATOM      8  C   UNL     1       2.702   3.576  20.198  0.00  0.00    +0.000 A 
ATOM      9  C   UNL     1       2.186   2.591  19.375  0.00  0.00    +0.000 A 
ATOM     10  C   UNL     1       2.643   2.532  18.070  0.00  0.00    +0.000 A 
ATOM     11  C   UNL     1       3.580   3.467  17.647  0.00  0.00    +0.000 A 
ATOM     12  C   UNL     1       4.055   4.438  18.531  0.00  0.00    +0.000 A 
ATOM     13  N   UNL     1       3.631   4.477  19.810  0.00  0.00    +0.000 NA
BRANCH   8  15
ATOM     14  C   UNL     1       1.317   2.535  21.764  0.00  0.00    +0.000 C 
ATOM     15  O   UNL     1       2.207   3.610  21.488  0.00  0.00    +0.000 OA
ENDBRANCH   8  15
ENDBRANCH   2  12
ENDBRANCH   1   5
BRANCH   1  16
ATOM     16  C   UNL     1       8.528   8.242  18.430  0.00  0.00    +0.000 C 
BRANCH  16  17
ATOM     17  C   UNL     1       8.780   9.724  18.616  0.00  0.00    +0.000 C 
ATOM     18  O   UNL     1       8.353  10.548  17.813  0.00  0.00    +0.000 OA
ATOM     19  N   UNL     1       9.518  10.019  19.748  0.00  0.00    +0.000 N 
ATOM     20  H   UNL     1      10.000   9.254  20.204  0.00  0.00    +0.000 HD
BRANCH  19  21
ATOM     21  C   UNL     1       9.781  11.324  20.213  0.00  0.00    +0.000 A 
ATOM     22  C   UNL     1      10.833  12.104  19.716  0.00  0.00    +0.000 A 
ATOM     23  C   UNL     1      11.086  13.381  20.219  0.00  0.00    +0.000 A 
ATOM     24  C   UNL     1      10.266  13.891  21.225  0.00  0.00    +0.000 A 
ATOM     25  C   UNL     1       9.191  13.137  21.718  0.00  0.00    +0.000 A 
ATOM     26  C   UNL     1       8.945  11.858  21.201  0.00  0.00    +0.000 A 
BRANCH  24  27
ATOM     27  N   UNL     1      10.538  15.229  21.763  0.00  0.00    +0.000 N 
ATOM     28  O   UNL     1      11.182  16.019  21.057  0.00  0.00    +0.000 OA
ATOM     29  O   UNL     1      10.101  15.490  22.892  0.00  0.00    +0.000 OA
ENDBRANCH  24  27
ENDBRANCH  19  21
ENDBRANCH  16  17
ENDBRANCH   1  16
TORSDOF 7
ENDMDL
MODEL 4
REMARK VINA RESULT:      -7.8      5.057      7.972
REMARK  Name = 
REMARK  8 active torsions:
REMARK  status: ('A' for Active; 'I' for Inactive)
REMARK    1  A    between atoms: C_1  and  O_2
REMARK    2  A    between atoms: O_2  and  C_3
REMARK    3  A    between atoms: C_7  and  N_8
REMARK    4  A    between atoms: N_11  and  C_12
REMARK    5  A    between atoms: C_12  and  C_13
REMARK    6  A    between atoms: C_13  and  C_14
REMARK    7  A    between atoms: N_16  and  C_17
REMARK    8  A    between atoms: C_20  and  N_21
REMARK                            x       y       z     vdW  Elec       q    Type
REMARK                         _______ _______ _______ _____ _____    ______ ____
ROOT
ATOM      1  C   UNL     1       7.643   8.213  17.616  0.00  0.00    +0.000 C 
ENDROOT
BRANCH   1   5
ATOM      2  N   UNL     1       5.076   5.648  17.868  0.00  0.00    +0.000 N 
ATOM      3  C   UNL     1       6.215   5.662  18.782  0.00  0.00    +0.000 C 
ATOM      4  C   UNL     1       7.507   5.774  17.928  0.00  0.00    +0.000 C 
ATOM      5  N   UNL     1       7.547   6.902  16.956  0.00  0.00    +0.000 NA
ATOM      6  C   UNL     1       6.295   6.863  16.142  0.00  0.00    +0.000 C 
ATOM      7  C   UNL     1       4.986   6.794  16.966  0.00  0.00    +0.000 C 
BRANCH   2  12
ATOM      8  C   UNL     1       2.323   4.126  19.558  0.00  0.00    +0.000 A 
ATOM      9  C   UNL     1       1.866   3.171  18.668  0.00  0.00    +0.000 A 
ATOM     10  C   UNL     1       2.517   3.053  17.453  0.00  0.00    +0.000 A 
ATOM     11  C   UNL     1       3.581   3.904  17.180  0.00  0.00    +0.000 A 
ATOM     12  C   UNL     1       3.988   4.849  18.125  0.00  0.00    +0.000 A 
ATOM     13  N   UNL     1       3.371   4.944  19.319  0.00  0.00    +0.000 NA
BRANCH   8  15
ATOM     14  C   UNL     1       2.029   3.232  21.696  0.00  0.00    +0.000 C 
ATOM     15  O   UNL     1       1.634   4.221  20.753  0.00  0.00    +0.000 OA
ENDBRANCH   8  15
ENDBRANCH   2  12
ENDBRANCH   1   5
BRANCH   1  16
ATOM     16  C   UNL     1       8.605   8.270  18.804  0.00  0.00    +0.000 C 
BRANCH  16  17
ATOM     17  C   UNL     1       8.979   9.721  19.030  0.00  0.00    +0.000 C 
ATOM     18  O   UNL     1       9.232  10.145  20.154  0.00  0.00    +0.000 OA
ATOM     19  N   UNL     1       8.999  10.471  17.869  0.00  0.00    +0.000 N 
ATOM     20  H   UNL     1       8.560  10.073  17.048  0.00  0.00    +0.000 HD
BRANCH  19  21
ATOM     21  C   UNL     1       9.434  11.810  17.790  0.00  0.00    +0.000 A 
ATOM     22  C   UNL     1      10.764  12.157  17.518  0.00  0.00    +0.000 A 
ATOM     23  C   UNL     1      11.168  13.492  17.478  0.00  0.00    +0.000 A 
ATOM     24  C   UNL     1      10.226  14.496  17.700  0.00  0.00    +0.000 A 
ATOM     25  C   UNL     1       8.885  14.170  17.949  0.00  0.00    +0.000 A 
ATOM     26  C   UNL     1       8.491  12.826  17.982  0.00  0.00    +0.000 A 
BRANCH  24  27
ATOM     27  N   UNL     1      10.653  15.899  17.670  0.00  0.00    +0.000 N 
ATOM     28  O   UNL     1      10.395  16.606  18.655  0.00  0.00    +0.000 OA
ATOM     29  O   UNL     1      11.252  16.292  16.660  0.00  0.00    +0.000 OA
ENDBRANCH  24  27
ENDBRANCH  19  21
ENDBRANCH  16  17
ENDBRANCH   1  16
TORSDOF 7
ENDMDL
MODEL 5
REMARK VINA RESULT:      -7.8      2.208      3.391
REMARK  Name = 
REMARK  8 active torsions:
REMARK  status: ('A' for Active; 'I' for Inactive)
REMARK    1  A    between atoms: C_1  and  O_2
REMARK    2  A    between atoms: O_2  and  C_3
REMARK    3  A    between atoms: C_7  and  N_8
REMARK    4  A    between atoms: N_11  and  C_12
REMARK    5  A    between atoms: C_12  and  C_13
REMARK    6  A    between atoms: C_13  and  C_14
REMARK    7  A    between atoms: N_16  and  C_17
REMARK    8  A    between atoms: C_20  and  N_21
REMARK                            x       y       z     vdW  Elec       q    Type
REMARK                         _______ _______ _______ _____ _____    ______ ____
ROOT
ATOM      1  C   UNL     1       4.238   5.071  19.242  0.00  0.00    +0.000 C 
ENDROOT
BRANCH   1   5
ATOM      2  N   UNL     1       5.268   4.796  15.763  0.00  0.00    +0.000 N 
ATOM      3  C   UNL     1       5.598   5.980  16.552  0.00  0.00    +0.000 C 
ATOM      4  C   UNL     1       4.291   6.482  17.223  0.00  0.00    +0.000 C 
ATOM      5  N   UNL     1       3.536   5.469  18.012  0.00  0.00    +0.000 NA
ATOM      6  C   UNL     1       3.341   4.260  17.157  0.00  0.00    +0.000 C 
ATOM      7  C   UNL     1       4.634   3.709  16.506  0.00  0.00    +0.000 C 
BRANCH   2  12
ATOM      8  C   UNL     1       5.932   3.509  12.498  0.00  0.00    +0.000 A 
ATOM      9  C   UNL     1       7.147   4.074  12.154  0.00  0.00    +0.000 A 
ATOM     10  C   UNL     1       7.748   4.924  13.065  0.00  0.00    +0.000 A 
ATOM     11  C   UNL     1       7.101   5.181  14.267  0.00  0.00    +0.000 A 
ATOM     12  C   UNL     1       5.872   4.579  14.549  0.00  0.00    +0.000 A 
ATOM     13  N   UNL     1       5.301   3.728  13.673  0.00  0.00    +0.000 NA
BRANCH   8  15
ATOM     14  C   UNL     1       4.036   3.072  11.206  0.00  0.00    +0.000 C 
ATOM     15  O   UNL     1       5.359   2.679  11.553  0.00  0.00    +0.000 OA
ENDBRANCH   8  15
ENDBRANCH   2  12
ENDBRANCH   1   5
BRANCH   1  16
ATOM     16  C   UNL     1       3.328   4.692  20.412  0.00  0.00    +0.000 C 
BRANCH  16  17
ATOM     17  C   UNL     1       2.145   5.638  20.406  0.00  0.00    +0.000 C 
ATOM     18  O   UNL     1       0.995   5.219  20.498  0.00  0.00    +0.000 OA
ATOM     19  N   UNL     1       2.505   6.968  20.289  0.00  0.00    +0.000 N 
ATOM     20  H   UNL     1       3.453   7.172  19.998  0.00  0.00    +0.000 HD
BRANCH  19  21
ATOM     21  C   UNL     1       1.605   8.050  20.383  0.00  0.00    +0.000 A 
ATOM     22  C   UNL     1       1.277   8.857  19.286  0.00  0.00    +0.000 A 
ATOM     23  C   UNL     1       0.407   9.939  19.419  0.00  0.00    +0.000 A 
ATOM     24  C   UNL     1      -0.155  10.211  20.666  0.00  0.00    +0.000 A 
ATOM     25  C   UNL     1       0.140   9.400  21.771  0.00  0.00    +0.000 A 
ATOM     26  C   UNL     1       1.012   8.313  21.623  0.00  0.00    +0.000 A 
BRANCH  24  27
ATOM     27  N   UNL     1      -1.061  11.356  20.810  0.00  0.00    +0.000 N 
ATOM     28  O   UNL     1      -1.418  11.674  21.954  0.00  0.00    +0.000 OA
ATOM     29  O   UNL     1      -1.412  11.940  19.776  0.00  0.00    +0.000 OA
ENDBRANCH  24  27
ENDBRANCH  19  21
ENDBRANCH  16  17
ENDBRANCH   1  16
TORSDOF 7
ENDMDL
MODEL 6
REMARK VINA RESULT:      -7.8      2.185      3.249
REMARK  Name = 
REMARK  8 active torsions:
REMARK  status: ('A' for Active; 'I' for Inactive)
REMARK    1  A    between atoms: C_1  and  O_2
REMARK    2  A    between atoms: O_2  and  C_3
REMARK    3  A    between atoms: C_7  and  N_8
REMARK    4  A    between atoms: N_11  and  C_12
REMARK    5  A    between atoms: C_12  and  C_13
REMARK    6  A    between atoms: C_13  and  C_14
REMARK    7  A    between atoms: N_16  and  C_17
REMARK    8  A    between atoms: C_20  and  N_21
REMARK                            x       y       z     vdW  Elec       q    Type
REMARK                         _______ _______ _______ _____ _____    ______ ____
ROOT
ATOM      1  C   UNL     1       4.269   5.004  19.211  0.00  0.00    +0.000 C 
ENDROOT
BRANCH   1   5
ATOM      2  N   UNL     1       5.276   4.718  15.727  0.00  0.00    +0.000 N 
ATOM      3  C   UNL     1       5.600   5.910  16.506  0.00  0.00    +0.000 C 
ATOM      4  C   UNL     1       4.292   6.403  17.184  0.00  0.00    +0.000 C 
ATOM      5  N   UNL     1       3.553   5.386  17.984  0.00  0.00    +0.000 NA
ATOM      6  C   UNL     1       3.366   4.170  17.138  0.00  0.00    +0.000 C 
ATOM      7  C   UNL     1       4.660   3.629  16.481  0.00  0.00    +0.000 C 
BRANCH   2  12
ATOM      8  C   UNL     1       5.963   3.378  12.488  0.00  0.00    +0.000 A 
ATOM      9  C   UNL     1       7.140   3.997  12.109  0.00  0.00    +0.000 A 
ATOM     10  C   UNL     1       7.708   4.903  12.988  0.00  0.00    +0.000 A 
ATOM     11  C   UNL     1       7.064   5.159  14.192  0.00  0.00    +0.000 A 
ATOM     12  C   UNL     1       5.875   4.500  14.509  0.00  0.00    +0.000 A 
ATOM     13  N   UNL     1       5.338   3.596  13.666  0.00  0.00    +0.000 NA
BRANCH   8  15
ATOM     14  C   UNL     1       6.344   1.488  11.170  0.00  0.00    +0.000 C 
ATOM     15  O   UNL     1       5.422   2.493  11.575  0.00  0.00    +0.000 OA
ENDBRANCH   8  15
ENDBRANCH   2  12
ENDBRANCH   1   5
BRANCH   1  16
ATOM     16  C   UNL     1       3.372   4.655  20.401  0.00  0.00    +0.000 C 
BRANCH  16  17
ATOM     17  C   UNL     1       2.194   5.607  20.390  0.00  0.00    +0.000 C 
ATOM     18  O   UNL     1       1.043   5.196  20.505  0.00  0.00    +0.000 OA
ATOM     19  N   UNL     1       2.559   6.932  20.238  0.00  0.00    +0.000 N 
ATOM     20  H   UNL     1       3.504   7.124  19.930  0.00  0.00    +0.000 HD
BRANCH  19  21
ATOM     21  C   UNL     1       1.666   8.021  20.320  0.00  0.00    +0.000 A 
ATOM     22  C   UNL     1       1.003   8.367  21.505  0.00  0.00    +0.000 A 
ATOM     23  C   UNL     1       0.102   9.430  21.545  0.00  0.00    +0.000 A 
ATOM     24  C   UNL     1      -0.131  10.169  20.385  0.00  0.00    +0.000 A 
ATOM     25  C   UNL     1       0.541   9.855  19.195  0.00  0.00    +0.000 A 
ATOM     26  C   UNL     1       1.447   8.787  19.169  0.00  0.00    +0.000 A 
BRANCH  24  27
ATOM     27  N   UNL     1      -1.087  11.281  20.423  0.00  0.00    +0.000 N 
ATOM     28  O   UNL     1      -1.697  11.559  19.379  0.00  0.00    +0.000 OA
ATOM     29  O   UNL     1      -1.232  11.874  21.500  0.00  0.00    +0.000 OA
ENDBRANCH  24  27
ENDBRANCH  19  21
ENDBRANCH  16  17
ENDBRANCH   1  16
TORSDOF 7
ENDMDL
MODEL 7
REMARK VINA RESULT:      -7.7      5.116      8.057
REMARK  Name = 
REMARK  8 active torsions:
REMARK  status: ('A' for Active; 'I' for Inactive)
REMARK    1  A    between atoms: C_1  and  O_2
REMARK    2  A    between atoms: O_2  and  C_3
REMARK    3  A    between atoms: C_7  and  N_8
REMARK    4  A    between atoms: N_11  and  C_12
REMARK    5  A    between atoms: C_12  and  C_13
REMARK    6  A    between atoms: C_13  and  C_14
REMARK    7  A    between atoms: N_16  and  C_17
REMARK    8  A    between atoms: C_20  and  N_21
REMARK                            x       y       z     vdW  Elec       q    Type
REMARK                         _______ _______ _______ _____ _____    ______ ____
ROOT
ATOM      1  C   UNL     1       7.421   7.777  17.775  0.00  0.00    +0.000 C 
ENDROOT
BRANCH   1   5
ATOM      2  N   UNL     1       5.175   4.941  18.168  0.00  0.00    +0.000 N 
ATOM      3  C   UNL     1       6.038   5.373  19.265  0.00  0.00    +0.000 C 
ATOM      4  C   UNL     1       7.483   5.499  18.710  0.00  0.00    +0.000 C 
ATOM      5  N   UNL     1       7.640   6.350  17.497  0.00  0.00    +0.000 NA
ATOM      6  C   UNL     1       6.646   5.899  16.477  0.00  0.00    +0.000 C 
ATOM      7  C   UNL     1       5.188   5.804  16.989  0.00  0.00    +0.000 C 
BRANCH   2  12
ATOM      8  C   UNL     1       2.299   3.393  19.612  0.00  0.00    +0.000 A 
ATOM      9  C   UNL     1       2.165   2.209  18.911  0.00  0.00    +0.000 A 
ATOM     10  C   UNL     1       3.084   1.940  17.912  0.00  0.00    +0.000 A 
ATOM     11  C   UNL     1       4.080   2.873  17.651  0.00  0.00    +0.000 A 
ATOM     12  C   UNL     1       4.154   4.052  18.397  0.00  0.00    +0.000 A 
ATOM     13  N   UNL     1       3.276   4.299  19.389  0.00  0.00    +0.000 NA
BRANCH   8  15
ATOM     14  C   UNL     1       1.438   2.712  21.674  0.00  0.00    +0.000 C 
ATOM     15  O   UNL     1       1.351   3.630  20.590  0.00  0.00    +0.000 OA
ENDBRANCH   8  15
ENDBRANCH   2  12
ENDBRANCH   1   5
BRANCH   1  16
ATOM     16  C   UNL     1       8.519   8.452  18.599  0.00  0.00    +0.000 C 
BRANCH  16  17
ATOM     17  C   UNL     1       8.618   9.895  18.148  0.00  0.00    +0.000 C 
ATOM     18  O   UNL     1       7.766  10.393  17.418  0.00  0.00    +0.000 OA
ATOM     19  N   UNL     1       9.734  10.549  18.637  0.00  0.00    +0.000 N 
ATOM     20  H   UNL     1      10.471   9.980  19.037  0.00  0.00    +0.000 HD
BRANCH  19  21
ATOM     21  C   UNL     1       9.992  11.925  18.467  0.00  0.00    +0.000 A 
ATOM     22  C   UNL     1      10.898  12.412  17.515  0.00  0.00    +0.000 A 
ATOM     23  C   UNL     1      11.153  13.778  17.394  0.00  0.00    +0.000 A 
ATOM     24  C   UNL     1      10.482  14.673  18.227  0.00  0.00    +0.000 A 
ATOM     25  C   UNL     1       9.553  14.208  19.169  0.00  0.00    +0.000 A 
ATOM     26  C   UNL     1       9.302  12.834  19.278  0.00  0.00    +0.000 A 
BRANCH  24  27
ATOM     27  N   UNL     1      10.759  16.109  18.108  0.00  0.00    +0.000 N 
ATOM     28  O   UNL     1       9.922  16.901  18.566  0.00  0.00    +0.000 OA
ATOM     29  O   UNL     1      11.818  16.443  17.560  0.00  0.00    +0.000 OA
ENDBRANCH  24  27
ENDBRANCH  19  21
ENDBRANCH  16  17
ENDBRANCH   1  16
TORSDOF 7
ENDMDL
MODEL 8
REMARK VINA RESULT:      -7.7      5.422      8.186
REMARK  Name = 
REMARK  8 active torsions:
REMARK  status: ('A' for Active; 'I' for Inactive)
REMARK    1  A    between atoms: C_1  and  O_2
REMARK    2  A    between atoms: O_2  and  C_3
REMARK    3  A    between atoms: C_7  and  N_8
REMARK    4  A    between atoms: N_11  and  C_12
REMARK    5  A    between atoms: C_12  and  C_13
REMARK    6  A    between atoms: C_13  and  C_14
REMARK    7  A    between atoms: N_16  and  C_17
REMARK    8  A    between atoms: C_20  and  N_21
REMARK                            x       y       z     vdW  Elec       q    Type
REMARK                         _______ _______ _______ _____ _____    ______ ____
ROOT
ATOM      1  C   UNL     1       7.956   7.731  18.414  0.00  0.00    +0.000 C 
ENDROOT
BRANCH   1   5
ATOM      2  N   UNL     1       5.114   5.462  18.320  0.00  0.00    +0.000 N 
ATOM      3  C   UNL     1       6.182   5.288  19.302  0.00  0.00    +0.000 C 
ATOM      4  C   UNL     1       7.534   5.308  18.540  0.00  0.00    +0.000 C 
ATOM      5  N   UNL     1       7.764   6.485  17.656  0.00  0.00    +0.000 NA
ATOM      6  C   UNL     1       6.575   6.641  16.766  0.00  0.00    +0.000 C 
ATOM      7  C   UNL     1       5.212   6.667  17.500  0.00  0.00    +0.000 C 
BRANCH   2  12
ATOM      8  C   UNL     1       2.633   3.201  19.541  0.00  0.00    +0.000 A 
ATOM      9  C   UNL     1       1.586   3.333  18.646  0.00  0.00    +0.000 A 
ATOM     10  C   UNL     1       1.737   4.227  17.600  0.00  0.00    +0.000 A 
ATOM     11  C   UNL     1       2.916   4.957  17.509  0.00  0.00    +0.000 A 
ATOM     12  C   UNL     1       3.931   4.776  18.451  0.00  0.00    +0.000 A 
ATOM     13  N   UNL     1       3.796   3.885  19.452  0.00  0.00    +0.000 NA
BRANCH   8  15
ATOM     14  C   UNL     1       2.108   2.955  21.803  0.00  0.00    +0.000 C 
ATOM     15  O   UNL     1       2.435   2.310  20.579  0.00  0.00    +0.000 OA
ENDBRANCH   8  15
ENDBRANCH   2  12
ENDBRANCH   1   5
BRANCH   1  16
ATOM     16  C   UNL     1       8.001   9.003  17.564  0.00  0.00    +0.000 C 
BRANCH  16  17
ATOM     17  C   UNL     1       8.762  10.056  18.345  0.00  0.00    +0.000 C 
ATOM     18  O   UNL     1       9.385   9.767  19.362  0.00  0.00    +0.000 OA
ATOM     19  N   UNL     1       8.669  11.322  17.796  0.00  0.00    +0.000 N 
ATOM     20  H   UNL     1       7.954  11.476  17.096  0.00  0.00    +0.000 HD
BRANCH  19  21
ATOM     21  C   UNL     1       9.383  12.447  18.258  0.00  0.00    +0.000 A 
ATOM     22  C   UNL     1       8.894  13.291  19.264  0.00  0.00    +0.000 A 
ATOM     23  C   UNL     1       9.611  14.414  19.677  0.00  0.00    +0.000 A 
ATOM     24  C   UNL     1      10.843  14.690  19.084  0.00  0.00    +0.000 A 
ATOM     25  C   UNL     1      11.362  13.845  18.094  0.00  0.00    +0.000 A 
ATOM     26  C   UNL     1      10.634  12.717  17.691  0.00  0.00    +0.000 A 
BRANCH  24  27
ATOM     27  N   UNL     1      11.593  15.878  19.510  0.00  0.00    +0.000 N 
ATOM     28  O   UNL     1      11.446  16.270  20.677  0.00  0.00    +0.000 OA
ATOM     29  O   UNL     1      12.333  16.415  18.675  0.00  0.00    +0.000 OA
ENDBRANCH  24  27
ENDBRANCH  19  21
ENDBRANCH  16  17
ENDBRANCH   1  16
TORSDOF 7
ENDMDL
MODEL 9
REMARK VINA RESULT:      -7.6      2.263      3.272
REMARK  Name = 
REMARK  8 active torsions:
REMARK  status: ('A' for Active; 'I' for Inactive)
REMARK    1  A    between atoms: C_1  and  O_2
REMARK    2  A    between atoms: O_2  and  C_3
REMARK    3  A    between atoms: C_7  and  N_8
REMARK    4  A    between atoms: N_11  and  C_12
REMARK    5  A    between atoms: C_12  and  C_13
REMARK    6  A    between atoms: C_13  and  C_14
REMARK    7  A    between atoms: N_16  and  C_17
REMARK    8  A    between atoms: C_20  and  N_21
REMARK                            x       y       z     vdW  Elec       q    Type
REMARK                         _______ _______ _______ _____ _____    ______ ____
ROOT
ATOM      1  C   UNL     1       5.182   5.493  19.294  0.00  0.00    +0.000 C 
ENDROOT
BRANCH   1   5
ATOM      2  N   UNL     1       6.166   4.594  15.908  0.00  0.00    +0.000 N 
ATOM      3  C   UNL     1       4.818   4.317  16.397  0.00  0.00    +0.000 C 
ATOM      4  C   UNL     1       4.948   3.581  17.758  0.00  0.00    +0.000 C 
ATOM      5  N   UNL     1       5.794   4.257  18.782  0.00  0.00    +0.000 NA
ATOM      6  C   UNL     1       7.108   4.593  18.157  0.00  0.00    +0.000 C 
ATOM      7  C   UNL     1       7.012   5.365  16.817  0.00  0.00    +0.000 C 
BRANCH   2  12
ATOM      8  C   UNL     1       6.116   3.496  12.510  0.00  0.00    +0.000 A 
ATOM      9  C   UNL     1       7.111   4.240  11.900  0.00  0.00    +0.000 A 
ATOM     10  C   UNL     1       7.811   5.146  12.677  0.00  0.00    +0.000 A 
ATOM     11  C   UNL     1       7.474   5.277  14.019  0.00  0.00    +0.000 A 
ATOM     12  C   UNL     1       6.455   4.496  14.569  0.00  0.00    +0.000 A 
ATOM     13  N   UNL     1       5.793   3.594  13.819  0.00  0.00    +0.000 NA
BRANCH   8  15
ATOM     14  C   UNL     1       4.181   3.132  11.254  0.00  0.00    +0.000 C 
ATOM     15  O   UNL     1       5.431   2.615  11.695  0.00  0.00    +0.000 OA
ENDBRANCH   8  15
ENDBRANCH   2  12
ENDBRANCH   1   5
BRANCH   1  16
ATOM     16  C   UNL     1       3.685   5.397  19.596  0.00  0.00    +0.000 C 
BRANCH  16  17
ATOM     17  C   UNL     1       3.034   6.685  19.136  0.00  0.00    +0.000 C 
ATOM     18  O   UNL     1       3.229   7.129  18.009  0.00  0.00    +0.000 OA
ATOM     19  N   UNL     1       2.234   7.272  20.100  0.00  0.00    +0.000 N 
ATOM     20  H   UNL     1       2.329   6.939  21.052  0.00  0.00    +0.000 HD
BRANCH  19  21
ATOM     21  C   UNL     1       1.424   8.405  19.883  0.00  0.00    +0.000 A 
ATOM     22  C   UNL     1       0.672   9.003  20.903  0.00  0.00    +0.000 A 
ATOM     23  C   UNL     1      -0.144  10.105  20.649  0.00  0.00    +0.000 A 
ATOM     24  C   UNL     1      -0.201  10.626  19.357  0.00  0.00    +0.000 A 
ATOM     25  C   UNL     1       0.563  10.059  18.327  0.00  0.00    +0.000 A 
ATOM     26  C   UNL     1       1.383   8.955  18.596  0.00  0.00    +0.000 A 
BRANCH  24  27
ATOM     27  N   UNL     1      -1.068  11.778  19.085  0.00  0.00    +0.000 N 
ATOM     28  O   UNL     1      -1.286  12.075  17.901  0.00  0.00    +0.000 OA
ATOM     29  O   UNL     1      -1.536  12.383  20.059  0.00  0.00    +0.000 OA
ENDBRANCH  24  27
ENDBRANCH  19  21
ENDBRANCH  16  17
ENDBRANCH   1  16
TORSDOF 7
ENDMDL
