MODEL 1
REMARK VINA RESULT:      -7.0      0.000      0.000
REMARK  Name = 
REMARK  8 active torsions:
REMARK  status: ('A' for Active; 'I' for Inactive)
REMARK    1  A    between atoms: C_1  and  C_2
REMARK    2  A    between atoms: C_2  and  C_3
REMARK    3  A    between atoms: C_2  and  C_4
REMARK    4  A    between atoms: C_2  and  C_5
REMARK    5  A    between atoms: C_5  and  C_6
REMARK    6  A    between atoms: N_8  and  C_9
REMARK    7  A    between atoms: C_12  and  N_13
REMARK    8  A    between atoms: N_13  and  C_14
REMARK                            x       y       z     vdW  Elec       q    Type
REMARK                         _______ _______ _______ _____ _____    ______ ____
ROOT
ATOM      1  C   UNL     1       5.684   5.482  18.612  0.00  0.00    +0.000 A 
ATOM      2  C   UNL     1       7.002   5.569  19.061  0.00  0.00    +0.000 A 
ATOM      3  C   UNL     1       7.842   6.598  18.627  0.00  0.00    +0.000 A 
ATOM      4  C   UNL     1       7.391   7.554  17.713  0.00  0.00    +0.000 A 
ATOM      5  C   UNL     1       6.066   7.467  17.267  0.00  0.00    +0.000 A 
ATOM      6  C   UNL     1       5.223   6.434  17.699  0.00  0.00    +0.000 A 
ENDROOT
BRANCH   1   9
ATOM      7  C   UNL     1       4.235   3.500  18.197  0.00  0.00    +0.000 C 
ATOM      8  O   UNL     1       4.518   3.301  17.018  0.00  0.00    +0.000 OA
ATOM      9  N   UNL     1       4.799   4.459  19.019  0.00  0.00    +0.000 N 
ATOM     10  H   UNL     1       4.638   4.373  20.016  0.00  0.00    +0.000 HD
BRANCH   7  11
ATOM     11  C   UNL     1       3.168   2.654  18.870  0.00  0.00    +0.000 C 
BRANCH  11  13
ATOM     12  C   UNL     1       1.578   4.333  17.779  0.00  0.00    +0.000 C 
ATOM     13  C   UNL     1       1.773   3.327  18.929  0.00  0.00    +0.000 C 
ATOM     14  C   UNL     1       1.565   4.048  20.269  0.00  0.00    +0.000 C 
ATOM     15  C   UNL     1       0.703   2.227  18.787  0.00  0.00    +0.000 C 
ENDBRANCH  11  13
ENDBRANCH   7  11
ENDBRANCH   1   9
BRANCH   4  16
ATOM     16  N   UNL     1       8.247   8.603  17.317  0.00  0.00    +0.000 N 
ATOM     17  H   UNL     1       8.151   8.834  16.331  0.00  0.00    +0.000 HD
BRANCH  16  18
ATOM     18  C   UNL     1       8.583   9.763  18.049  0.00  0.00    +0.000 A 
ATOM     19  C   UNL     1       9.146   9.618  19.323  0.00  0.00    +0.000 A 
ATOM     20  C   UNL     1       9.515  10.737  20.071  0.00  0.00    +0.000 A 
ATOM     21  C   UNL     1       9.345  12.015  19.544  0.00  0.00    +0.000 A 
ATOM     22  C   UNL     1       8.814  12.173  18.266  0.00  0.00    +0.000 A 
ATOM     23  C   UNL     1       8.441  11.052  17.522  0.00  0.00    +0.000 A 
ENDBRANCH  16  18
ENDBRANCH   4  16
TORSDOF 5
ENDMDL
MODEL 2
REMARK VINA RESULT:      -6.9      6.242      9.367
REMARK  Name = 
REMARK  8 active torsions:
REMARK  status: ('A' for Active; 'I' for Inactive)
REMARK    1  A    between atoms: C_1  and  C_2
REMARK    2  A    between atoms: C_2  and  C_3
REMARK    3  A    between atoms: C_2  and  C_4
REMARK    4  A    between atoms: C_2  and  C_5
REMARK    5  A    between atoms: C_5  and  C_6
REMARK    6  A    between atoms: N_8  and  C_9
REMARK    7  A    between atoms: C_12  and  N_13
REMARK    8  A    between atoms: N_13  and  C_14
REMARK                            x       y       z     vdW  Elec       q    Type
REMARK                         _______ _______ _______ _____ _____    ______ ____
ROOT
ATOM      1  C   UNL     1       1.012  10.087  18.879  0.00  0.00    +0.000 A 
ATOM      2  C   UNL     1       1.731   9.378  17.918  0.00  0.00    +0.000 A 
ATOM      3  C   UNL     1       2.305   8.139  18.220  0.00  0.00    +0.000 A 
ATOM      4  C   UNL     1       2.191   7.590  19.500  0.00  0.00    +0.000 A 
ATOM      5  C   UNL     1       1.464   8.303  20.461  0.00  0.00    +0.000 A 
ATOM      6  C   UNL     1       0.891   9.546  20.161  0.00  0.00    +0.000 A 
ENDROOT
BRANCH   1   9
ATOM      7  C   UNL     1       1.054  12.570  18.685  0.00  0.00    +0.000 C 
ATOM      8  O   UNL     1       2.259  12.751  18.840  0.00  0.00    +0.000 OA
ATOM      9  N   UNL     1       0.417  11.343  18.622  0.00  0.00    +0.000 N 
ATOM     10  H   UNL     1      -0.535  11.329  18.275  0.00  0.00    +0.000 HD
BRANCH   7  11
ATOM     11  C   UNL     1       0.122  13.761  18.558  0.00  0.00    +0.000 C 
BRANCH  11  13
ATOM     12  C   UNL     1       0.429  13.989  21.085  0.00  0.00    +0.000 C 
ATOM     13  C   UNL     1      -0.524  14.206  19.894  0.00  0.00    +0.000 C 
ATOM     14  C   UNL     1      -1.834  13.447  20.153  0.00  0.00    +0.000 C 
ATOM     15  C   UNL     1      -0.833  15.713  19.800  0.00  0.00    +0.000 C 
ENDBRANCH  11  13
ENDBRANCH   7  11
ENDBRANCH   1   9
BRANCH   4  16
ATOM     16  N   UNL     1       2.749   6.322  19.769  0.00  0.00    +0.000 N 
ATOM     17  H   UNL     1       3.352   6.328  20.588  0.00  0.00    +0.000 HD
BRANCH  16  18
ATOM     18  C   UNL     1       2.123   5.062  19.645  0.00  0.00    +0.000 A 
ATOM     19  C   UNL     1       2.040   4.472  18.378  0.00  0.00    +0.000 A 
ATOM     20  C   UNL     1       1.451   3.217  18.213  0.00  0.00    +0.000 A 
ATOM     21  C   UNL     1       0.957   2.528  19.319  0.00  0.00    +0.000 A 
ATOM     22  C   UNL     1       1.061   3.090  20.590  0.00  0.00    +0.000 A 
ATOM     23  C   UNL     1       1.646   4.348  20.751  0.00  0.00    +0.000 A 
ENDBRANCH  16  18
ENDBRANCH   4  16
TORSDOF 5
ENDMDL
MODEL 3
REMARK VINA RESULT:      -6.9      5.193      7.346
REMARK  Name = 
REMARK  8 active torsions:
REMARK  status: ('A' for Active; 'I' for Inactive)
REMARK    1  A    between atoms: C_1  and  C_2
REMARK    2  A    between atoms: C_2  and  C_3
REMARK    3  A    between atoms: C_2  and  C_4
REMARK    4  A    between atoms: C_2  and  C_5
REMARK    5  A    between atoms: C_5  and  C_6
REMARK    6  A    between atoms: N_8  and  C_9
REMARK    7  A    between atoms: C_12  and  N_13
REMARK    8  A    between atoms: N_13  and  C_14
REMARK                            x       y       z     vdW  Elec       q    Type
REMARK                         _______ _______ _______ _____ _____    ______ ____
ROOT
ATOM      1  C   UNL     1       2.595   7.369  18.985  0.00  0.00    +0.000 A 
ATOM      2  C   UNL     1       1.838   7.731  20.099  0.00  0.00    +0.000 A 
ATOM      3  C   UNL     1       1.029   8.871  20.079  0.00  0.00    +0.000 A 
ATOM      4  C   UNL     1       0.977   9.692  18.949  0.00  0.00    +0.000 A 
ATOM      5  C   UNL     1       1.734   9.324  17.831  0.00  0.00    +0.000 A 
ATOM      6  C   UNL     1       2.548   8.183  17.850  0.00  0.00    +0.000 A 
ENDROOT
BRANCH   1   9
ATOM      7  C   UNL     1       3.124   5.016  18.365  0.00  0.00    +0.000 C 
ATOM      8  O   UNL     1       2.148   4.782  17.657  0.00  0.00    +0.000 OA
ATOM      9  N   UNL     1       3.428   6.229  18.958  0.00  0.00    +0.000 N 
ATOM     10  H   UNL     1       4.364   6.346  19.329  0.00  0.00    +0.000 HD
BRANCH   7  11
ATOM     11  C   UNL     1       4.120   3.911  18.666  0.00  0.00    +0.000 C 
BRANCH  11  13
ATOM     12  C   UNL     1       2.348   3.154  20.345  0.00  0.00    +0.000 C 
ATOM     13  C   UNL     1       3.522   2.715  19.449  0.00  0.00    +0.000 C 
ATOM     14  C   UNL     1       4.590   2.034  20.317  0.00  0.00    +0.000 C 
ATOM     15  C   UNL     1       2.985   1.692  18.428  0.00  0.00    +0.000 C 
ENDBRANCH  11  13
ENDBRANCH   7  11
ENDBRANCH   1   9
BRANCH   4  16
ATOM     16  N   UNL     1       0.126  10.818  18.941  0.00  0.00    +0.000 N 
ATOM     17  H   UNL     1       0.611  11.670  18.670  0.00  0.00    +0.000 HD
BRANCH  16  18
ATOM     18  C   UNL     1      -1.220  10.877  18.518  0.00  0.00    +0.000 A 
ATOM     19  C   UNL     1      -1.662   9.975  17.544  0.00  0.00    +0.000 A 
ATOM     20  C   UNL     1      -2.991   9.984  17.114  0.00  0.00    +0.000 A 
ATOM     21  C   UNL     1      -3.897  10.882  17.671  0.00  0.00    +0.000 A 
ATOM     22  C   UNL     1      -3.478  11.766  18.664  0.00  0.00    +0.000 A 
ATOM     23  C   UNL     1      -2.148  11.758  19.088  0.00  0.00    +0.000 A 
ENDBRANCH  16  18
ENDBRANCH   4  16
TORSDOF 5
ENDMDL
MODEL 4
REMARK VINA RESULT:      -6.9      6.756      9.525
REMARK  Name = 
REMARK  8 active torsions:
REMARK  status: ('A' for Active; 'I' for Inactive)
REMARK    1  A    between atoms: C_1  and  C_2
REMARK    2  A    between atoms: C_2  and  C_3
REMARK    3  A    between atoms: C_2  and  C_4
REMARK    4  A    between atoms: C_2  and  C_5
REMARK    5  A    between atoms: C_5  and  C_6
REMARK    6  A    between atoms: N_8  and  C_9
REMARK    7  A    between atoms: C_12  and  N_13
REMARK    8  A    between atoms: N_13  and  C_14
REMARK                            x       y       z     vdW  Elec       q    Type
REMARK                         _______ _______ _______ _____ _____    ______ ____
ROOT
ATOM      1  C   UNL     1       0.300  10.143  20.182  0.00  0.00    +0.000 A 
ATOM      2  C   UNL     1       1.017   9.787  19.041  0.00  0.00    +0.000 A 
ATOM      3  C   UNL     1       1.766   8.607  19.002  0.00  0.00    +0.000 A 
ATOM      4  C   UNL     1       1.835   7.765  20.115  0.00  0.00    +0.000 A 
ATOM      5  C   UNL     1       1.110   8.124  21.259  0.00  0.00    +0.000 A 
ATOM      6  C   UNL     1       0.361   9.307  21.301  0.00  0.00    +0.000 A 
ENDROOT
BRANCH   1   9
ATOM      7  C   UNL     1      -0.133  12.459  20.989  0.00  0.00    +0.000 C 
ATOM      8  O   UNL     1       0.940  12.668  21.551  0.00  0.00    +0.000 OA
ATOM      9  N   UNL     1      -0.468  11.325  20.270  0.00  0.00    +0.000 N 
ATOM     10  H   UNL     1      -1.291  11.373  19.680  0.00  0.00    +0.000 HD
BRANCH   7  11
ATOM     11  C   UNL     1      -1.239  13.497  21.065  0.00  0.00    +0.000 C 
BRANCH  11  13
ATOM     12  C   UNL     1      -1.895  12.050  23.068  0.00  0.00    +0.000 C 
ATOM     13  C   UNL     1      -2.331  13.182  22.118  0.00  0.00    +0.000 C 
ATOM     14  C   UNL     1      -3.653  12.790  21.442  0.00  0.00    +0.000 C 
ATOM     15  C   UNL     1      -2.562  14.450  22.963  0.00  0.00    +0.000 C 
ENDBRANCH  11  13
ENDBRANCH   7  11
ENDBRANCH   1   9
BRANCH   4  16
ATOM     16  N   UNL     1       2.569   6.563  20.040  0.00  0.00    +0.000 N 
ATOM     17  H   UNL     1       3.236   6.464  20.802  0.00  0.00    +0.000 HD
BRANCH  16  18
ATOM     18  C   UNL     1       2.100   5.290  19.647  0.00  0.00    +0.000 A 
ATOM     19  C   UNL     1       1.516   4.459  20.612  0.00  0.00    +0.000 A 
ATOM     20  C   UNL     1       1.017   3.203  20.263  0.00  0.00    +0.000 A 
ATOM     21  C   UNL     1       1.079   2.772  18.940  0.00  0.00    +0.000 A 
ATOM     22  C   UNL     1       1.629   3.600  17.965  0.00  0.00    +0.000 A 
ATOM     23  C   UNL     1       2.131   4.855  18.318  0.00  0.00    +0.000 A 
ENDBRANCH  16  18
ENDBRANCH   4  16
TORSDOF 5
ENDMDL
MODEL 5
REMARK VINA RESULT:      -6.9      6.310      9.307
REMARK  Name = 
REMARK  8 active torsions:
REMARK  status: ('A' for Active; 'I' for Inactive)
REMARK    1  A    between atoms: C_1  and  C_2
REMARK    2  A    between atoms: C_2  and  C_3
REMARK    3  A    between atoms: C_2  and  C_4
REMARK    4  A    between atoms: C_2  and  C_5
REMARK    5  A    between atoms: C_5  and  C_6
REMARK    6  A    between atoms: N_8  and  C_9
REMARK    7  A    between atoms: C_12  and  N_13
REMARK    8  A    between atoms: N_13  and  C_14
REMARK                            x       y       z     vdW  Elec       q    Type
REMARK                         _______ _______ _______ _____ _____    ______ ____
ROOT
ATOM      1  C   UNL     1       0.919  10.136  18.918  0.00  0.00    +0.000 A 
ATOM      2  C   UNL     1       1.632   9.426  17.952  0.00  0.00    +0.000 A 
ATOM      3  C   UNL     1       2.226   8.197  18.256  0.00  0.00    +0.000 A 
ATOM      4  C   UNL     1       2.141   7.660  19.542  0.00  0.00    +0.000 A 
ATOM      5  C   UNL     1       1.421   8.372  20.509  0.00  0.00    +0.000 A 
ATOM      6  C   UNL     1       0.827   9.605  20.207  0.00  0.00    +0.000 A 
ENDROOT
BRANCH   1   9
ATOM      7  C   UNL     1       0.939  12.611  18.645  0.00  0.00    +0.000 C 
ATOM      8  O   UNL     1       2.150  12.800  18.719  0.00  0.00    +0.000 OA
ATOM      9  N   UNL     1       0.304  11.381  18.660  0.00  0.00    +0.000 N 
ATOM     10  H   UNL     1      -0.667  11.353  18.373  0.00  0.00    +0.000 HD
BRANCH   7  11
ATOM     11  C   UNL     1      -0.005  13.795  18.538  0.00  0.00    +0.000 C 
BRANCH  11  13
ATOM     12  C   UNL     1      -0.922  15.754  19.901  0.00  0.00    +0.000 C 
ATOM     13  C   UNL     1      -0.611  14.245  19.891  0.00  0.00    +0.000 C 
ATOM     14  C   UNL     1       0.335  13.919  21.056  0.00  0.00    +0.000 C 
ATOM     15  C   UNL     1      -1.936  13.485  20.101  0.00  0.00    +0.000 C 
ENDBRANCH  11  13
ENDBRANCH   7  11
ENDBRANCH   1   9
BRANCH   4  16
ATOM     16  N   UNL     1       2.719   6.401  19.814  0.00  0.00    +0.000 N 
ATOM     17  H   UNL     1       3.265   6.401  20.673  0.00  0.00    +0.000 HD
BRANCH  16  18
ATOM     18  C   UNL     1       2.144   5.127  19.612  0.00  0.00    +0.000 A 
ATOM     19  C   UNL     1       1.639   4.432  20.717  0.00  0.00    +0.000 A 
ATOM     20  C   UNL     1       1.041   3.180  20.560  0.00  0.00    +0.000 A 
ATOM     21  C   UNL     1       0.924   2.619  19.290  0.00  0.00    +0.000 A 
ATOM     22  C   UNL     1       1.395   3.313  18.178  0.00  0.00    +0.000 A 
ATOM     23  C   UNL     1       1.996   4.563  18.340  0.00  0.00    +0.000 A 
ENDBRANCH  16  18
ENDBRANCH   4  16
TORSDOF 5
ENDMDL
MODEL 6
REMARK VINA RESULT:      -6.9      6.865      9.627
REMARK  Name = 
REMARK  8 active torsions:
REMARK  status: ('A' for Active; 'I' for Inactive)
REMARK    1  A    between atoms: C_1  and  C_2
REMARK    2  A    between atoms: C_2  and  C_3
REMARK    3  A    between atoms: C_2  and  C_4
REMARK    4  A    between atoms: C_2  and  C_5
REMARK    5  A    between atoms: C_5  and  C_6
REMARK    6  A    between atoms: N_8  and  C_9
REMARK    7  A    between atoms: C_12  and  N_13
REMARK    8  A    between atoms: N_13  and  C_14
REMARK                            x       y       z     vdW  Elec       q    Type
REMARK                         _______ _______ _______ _____ _____    ______ ____
ROOT
ATOM      1  C   UNL     1       0.176  10.139  20.345  0.00  0.00    +0.000 A 
ATOM      2  C   UNL     1       0.894   9.836  19.189  0.00  0.00    +0.000 A 
ATOM      3  C   UNL     1       1.659   8.670  19.103  0.00  0.00    +0.000 A 
ATOM      4  C   UNL     1       1.745   7.788  20.183  0.00  0.00    +0.000 A 
ATOM      5  C   UNL     1       1.020   8.092  21.342  0.00  0.00    +0.000 A 
ATOM      6  C   UNL     1       0.254   9.262  21.431  0.00  0.00    +0.000 A 
ENDROOT
BRANCH   1   9
ATOM      7  C   UNL     1      -0.247  12.451  21.168  0.00  0.00    +0.000 C 
ATOM      8  O   UNL     1       0.857  12.685  21.652  0.00  0.00    +0.000 OA
ATOM      9  N   UNL     1      -0.609  11.306  20.481  0.00  0.00    +0.000 N 
ATOM     10  H   UNL     1      -1.471  11.333  19.949  0.00  0.00    +0.000 HD
BRANCH   7  11
ATOM     11  C   UNL     1      -1.366  13.466  21.315  0.00  0.00    +0.000 C 
BRANCH  11  13
ATOM     12  C   UNL     1      -3.519  13.975  22.597  0.00  0.00    +0.000 C 
ATOM     13  C   UNL     1      -2.084  13.423  22.689  0.00  0.00    +0.000 C 
ATOM     14  C   UNL     1      -1.304  14.222  23.743  0.00  0.00    +0.000 C 
ATOM     15  C   UNL     1      -2.167  11.952  23.141  0.00  0.00    +0.000 C 
ENDBRANCH  11  13
ENDBRANCH   7  11
ENDBRANCH   1   9
BRANCH   4  16
ATOM     16  N   UNL     1       2.496   6.600  20.060  0.00  0.00    +0.000 N 
ATOM     17  H   UNL     1       3.188   6.497  20.799  0.00  0.00    +0.000 HD
BRANCH  16  18
ATOM     18  C   UNL     1       2.035   5.327  19.656  0.00  0.00    +0.000 A 
ATOM     19  C   UNL     1       2.239   4.925  18.331  0.00  0.00    +0.000 A 
ATOM     20  C   UNL     1       1.821   3.666  17.895  0.00  0.00    +0.000 A 
ATOM     21  C   UNL     1       1.212   2.787  18.787  0.00  0.00    +0.000 A 
ATOM     22  C   UNL     1       1.029   3.163  20.116  0.00  0.00    +0.000 A 
ATOM     23  C   UNL     1       1.445   4.425  20.548  0.00  0.00    +0.000 A 
ENDBRANCH  16  18
ENDBRANCH   4  16
TORSDOF 5
ENDMDL
MODEL 7
REMARK VINA RESULT:      -6.8      6.403      9.277
REMARK  Name = 
REMARK  8 active torsions:
REMARK  status: ('A' for Active; 'I' for Inactive)
REMARK    1  A    between atoms: C_1  and  C_2
REMARK    2  A    between atoms: C_2  and  C_3
REMARK    3  A    between atoms: C_2  and  C_4
REMARK    4  A    between atoms: C_2  and  C_5
REMARK    5  A    between atoms: C_5  and  C_6
REMARK    6  A    between atoms: N_8  and  C_9
REMARK    7  A    between atoms: C_12  and  N_13
REMARK    8  A    between atoms: N_13  and  C_14
REMARK                            x       y       z     vdW  Elec       q    Type
REMARK                         _______ _______ _______ _____ _____    ______ ____
ROOT
ATOM      1  C   UNL     1       0.577   9.740  19.931  0.00  0.00    +0.000 A 
ATOM      2  C   UNL     1       1.233   9.435  18.738  0.00  0.00    +0.000 A 
ATOM      3  C   UNL     1       1.981   8.261  18.609  0.00  0.00    +0.000 A 
ATOM      4  C   UNL     1       2.110   7.373  19.680  0.00  0.00    +0.000 A 
ATOM      5  C   UNL     1       1.447   7.679  20.875  0.00  0.00    +0.000 A 
ATOM      6  C   UNL     1       0.699   8.857  21.007  0.00  0.00    +0.000 A 
ENDROOT
BRANCH   1   9
ATOM      7  C   UNL     1       0.167  12.001  20.889  0.00  0.00    +0.000 C 
ATOM      8  O   UNL     1       1.254  12.175  21.435  0.00  0.00    +0.000 OA
ATOM      9  N   UNL     1      -0.187  10.914  20.110  0.00  0.00    +0.000 N 
ATOM     10  H   UNL     1      -1.024  10.998  19.544  0.00  0.00    +0.000 HD
BRANCH   7  11
ATOM     11  C   UNL     1      -0.935  13.032  21.055  0.00  0.00    +0.000 C 
BRANCH  11  13
ATOM     12  C   UNL     1      -1.180  13.914  23.442  0.00  0.00    +0.000 C 
ATOM     13  C   UNL     1      -1.710  12.920  22.392  0.00  0.00    +0.000 C 
ATOM     14  C   UNL     1      -1.626  11.495  22.960  0.00  0.00    +0.000 C 
ATOM     15  C   UNL     1      -3.189  13.259  22.119  0.00  0.00    +0.000 C 
ENDBRANCH  11  13
ENDBRANCH   7  11
ENDBRANCH   1   9
BRANCH   4  16
ATOM     16  N   UNL     1       2.842   6.178  19.514  0.00  0.00    +0.000 N 
ATOM     17  H   UNL     1       3.619   6.102  20.166  0.00  0.00    +0.000 HD
BRANCH  16  18
ATOM     18  C   UNL     1       2.336   4.892  19.222  0.00  0.00    +0.000 A 
ATOM     19  C   UNL     1       2.684   4.289  18.008  0.00  0.00    +0.000 A 
ATOM     20  C   UNL     1       2.226   3.010  17.689  0.00  0.00    +0.000 A 
ATOM     21  C   UNL     1       1.430   2.310  18.592  0.00  0.00    +0.000 A 
ATOM     22  C   UNL     1       1.100   2.885  19.818  0.00  0.00    +0.000 A 
ATOM     23  C   UNL     1       1.556   4.167  20.131  0.00  0.00    +0.000 A 
ENDBRANCH  16  18
ENDBRANCH   4  16
TORSDOF 5
ENDMDL
MODEL 8
REMARK VINA RESULT:      -6.8      6.362      8.828
REMARK  Name = 
REMARK  8 active torsions:
REMARK  status: ('A' for Active; 'I' for Inactive)
REMARK    1  A    between atoms: C_1  and  C_2
REMARK    2  A    between atoms: C_2  and  C_3
REMARK    3  A    between atoms: C_2  and  C_4
REMARK    4  A    between atoms: C_2  and  C_5
REMARK    5  A    between atoms: C_5  and  C_6
REMARK    6  A    between atoms: N_8  and  C_9
REMARK    7  A    between atoms: C_12  and  N_13
REMARK    8  A    between atoms: N_13  and  C_14
REMARK                            x       y       z     vdW  Elec       q    Type
REMARK                         _______ _______ _______ _____ _____    ______ ____
ROOT
ATOM      1  C   UNL     1       0.510   9.803  19.637  0.00  0.00    +0.000 A 
ATOM      2  C   UNL     1       0.957   8.861  20.564  0.00  0.00    +0.000 A 
ATOM      3  C   UNL     1       1.860   7.861  20.192  0.00  0.00    +0.000 A 
ATOM      4  C   UNL     1       2.320   7.764  18.876  0.00  0.00    +0.000 A 
ATOM      5  C   UNL     1       1.872   8.713  17.949  0.00  0.00    +0.000 A 
ATOM      6  C   UNL     1       0.965   9.715  18.319  0.00  0.00    +0.000 A 
ENDROOT
BRANCH   1   9
ATOM      7  C   UNL     1      -0.149  11.907  20.795  0.00  0.00    +0.000 C 
ATOM      8  O   UNL     1       0.943  12.213  21.268  0.00  0.00    +0.000 OA
ATOM      9  N   UNL     1      -0.403  10.830  19.964  0.00  0.00    +0.000 N 
ATOM     10  H   UNL     1      -1.290  10.818  19.473  0.00  0.00    +0.000 HD
BRANCH   7  11
ATOM     11  C   UNL     1      -1.375  12.741  21.124  0.00  0.00    +0.000 C 
BRANCH  11  13
ATOM     12  C   UNL     1      -3.424  12.588  22.645  0.00  0.00    +0.000 C 
ATOM     13  C   UNL     1      -1.885  12.569  22.577  0.00  0.00    +0.000 C 
ATOM     14  C   UNL     1      -1.328  13.670  23.491  0.00  0.00    +0.000 C 
ATOM     15  C   UNL     1      -1.402  11.201  23.097  0.00  0.00    +0.000 C 
ENDBRANCH  11  13
ENDBRANCH   7  11
ENDBRANCH   1   9
BRANCH   4  16
ATOM     16  N   UNL     1       3.258   6.767  18.534  0.00  0.00    +0.000 N 
ATOM     17  H   UNL     1       4.094   6.804  19.111  0.00  0.00    +0.000 HD
BRANCH  16  18
ATOM     18  C   UNL     1       2.996   5.431  18.155  0.00  0.00    +0.000 A 
ATOM     19  C   UNL     1       3.996   4.709  17.493  0.00  0.00    +0.000 A 
ATOM     20  C   UNL     1       3.788   3.379  17.122  0.00  0.00    +0.000 A 
ATOM     21  C   UNL     1       2.584   2.750  17.429  0.00  0.00    +0.000 A 
ATOM     22  C   UNL     1       1.592   3.447  18.115  0.00  0.00    +0.000 A 
ATOM     23  C   UNL     1       1.801   4.779  18.481  0.00  0.00    +0.000 A 
ENDBRANCH  16  18
ENDBRANCH   4  16
TORSDOF 5
ENDMDL
MODEL 9
REMARK VINA RESULT:      -6.8      6.248      9.398
REMARK  Name = 
REMARK  8 active torsions:
REMARK  status: ('A' for Active; 'I' for Inactive)
REMARK    1  A    between atoms: C_1  and  C_2
REMARK    2  A    between atoms: C_2  and  C_3
REMARK    3  A    between atoms: C_2  and  C_4
REMARK    4  A    between atoms: C_2  and  C_5
REMARK    5  A    between atoms: C_5  and  C_6
REMARK    6  A    between atoms: N_8  and  C_9
REMARK    7  A    between atoms: C_12  and  N_13
REMARK    8  A    between atoms: N_13  and  C_14
REMARK                            x       y       z     vdW  Elec       q    Type
REMARK                         _______ _______ _______ _____ _____    ______ ____
ROOT
ATOM      1  C   UNL     1       1.007  10.149  18.990  0.00  0.00    +0.000 A 
ATOM      2  C   UNL     1       0.876   9.550  20.242  0.00  0.00    +0.000 A 
ATOM      3  C   UNL     1       1.435   8.295  20.501  0.00  0.00    +0.000 A 
ATOM      4  C   UNL     1       2.121   7.597  19.504  0.00  0.00    +0.000 A 
ATOM      5  C   UNL     1       2.255   8.202  18.249  0.00  0.00    +0.000 A 
ATOM      6  C   UNL     1       1.693   9.459  17.986  0.00  0.00    +0.000 A 
ENDROOT
BRANCH   1   9
ATOM      7  C   UNL     1       1.125  12.623  18.737  0.00  0.00    +0.000 C 
ATOM      8  O   UNL     1       2.328  12.777  18.933  0.00  0.00    +0.000 OA
ATOM      9  N   UNL     1       0.458  11.412  18.679  0.00  0.00    +0.000 N 
ATOM     10  H   UNL     1      -0.480  11.414  18.296  0.00  0.00    +0.000 HD
BRANCH   7  11
ATOM     11  C   UNL     1       0.231  13.835  18.543  0.00  0.00    +0.000 C 
BRANCH  11  13
ATOM     12  C   UNL     1       0.549  14.243  21.047  0.00  0.00    +0.000 C 
ATOM     13  C   UNL     1      -0.415  14.360  19.850  0.00  0.00    +0.000 C 
ATOM     14  C   UNL     1      -1.710  13.599  20.170  0.00  0.00    +0.000 C 
ATOM     15  C   UNL     1      -0.751  15.851  19.654  0.00  0.00    +0.000 C 
ENDBRANCH  11  13
ENDBRANCH   7  11
ENDBRANCH   1   9
BRANCH   4  16
ATOM     16  N   UNL     1       2.706   6.348  19.800  0.00  0.00    +0.000 N 
ATOM     17  H   UNL     1       3.296   6.381  20.629  0.00  0.00    +0.000 HD
BRANCH  16  18
ATOM     18  C   UNL     1       2.116   5.070  19.683  0.00  0.00    +0.000 A 
ATOM     19  C   UNL     1       2.039   4.476  18.418  0.00  0.00    +0.000 A 
ATOM     20  C   UNL     1       1.485   3.204  18.260  0.00  0.00    +0.000 A 
ATOM     21  C   UNL     1       1.021   2.504  19.371  0.00  0.00    +0.000 A 
ATOM     22  C   UNL     1       1.119   3.071  20.640  0.00  0.00    +0.000 A 
ATOM     23  C   UNL     1       1.669   4.345  20.794  0.00  0.00    +0.000 A 
ENDBRANCH  16  18
ENDBRANCH   4  16
TORSDOF 5
ENDMDL
