MODEL 1
REMARK VINA RESULT:      -7.3      0.000      0.000
REMARK  Name = 
REMARK  4 active torsions:
REMARK  status: ('A' for Active; 'I' for Inactive)
REMARK    1  A    between atoms: C_1  and  C_2
REMARK    2  A    between atoms: C_2  and  N_3
REMARK    3  A    between atoms: N_15  and  C_16
REMARK    4  A    between atoms: C_16  and  C_17
REMARK                            x       y       z     vdW  Elec       q    Type
REMARK                         _______ _______ _______ _____ _____    ______ ____
ROOT
ATOM      1  N   UNL     1       2.807   3.710  18.706  0.00  0.00    +0.000 NA
ATOM      2  C   UNL     1       2.025   4.031  19.928  0.00  0.00    +0.000 C 
ATOM      3  C   UNL     1       2.406   5.364  20.617  0.00  0.00    +0.000 C 
ATOM      4  N   UNL     1       2.423   6.455  19.645  0.00  0.00    +0.000 N 
ATOM      5  C   UNL     1       1.776   7.634  19.907  0.00  0.00    +0.000 A 
ATOM      6  N   UNL     1       1.803   8.618  18.996  0.00  0.00    +0.000 NA
ATOM      7  C   UNL     1       1.113   9.742  19.267  0.00  0.00    +0.000 A 
ATOM      8  C   UNL     1       0.386   9.935  20.417  0.00  0.00    +0.000 A 
ATOM      9  C   UNL     1       0.445   8.894  21.311  0.00  0.00    +0.000 A 
ATOM     10  N   UNL     1       1.120   7.754  21.070  0.00  0.00    +0.000 NA
ATOM     11  C   UNL     1      -0.305   8.978  22.610  0.00  0.00    +0.000 C 
ATOM     12  C   UNL     1      -0.583  10.433  22.998  0.00  0.00    +0.000 C 
ATOM     13  N   UNL     1      -1.236  11.148  21.884  0.00  0.00    +0.000 NA
ATOM     14  C   UNL     1      -0.327  11.217  20.716  0.00  0.00    +0.000 C 
ATOM     15  C   UNL     1       3.093   6.229  18.369  0.00  0.00    +0.000 C 
ATOM     16  C   UNL     1       2.670   4.863  17.781  0.00  0.00    +0.000 C 
ENDROOT
BRANCH   1  18
ATOM     17  C   UNL     1       4.354   2.269  20.060  0.00  0.00    +0.000 C 
ATOM     18  C   UNL     1       4.204   3.410  19.061  0.00  0.00    +0.000 C 
ENDBRANCH   1  18
BRANCH  13  19
ATOM     19  C   UNL     1      -1.617  12.523  22.261  0.00  0.00    +0.000 C 
BRANCH  19  20
ATOM     20  C   UNL     1      -3.058  12.659  22.670  0.00  0.00    +0.000 A 
ATOM     21  C   UNL     1      -3.616  12.562  23.932  0.00  0.00    +0.000 A 
ATOM     22  C   UNL     1      -5.038  12.701  23.910  0.00  0.00    +0.000 A 
ATOM     23  C   UNL     1      -5.494  12.911  22.634  0.00  0.00    +0.000 A 
ATOM     24 BR   UNL     1      -7.305  13.128  22.202  0.00  0.00    +0.000 Br
ATOM     25  S   UNL     1      -4.261  12.944  21.476  0.00  0.00    +0.000 S 
ENDBRANCH  19  20
ENDBRANCH  13  19
TORSDOF 3
ENDMDL
MODEL 2
REMARK VINA RESULT:      -7.1      0.834      1.056
REMARK  Name = 
REMARK  4 active torsions:
REMARK  status: ('A' for Active; 'I' for Inactive)
REMARK    1  A    between atoms: C_1  and  C_2
REMARK    2  A    between atoms: C_2  and  N_3
REMARK    3  A    between atoms: N_15  and  C_16
REMARK    4  A    between atoms: C_16  and  C_17
REMARK                            x       y       z     vdW  Elec       q    Type
REMARK                         _______ _______ _______ _____ _____    ______ ____
ROOT
ATOM      1  N   UNL     1       2.998   3.472  18.689  0.00  0.00    +0.000 NA
ATOM      2  C   UNL     1       2.198   3.869  19.877  0.00  0.00    +0.000 C 
ATOM      3  C   UNL     1       2.584   5.234  20.498  0.00  0.00    +0.000 C 
ATOM      4  N   UNL     1       2.633   6.270  19.469  0.00  0.00    +0.000 N 
ATOM      5  C   UNL     1       1.996   7.468  19.653  0.00  0.00    +0.000 A 
ATOM      6  N   UNL     1       2.052   8.400  18.690  0.00  0.00    +0.000 NA
ATOM      7  C   UNL     1       1.372   9.546  18.887  0.00  0.00    +0.000 A 
ATOM      8  C   UNL     1       0.628   9.811  20.011  0.00  0.00    +0.000 A 
ATOM      9  C   UNL     1       0.657   8.820  20.962  0.00  0.00    +0.000 A 
ATOM     10  N   UNL     1       1.322   7.661  20.797  0.00  0.00    +0.000 NA
ATOM     11  C   UNL     1      -0.115   8.985  22.240  0.00  0.00    +0.000 C 
ATOM     12  C   UNL     1      -0.380  10.462  22.542  0.00  0.00    +0.000 C 
ATOM     13  N   UNL     1      -1.004  11.122  21.379  0.00  0.00    +0.000 NA
ATOM     14  C   UNL     1      -0.074  11.116  20.226  0.00  0.00    +0.000 C 
ATOM     15  C   UNL     1       3.322   5.965  18.220  0.00  0.00    +0.000 C 
ATOM     16  C   UNL     1       2.892   4.574  17.700  0.00  0.00    +0.000 C 
ENDROOT
BRANCH   1  18
ATOM     17  C   UNL     1       4.498   2.131  20.189  0.00  0.00    +0.000 C 
ATOM     18  C   UNL     1       4.384   3.176  19.086  0.00  0.00    +0.000 C 
ENDBRANCH   1  18
BRANCH  13  19
ATOM     19  C   UNL     1      -1.374  12.520  21.673  0.00  0.00    +0.000 C 
BRANCH  19  20
ATOM     20  C   UNL     1      -2.855  12.732  21.830  0.00  0.00    +0.000 A 
ATOM     21  C   UNL     1      -3.799  13.021  20.862  0.00  0.00    +0.000 A 
ATOM     22  C   UNL     1      -5.105  13.201  21.412  0.00  0.00    +0.000 A 
ATOM     23  C   UNL     1      -5.096  13.028  22.773  0.00  0.00    +0.000 A 
ATOM     24 BR   UNL     1      -6.620  13.196  23.850  0.00  0.00    +0.000 Br
ATOM     25  S   UNL     1      -3.567  12.657  23.393  0.00  0.00    +0.000 S 
ENDBRANCH  19  20
ENDBRANCH  13  19
TORSDOF 3
ENDMDL
MODEL 3
REMARK VINA RESULT:      -6.9      1.777      2.001
REMARK  Name = 
REMARK  4 active torsions:
REMARK  status: ('A' for Active; 'I' for Inactive)
REMARK    1  A    between atoms: C_1  and  C_2
REMARK    2  A    between atoms: C_2  and  N_3
REMARK    3  A    between atoms: N_15  and  C_16
REMARK    4  A    between atoms: C_16  and  C_17
REMARK                            x       y       z     vdW  Elec       q    Type
REMARK                         _______ _______ _______ _____ _____    ______ ____
ROOT
ATOM      1  N   UNL     1       3.015   3.148  18.606  0.00  0.00    +0.000 NA
ATOM      2  C   UNL     1       2.325   3.746  19.778  0.00  0.00    +0.000 C 
ATOM      3  C   UNL     1       2.829   5.152  20.187  0.00  0.00    +0.000 C 
ATOM      4  N   UNL     1       2.864   6.041  19.028  0.00  0.00    +0.000 N 
ATOM      5  C   UNL     1       2.311   7.292  19.091  0.00  0.00    +0.000 A 
ATOM      6  N   UNL     1       2.351   8.086  18.011  0.00  0.00    +0.000 NA
ATOM      7  C   UNL     1       1.753   9.289  18.096  0.00  0.00    +0.000 A 
ATOM      8  C   UNL     1       1.105   9.745  19.218  0.00  0.00    +0.000 A 
ATOM      9  C   UNL     1       1.145   8.885  20.289  0.00  0.00    +0.000 A 
ATOM     10  N   UNL     1       1.730   7.673  20.238  0.00  0.00    +0.000 NA
ATOM     11  C   UNL     1       0.475   9.263  21.579  0.00  0.00    +0.000 C 
ATOM     12  C   UNL     1       0.315  10.781  21.698  0.00  0.00    +0.000 C 
ATOM     13  N   UNL     1      -0.350  11.325  20.499  0.00  0.00    +0.000 NA
ATOM     14  C   UNL     1       0.495  11.110  19.301  0.00  0.00    +0.000 C 
ATOM     15  C   UNL     1       3.446   5.533  17.791  0.00  0.00    +0.000 C 
ATOM     16  C   UNL     1       2.902   4.118  17.488  0.00  0.00    +0.000 C 
ENDROOT
BRANCH   1  18
ATOM     17  C   UNL     1       4.543   1.972  20.214  0.00  0.00    +0.000 C 
ATOM     18  C   UNL     1       4.407   2.815  18.952  0.00  0.00    +0.000 C 
ENDBRANCH   1  18
BRANCH  13  19
ATOM     19  C   UNL     1      -0.619  12.771  20.627  0.00  0.00    +0.000 C 
BRANCH  19  20
ATOM     20  C   UNL     1      -1.501  13.119  21.794  0.00  0.00    +0.000 A 
ATOM     21  C   UNL     1      -2.778  12.671  22.083  0.00  0.00    +0.000 A 
ATOM     22  C   UNL     1      -3.310  13.273  23.264  0.00  0.00    +0.000 A 
ATOM     23  C   UNL     1      -2.410  14.141  23.826  0.00  0.00    +0.000 A 
ATOM     24 BR   UNL     1      -2.752  15.130  25.380  0.00  0.00    +0.000 Br
ATOM     25  S   UNL     1      -0.953  14.245  22.972  0.00  0.00    +0.000 S 
ENDBRANCH  19  20
ENDBRANCH  13  19
TORSDOF 3
ENDMDL
MODEL 4
REMARK VINA RESULT:      -6.8      5.296     10.068
REMARK  Name = 
REMARK  4 active torsions:
REMARK  status: ('A' for Active; 'I' for Inactive)
REMARK    1  A    between atoms: C_1  and  C_2
REMARK    2  A    between atoms: C_2  and  N_3
REMARK    3  A    between atoms: N_15  and  C_16
REMARK    4  A    between atoms: C_16  and  C_17
REMARK                            x       y       z     vdW  Elec       q    Type
REMARK                         _______ _______ _______ _____ _____    ______ ____
ROOT
ATOM      1  N   UNL     1      -0.036  11.379  22.558  0.00  0.00    +0.000 NA
ATOM      2  C   UNL     1       0.316   9.984  22.929  0.00  0.00    +0.000 C 
ATOM      3  C   UNL     1       0.006   8.921  21.846  0.00  0.00    +0.000 C 
ATOM      4  N   UNL     1       0.559   9.328  20.556  0.00  0.00    +0.000 N 
ATOM      5  C   UNL     1       1.305   8.455  19.809  0.00  0.00    +0.000 A 
ATOM      6  N   UNL     1       1.806   8.855  18.631  0.00  0.00    +0.000 NA
ATOM      7  C   UNL     1       2.575   7.986  17.950  0.00  0.00    +0.000 A 
ATOM      8  C   UNL     1       2.876   6.720  18.392  0.00  0.00    +0.000 A 
ATOM      9  C   UNL     1       2.291   6.379  19.587  0.00  0.00    +0.000 A 
ATOM     10  N   UNL     1       1.520   7.225  20.297  0.00  0.00    +0.000 NA
ATOM     11  C   UNL     1       2.538   5.022  20.182  0.00  0.00    +0.000 C 
ATOM     12  C   UNL     1       2.960   4.014  19.110  0.00  0.00    +0.000 C 
ATOM     13  N   UNL     1       4.096   4.538  18.327  0.00  0.00    +0.000 NA
ATOM     14  C   UNL     1       3.690   5.756  17.587  0.00  0.00    +0.000 C 
ATOM     15  C   UNL     1       0.348  10.704  20.121  0.00  0.00    +0.000 C 
ATOM     16  C   UNL     1       0.655  11.682  21.280  0.00  0.00    +0.000 C 
ENDROOT
BRANCH   1  18
ATOM     17  C   UNL     1      -1.973  12.976  22.547  0.00  0.00    +0.000 C 
ATOM     18  C   UNL     1      -1.499  11.530  22.481  0.00  0.00    +0.000 C 
ENDBRANCH   1  18
BRANCH  13  19
ATOM     19  C   UNL     1       4.599   3.547  17.356  0.00  0.00    +0.000 C 
BRANCH  19  20
ATOM     20  C   UNL     1       5.696   4.072  16.472  0.00  0.00    +0.000 A 
ATOM     21  C   UNL     1       6.898   4.655  16.831  0.00  0.00    +0.000 A 
ATOM     22  C   UNL     1       7.659   5.074  15.696  0.00  0.00    +0.000 A 
ATOM     23  C   UNL     1       7.007   4.779  14.527  0.00  0.00    +0.000 A 
ATOM     24 BR   UNL     1       7.686   5.187  12.829  0.00  0.00    +0.000 Br
ATOM     25  S   UNL     1       5.516   4.016  14.763  0.00  0.00    +0.000 S 
ENDBRANCH  19  20
ENDBRANCH  13  19
TORSDOF 3
ENDMDL
MODEL 5
REMARK VINA RESULT:      -6.7      1.527      1.765
REMARK  Name = 
REMARK  4 active torsions:
REMARK  status: ('A' for Active; 'I' for Inactive)
REMARK    1  A    between atoms: C_1  and  C_2
REMARK    2  A    between atoms: C_2  and  N_3
REMARK    3  A    between atoms: N_15  and  C_16
REMARK    4  A    between atoms: C_16  and  C_17
REMARK                            x       y       z     vdW  Elec       q    Type
REMARK                         _______ _______ _______ _____ _____    ______ ____
ROOT
ATOM      1  N   UNL     1       3.150   3.533  18.558  0.00  0.00    +0.000 NA
ATOM      2  C   UNL     1       2.282   4.100  19.623  0.00  0.00    +0.000 C 
ATOM      3  C   UNL     1       2.694   5.506  20.123  0.00  0.00    +0.000 C 
ATOM      4  N   UNL     1       2.885   6.415  18.995  0.00  0.00    +0.000 N 
ATOM      5  C   UNL     1       2.305   7.656  18.993  0.00  0.00    +0.000 A 
ATOM      6  N   UNL     1       2.492   8.470  17.943  0.00  0.00    +0.000 NA
ATOM      7  C   UNL     1       1.865   9.661  17.955  0.00  0.00    +0.000 A 
ATOM      8  C   UNL     1       1.049  10.087  18.974  0.00  0.00    +0.000 A 
ATOM      9  C   UNL     1       0.944   9.210  20.026  0.00  0.00    +0.000 A 
ATOM     10  N   UNL     1       1.553   8.009  20.046  0.00  0.00    +0.000 NA
ATOM     11  C   UNL     1       0.083   9.555  21.207  0.00  0.00    +0.000 C 
ATOM     12  C   UNL     1      -0.121  11.068  21.323  0.00  0.00    +0.000 C 
ATOM     13  N   UNL     1      -0.610  11.622  20.045  0.00  0.00    +0.000 NA
ATOM     14  C   UNL     1       0.408  11.440  18.985  0.00  0.00    +0.000 C 
ATOM     15  C   UNL     1       3.654   5.939  17.852  0.00  0.00    +0.000 C 
ATOM     16  C   UNL     1       3.188   4.520  17.450  0.00  0.00    +0.000 C 
ENDROOT
BRANCH   1  18
ATOM     17  C   UNL     1       4.466   2.132  20.174  0.00  0.00    +0.000 C 
ATOM     18  C   UNL     1       4.481   3.217  19.104  0.00  0.00    +0.000 C 
ENDBRANCH   1  18
BRANCH  13  19
ATOM     19  C   UNL     1      -0.922  13.060  20.152  0.00  0.00    +0.000 C 
BRANCH  19  20
ATOM     20  C   UNL     1      -2.229  13.345  20.840  0.00  0.00    +0.000 A 
ATOM     21  C   UNL     1      -3.485  12.833  20.567  0.00  0.00    +0.000 A 
ATOM     22  C   UNL     1      -4.493  13.386  21.414  0.00  0.00    +0.000 A 
ATOM     23  C   UNL     1      -3.956  14.283  22.301  0.00  0.00    +0.000 A 
ATOM     24 BR   UNL     1      -4.969  15.224  23.566  0.00  0.00    +0.000 Br
ATOM     25  S   UNL     1      -2.283  14.470  22.138  0.00  0.00    +0.000 S 
ENDBRANCH  19  20
ENDBRANCH  13  19
TORSDOF 3
ENDMDL
MODEL 6
REMARK VINA RESULT:      -6.7      5.037      9.830
REMARK  Name = 
REMARK  4 active torsions:
REMARK  status: ('A' for Active; 'I' for Inactive)
REMARK    1  A    between atoms: C_1  and  C_2
REMARK    2  A    between atoms: C_2  and  N_3
REMARK    3  A    between atoms: N_15  and  C_16
REMARK    4  A    between atoms: C_16  and  C_17
REMARK                            x       y       z     vdW  Elec       q    Type
REMARK                         _______ _______ _______ _____ _____    ______ ____
ROOT
ATOM      1  N   UNL     1      -0.459  13.940  20.815  0.00  0.00    +0.000 NA
ATOM      2  C   UNL     1      -0.250  12.744  21.672  0.00  0.00    +0.000 C 
ATOM      3  C   UNL     1      -0.595  11.391  21.002  0.00  0.00    +0.000 C 
ATOM      4  N   UNL     1       0.059  11.283  19.699  0.00  0.00    +0.000 N 
ATOM      5  C   UNL     1       0.763  10.158  19.362  0.00  0.00    +0.000 A 
ATOM      6  N   UNL     1       1.357  10.087  18.162  0.00  0.00    +0.000 NA
ATOM      7  C   UNL     1       2.082   8.986  17.887  0.00  0.00    +0.000 A 
ATOM      8  C   UNL     1       2.247   7.940  18.761  0.00  0.00    +0.000 A 
ATOM      9  C   UNL     1       1.573   8.077  19.950  0.00  0.00    +0.000 A 
ATOM     10  N   UNL     1       0.844   9.166  20.260  0.00  0.00    +0.000 NA
ATOM     11  C   UNL     1       1.669   7.002  20.994  0.00  0.00    +0.000 C 
ATOM     12  C   UNL     1       2.056   5.657  20.374  0.00  0.00    +0.000 C 
ATOM     13  N   UNL     1       3.273   5.800  19.551  0.00  0.00    +0.000 NA
ATOM     14  C   UNL     1       3.015   6.704  18.406  0.00  0.00    +0.000 C 
ATOM     15  C   UNL     1      -0.009  12.430  18.800  0.00  0.00    +0.000 C 
ATOM     16  C   UNL     1       0.322  13.730  19.570  0.00  0.00    +0.000 C 
ENDROOT
BRANCH   1  18
ATOM     17  C   UNL     1      -2.499  15.286  21.388  0.00  0.00    +0.000 C 
ATOM     18  C   UNL     1      -1.896  14.147  20.575  0.00  0.00    +0.000 C 
ENDBRANCH   1  18
BRANCH  13  19
ATOM     19  C   UNL     1       3.738   4.502  19.026  0.00  0.00    +0.000 C 
BRANCH  19  20
ATOM     20  C   UNL     1       4.914   4.613  18.096  0.00  0.00    +0.000 A 
ATOM     21  C   UNL     1       6.216   4.985  18.380  0.00  0.00    +0.000 A 
ATOM     22  C   UNL     1       7.039   5.020  17.213  0.00  0.00    +0.000 A 
ATOM     23  C   UNL     1       6.329   4.660  16.097  0.00  0.00    +0.000 A 
ATOM     24 BR   UNL     1       7.065   4.598  14.375  0.00  0.00    +0.000 Br
ATOM     25  S   UNL     1       4.712   4.285  16.420  0.00  0.00    +0.000 S 
ENDBRANCH  19  20
ENDBRANCH  13  19
TORSDOF 3
ENDMDL
MODEL 7
REMARK VINA RESULT:      -6.7      1.013      1.184
REMARK  Name = 
REMARK  4 active torsions:
REMARK  status: ('A' for Active; 'I' for Inactive)
REMARK    1  A    between atoms: C_1  and  C_2
REMARK    2  A    between atoms: C_2  and  N_3
REMARK    3  A    between atoms: N_15  and  C_16
REMARK    4  A    between atoms: C_16  and  C_17
REMARK                            x       y       z     vdW  Elec       q    Type
REMARK                         _______ _______ _______ _____ _____    ______ ____
ROOT
ATOM      1  N   UNL     1       2.582   4.342  18.972  0.00  0.00    +0.000 NA
ATOM      2  C   UNL     1       1.793   4.656  20.191  0.00  0.00    +0.000 C 
ATOM      3  C   UNL     1       2.138   6.008  20.863  0.00  0.00    +0.000 C 
ATOM      4  N   UNL     1       2.124   7.087  19.878  0.00  0.00    +0.000 N 
ATOM      5  C   UNL     1       1.445   8.251  20.126  0.00  0.00    +0.000 A 
ATOM      6  N   UNL     1       1.443   9.224  19.203  0.00  0.00    +0.000 NA
ATOM      7  C   UNL     1       0.723  10.331  19.463  0.00  0.00    +0.000 A 
ATOM      8  C   UNL     1      -0.007  10.519  20.611  0.00  0.00    +0.000 A 
ATOM      9  C   UNL     1       0.082   9.491  21.518  0.00  0.00    +0.000 A 
ATOM     10  N   UNL     1       0.788   8.367  21.290  0.00  0.00    +0.000 NA
ATOM     11  C   UNL     1      -0.668   9.571  22.817  0.00  0.00    +0.000 C 
ATOM     12  C   UNL     1      -0.985  11.022  23.187  0.00  0.00    +0.000 C 
ATOM     13  N   UNL     1      -1.659  11.705  22.066  0.00  0.00    +0.000 NA
ATOM     14  C   UNL     1      -0.754  11.784  20.896  0.00  0.00    +0.000 C 
ATOM     15  C   UNL     1       2.799   6.864  18.604  0.00  0.00    +0.000 C 
ATOM     16  C   UNL     1       2.412   5.479  18.033  0.00  0.00    +0.000 C 
ENDROOT
BRANCH   1  18
ATOM     17  C   UNL     1       4.326   2.606  19.470  0.00  0.00    +0.000 C 
ATOM     18  C   UNL     1       3.987   4.085  19.329  0.00  0.00    +0.000 C 
ENDBRANCH   1  18
BRANCH  13  19
ATOM     19  C   UNL     1      -2.078  13.073  22.427  0.00  0.00    +0.000 C 
BRANCH  19  20
ATOM     20  C   UNL     1      -3.569  13.263  22.444  0.00  0.00    +0.000 A 
ATOM     21  C   UNL     1      -4.401  13.709  21.433  0.00  0.00    +0.000 A 
ATOM     22  C   UNL     1      -5.764  13.803  21.851  0.00  0.00    +0.000 A 
ATOM     23  C   UNL     1      -5.908  13.412  23.158  0.00  0.00    +0.000 A 
ATOM     24 BR   UNL     1      -7.548  13.409  24.065  0.00  0.00    +0.000 Br
ATOM     25  S   UNL     1      -4.455  12.938  23.882  0.00  0.00    +0.000 S 
ENDBRANCH  19  20
ENDBRANCH  13  19
TORSDOF 3
ENDMDL
MODEL 8
REMARK VINA RESULT:      -6.6      2.624      3.681
REMARK  Name = 
REMARK  4 active torsions:
REMARK  status: ('A' for Active; 'I' for Inactive)
REMARK    1  A    between atoms: C_1  and  C_2
REMARK    2  A    between atoms: C_2  and  N_3
REMARK    3  A    between atoms: N_15  and  C_16
REMARK    4  A    between atoms: C_16  and  C_17
REMARK                            x       y       z     vdW  Elec       q    Type
REMARK                         _______ _______ _______ _____ _____    ______ ____
ROOT
ATOM      1  N   UNL     1       6.261   5.258  17.550  0.00  0.00    +0.000 NA
ATOM      2  C   UNL     1       5.781   6.586  17.087  0.00  0.00    +0.000 C 
ATOM      3  C   UNL     1       4.242   6.747  17.044  0.00  0.00    +0.000 C 
ATOM      4  N   UNL     1       3.648   6.334  18.314  0.00  0.00    +0.000 N 
ATOM      5  C   UNL     1       2.736   7.132  18.951  0.00  0.00    +0.000 A 
ATOM      6  N   UNL     1       2.210   6.732  20.119  0.00  0.00    +0.000 NA
ATOM      7  C   UNL     1       1.355   7.567  20.739  0.00  0.00    +0.000 A 
ATOM      8  C   UNL     1       0.995   8.798  20.248  0.00  0.00    +0.000 A 
ATOM      9  C   UNL     1       1.549   9.112  19.031  0.00  0.00    +0.000 A 
ATOM     10  N   UNL     1       2.411   8.303  18.385  0.00  0.00    +0.000 NA
ATOM     11  C   UNL     1       1.236  10.430  18.382  0.00  0.00    +0.000 C 
ATOM     12  C   UNL     1      -0.083  11.006  18.902  0.00  0.00    +0.000 C 
ATOM     13  N   UNL     1      -0.079  11.053  20.378  0.00  0.00    +0.000 NA
ATOM     14  C   UNL     1       0.000   9.682  20.934  0.00  0.00    +0.000 C 
ATOM     15  C   UNL     1       4.102   5.082  18.910  0.00  0.00    +0.000 C 
ATOM     16  C   UNL     1       5.647   5.007  18.877  0.00  0.00    +0.000 C 
ENDROOT
BRANCH   1  18
ATOM     17  C   UNL     1       6.611   4.440  15.202  0.00  0.00    +0.000 C 
ATOM     18  C   UNL     1       5.937   4.226  16.551  0.00  0.00    +0.000 C 
ENDBRANCH   1  18
BRANCH  13  19
ATOM     19  C   UNL     1      -1.292  11.704  20.911  0.00  0.00    +0.000 C 
BRANCH  19  20
ATOM     20  C   UNL     1      -1.004  12.903  21.772  0.00  0.00    +0.000 A 
ATOM     21  C   UNL     1      -0.003  13.849  21.638  0.00  0.00    +0.000 A 
ATOM     22  C   UNL     1      -0.026  14.815  22.690  0.00  0.00    +0.000 A 
ATOM     23  C   UNL     1      -1.050  14.568  23.568  0.00  0.00    +0.000 A 
ATOM     24 BR   UNL     1      -1.392  15.614  25.084  0.00  0.00    +0.000 Br
ATOM     25  S   UNL     1      -1.974  13.212  23.156  0.00  0.00    +0.000 S 
ENDBRANCH  19  20
ENDBRANCH  13  19
TORSDOF 3
ENDMDL
MODEL 9
REMARK VINA RESULT:      -6.6      3.243      4.519
REMARK  Name = 
REMARK  4 active torsions:
REMARK  status: ('A' for Active; 'I' for Inactive)
REMARK    1  A    between atoms: C_1  and  C_2
REMARK    2  A    between atoms: C_2  and  N_3
REMARK    3  A    between atoms: N_15  and  C_16
REMARK    4  A    between atoms: C_16  and  C_17
REMARK                            x       y       z     vdW  Elec       q    Type
REMARK                         _______ _______ _______ _____ _____    ______ ____
ROOT
ATOM      1  N   UNL     1       7.029   4.944  16.261  0.00  0.00    +0.000 NA
ATOM      2  C   UNL     1       6.416   6.269  15.985  0.00  0.00    +0.000 C 
ATOM      3  C   UNL     1       4.875   6.319  16.128  0.00  0.00    +0.000 C 
ATOM      4  N   UNL     1       4.461   5.752  17.409  0.00  0.00    +0.000 N 
ATOM      5  C   UNL     1       3.581   6.421  18.217  0.00  0.00    +0.000 A 
ATOM      6  N   UNL     1       3.221   5.881  19.391  0.00  0.00    +0.000 NA
ATOM      7  C   UNL     1       2.393   6.592  20.180  0.00  0.00    +0.000 A 
ATOM      8  C   UNL     1       1.901   7.832  19.853  0.00  0.00    +0.000 A 
ATOM      9  C   UNL     1       2.289   8.293  18.618  0.00  0.00    +0.000 A 
ATOM     10  N   UNL     1       3.119   7.611  17.806  0.00  0.00    +0.000 NA
ATOM     11  C   UNL     1       1.819   9.636  18.139  0.00  0.00    +0.000 C 
ATOM     12  C   UNL     1       0.536  10.065  18.854  0.00  0.00    +0.000 C 
ATOM     13  N   UNL     1       0.709   9.981  20.318  0.00  0.00    +0.000 NA
ATOM     14  C   UNL     1       0.939   8.575  20.727  0.00  0.00    +0.000 C 
ATOM     15  C   UNL     1       5.060   4.489  17.827  0.00  0.00    +0.000 C 
ATOM     16  C   UNL     1       6.591   4.531  17.618  0.00  0.00    +0.000 C 
ENDROOT
BRANCH   1  18
ATOM     17  C   UNL     1       6.823   4.525  13.794  0.00  0.00    +0.000 C 
ATOM     18  C   UNL     1       6.657   3.984  15.209  0.00  0.00    +0.000 C 
ENDBRANCH   1  18
BRANCH  13  19
ATOM     19  C   UNL     1      -0.472  10.490  21.042  0.00  0.00    +0.000 C 
BRANCH  19  20
ATOM     20  C   UNL     1      -0.311  11.900  21.541  0.00  0.00    +0.000 A 
ATOM     21  C   UNL     1      -1.022  12.559  22.529  0.00  0.00    +0.000 A 
ATOM     22  C   UNL     1      -0.605  13.916  22.683  0.00  0.00    +0.000 A 
ATOM     23  C   UNL     1       0.411  14.224  21.816  0.00  0.00    +0.000 A 
ATOM     24 BR   UNL     1       1.212  15.915  21.714  0.00  0.00    +0.000 Br
ATOM     25  S   UNL     1       0.870  12.928  20.831  0.00  0.00    +0.000 S 
ENDBRANCH  19  20
ENDBRANCH  13  19
TORSDOF 3
ENDMDL
