MODEL 1
REMARK VINA RESULT:      -7.8      0.000      0.000
REMARK  Name = 
REMARK  11 active torsions:
REMARK  status: ('A' for Active; 'I' for Inactive)
REMARK    1  A    between atoms: C_1  and  O_2
REMARK    2  A    between atoms: O_2  and  C_3
REMARK    3  A    between atoms: C_7  and  N_8
REMARK    4  A    between atoms: C_9  and  C_11
REMARK    5  A    between atoms: C_11  and  O_12
REMARK    6  A    between atoms: O_12  and  C_13
REMARK    7  A    between atoms: C_13  and  C_15
REMARK    8  A    between atoms: C_15  and  O_16
REMARK    9  A    between atoms: O_16  and  C_17
REMARK   10  A    between atoms: C_24  and  C_25
REMARK   11  A    between atoms: C_24  and  C_26
REMARK                            x       y       z     vdW  Elec       q    Type
REMARK                         _______ _______ _______ _____ _____    ______ ____
ROOT
ATOM      1  C   UNL     1       2.248   3.190  21.056  0.00  0.00    +0.000 C 
ATOM      2  O   UNL     1       3.178   2.637  21.635  0.00  0.00    +0.000 OA
ENDROOT
BRANCH   1   3
ATOM      3  O   UNL     1       1.374   2.553  20.213  0.00  0.00    +0.000 OA
BRANCH   3   4
ATOM      4  C   UNL     1       1.994   2.015  19.052  0.00  0.00    +0.000 C 
BRANCH   4   6
ATOM      5  N   UNL     1       4.005   3.131  18.227  0.00  0.00    +0.000 N 
ATOM      6  C   UNL     1       2.638   2.990  18.070  0.00  0.00    +0.000 C 
ATOM      7  O   UNL     1       1.951   3.515  17.188  0.00  0.00    +0.000 OA
ATOM      8  H   UNL     1       4.406   2.746  19.077  0.00  0.00    +0.000 HD
BRANCH   5  13
ATOM      9  C   UNL     1       6.776   5.399  17.248  0.00  0.00    +0.000 A 
ATOM     10  C   UNL     1       6.548   5.540  15.881  0.00  0.00    +0.000 A 
ATOM     11  C   UNL     1       5.512   4.852  15.264  0.00  0.00    +0.000 A 
ATOM     12  C   UNL     1       4.673   4.034  16.024  0.00  0.00    +0.000 A 
ATOM     13  C   UNL     1       4.864   3.899  17.402  0.00  0.00    +0.000 A 
ATOM     14  C   UNL     1       5.947   4.560  18.005  0.00  0.00    +0.000 A 
BRANCH   9  16
ATOM     15  C   UNL     1       7.703   7.559  17.639  0.00  0.00    +0.000 C 
ATOM     16  O   UNL     1       7.822   6.145  17.718  0.00  0.00    +0.000 OA
ENDBRANCH   9  16
ENDBRANCH   5  13
ENDBRANCH   4   6
ENDBRANCH   3   4
ENDBRANCH   1   3
BRANCH   1  17
ATOM     17  C   UNL     1       1.979   4.686  21.067  0.00  0.00    +0.000 C 
BRANCH  17  18
ATOM     18  O   UNL     1       2.864   5.342  20.187  0.00  0.00    +0.000 OA
BRANCH  18  19
ATOM     19  C   UNL     1       2.466   6.517  19.622  0.00  0.00    +0.000 A 
ATOM     20  C   UNL     1       3.081   6.752  18.385  0.00  0.00    +0.000 A 
ATOM     21  C   UNL     1       2.872   7.937  17.663  0.00  0.00    +0.000 A 
ATOM     22  C   UNL     1       2.072   8.941  18.192  0.00  0.00    +0.000 A 
ATOM     23  C   UNL     1       1.496   8.721  19.430  0.00  0.00    +0.000 A 
ATOM     24  C   UNL     1       1.626   7.509  20.112  0.00  0.00    +0.000 A 
ATOM     25  O   UNL     1       0.885   7.513  21.284  0.00  0.00    +0.000 OA
ATOM     26  C   UNL     1       0.730   8.936  21.582  0.00  0.00    +0.000 C 
ATOM     27  C   UNL     1       1.920   9.295  22.490  0.00  0.00    +0.000 C 
ATOM     28  C   UNL     1      -0.569   9.257  22.330  0.00  0.00    +0.000 C 
ATOM     29  C   UNL     1       0.711   9.680  20.234  0.00  0.00    +0.000 C 
ENDBRANCH  18  19
ENDBRANCH  17  18
ENDBRANCH   1  17
TORSDOF 8
ENDMDL
MODEL 2
REMARK VINA RESULT:      -7.7      2.305      3.661
REMARK  Name = 
REMARK  11 active torsions:
REMARK  status: ('A' for Active; 'I' for Inactive)
REMARK    1  A    between atoms: C_1  and  O_2
REMARK    2  A    between atoms: O_2  and  C_3
REMARK    3  A    between atoms: C_7  and  N_8
REMARK    4  A    between atoms: C_9  and  C_11
REMARK    5  A    between atoms: C_11  and  O_12
REMARK    6  A    between atoms: O_12  and  C_13
REMARK    7  A    between atoms: C_13  and  C_15
REMARK    8  A    between atoms: C_15  and  O_16
REMARK    9  A    between atoms: O_16  and  C_17
REMARK   10  A    between atoms: C_24  and  C_25
REMARK   11  A    between atoms: C_24  and  C_26
REMARK                            x       y       z     vdW  Elec       q    Type
REMARK                         _______ _______ _______ _____ _____    ______ ____
ROOT
ATOM      1  C   UNL     1       4.216   4.140  19.135  0.00  0.00    +0.000 C 
ATOM      2  O   UNL     1       3.404   3.278  19.461  0.00  0.00    +0.000 OA
ENDROOT
BRANCH   1   3
ATOM      3  O   UNL     1       5.577   3.985  19.203  0.00  0.00    +0.000 OA
BRANCH   3   4
ATOM      4  C   UNL     1       6.298   4.984  18.492  0.00  0.00    +0.000 C 
BRANCH   4   6
ATOM      5  N   UNL     1       6.052   4.826  16.066  0.00  0.00    +0.000 N 
ATOM      6  C   UNL     1       6.896   4.606  17.139  0.00  0.00    +0.000 C 
ATOM      7  O   UNL     1       8.066   4.214  17.075  0.00  0.00    +0.000 OA
ATOM      8  H   UNL     1       5.079   5.018  16.286  0.00  0.00    +0.000 HD
BRANCH   5  13
ATOM      9  C   UNL     1       5.922   3.490  12.605  0.00  0.00    +0.000 A 
ATOM     10  C   UNL     1       7.013   4.130  12.021  0.00  0.00    +0.000 A 
ATOM     11  C   UNL     1       7.769   5.041  12.747  0.00  0.00    +0.000 A 
ATOM     12  C   UNL     1       7.451   5.298  14.082  0.00  0.00    +0.000 A 
ATOM     13  C   UNL     1       6.378   4.647  14.698  0.00  0.00    +0.000 A 
ATOM     14  C   UNL     1       5.591   3.766  13.939  0.00  0.00    +0.000 A 
BRANCH   9  16
ATOM     15  C   UNL     1       4.097   3.068  11.133  0.00  0.00    +0.000 C 
ATOM     16  O   UNL     1       5.281   2.613  11.774  0.00  0.00    +0.000 OA
ENDBRANCH   9  16
ENDBRANCH   5  13
ENDBRANCH   4   6
ENDBRANCH   3   4
ENDBRANCH   1   3
BRANCH   1  17
ATOM     17  C   UNL     1       3.863   5.560  18.727  0.00  0.00    +0.000 C 
BRANCH  17  18
ATOM     18  O   UNL     1       2.945   6.113  19.642  0.00  0.00    +0.000 OA
BRANCH  18  19
ATOM     19  C   UNL     1       2.329   7.285  19.317  0.00  0.00    +0.000 A 
ATOM     20  C   UNL     1       2.732   7.772  18.066  0.00  0.00    +0.000 A 
ATOM     21  C   UNL     1       2.280   9.003  17.567  0.00  0.00    +0.000 A 
ATOM     22  C   UNL     1       1.443   9.800  18.335  0.00  0.00    +0.000 A 
ATOM     23  C   UNL     1       1.076   9.333  19.584  0.00  0.00    +0.000 A 
ATOM     24  C   UNL     1       1.449   8.070  20.051  0.00  0.00    +0.000 A 
ATOM     25  O   UNL     1       0.882   7.806  21.289  0.00  0.00    +0.000 OA
ATOM     26  C   UNL     1       0.595   9.138  21.819  0.00  0.00    +0.000 C 
ATOM     27  C   UNL     1       1.846   9.536  22.624  0.00  0.00    +0.000 C 
ATOM     28  C   UNL     1      -0.617   9.165  22.757  0.00  0.00    +0.000 C 
ATOM     29  C   UNL     1       0.297  10.050  20.615  0.00  0.00    +0.000 C 
ENDBRANCH  18  19
ENDBRANCH  17  18
ENDBRANCH   1  17
TORSDOF 8
ENDMDL
MODEL 3
REMARK VINA RESULT:      -7.6      1.170      1.796
REMARK  Name = 
REMARK  11 active torsions:
REMARK  status: ('A' for Active; 'I' for Inactive)
REMARK    1  A    between atoms: C_1  and  O_2
REMARK    2  A    between atoms: O_2  and  C_3
REMARK    3  A    between atoms: C_7  and  N_8
REMARK    4  A    between atoms: C_9  and  C_11
REMARK    5  A    between atoms: C_11  and  O_12
REMARK    6  A    between atoms: O_12  and  C_13
REMARK    7  A    between atoms: C_13  and  C_15
REMARK    8  A    between atoms: C_15  and  O_16
REMARK    9  A    between atoms: O_16  and  C_17
REMARK   10  A    between atoms: C_24  and  C_25
REMARK   11  A    between atoms: C_24  and  C_26
REMARK                            x       y       z     vdW  Elec       q    Type
REMARK                         _______ _______ _______ _____ _____    ______ ____
ROOT
ATOM      1  C   UNL     1       1.742   3.576  20.939  0.00  0.00    +0.000 C 
ATOM      2  O   UNL     1       2.075   2.785  21.816  0.00  0.00    +0.000 OA
ENDROOT
BRANCH   1   3
ATOM      3  O   UNL     1       1.367   3.211  19.670  0.00  0.00    +0.000 OA
BRANCH   3   4
ATOM      4  C   UNL     1       2.069   2.078  19.174  0.00  0.00    +0.000 C 
BRANCH   4   6
ATOM      5  N   UNL     1       3.773   3.639  18.380  0.00  0.00    +0.000 N 
ATOM      6  C   UNL     1       3.346   2.323  18.375  0.00  0.00    +0.000 C 
ATOM      7  O   UNL     1       3.937   1.370  17.857  0.00  0.00    +0.000 OA
ATOM      8  H   UNL     1       3.113   4.328  18.728  0.00  0.00    +0.000 HD
BRANCH   5  13
ATOM      9  C   UNL     1       6.182   4.709  15.766  0.00  0.00    +0.000 A 
ATOM     10  C   UNL     1       7.316   4.979  16.530  0.00  0.00    +0.000 A 
ATOM     11  C   UNL     1       7.281   4.857  17.913  0.00  0.00    +0.000 A 
ATOM     12  C   UNL     1       6.109   4.433  18.542  0.00  0.00    +0.000 A 
ATOM     13  C   UNL     1       4.967   4.130  17.795  0.00  0.00    +0.000 A 
ATOM     14  C   UNL     1       5.000   4.306  16.402  0.00  0.00    +0.000 A 
BRANCH   9  16
ATOM     15  C   UNL     1       5.951   3.794  13.579  0.00  0.00    +0.000 C 
ATOM     16  O   UNL     1       6.368   4.861  14.420  0.00  0.00    +0.000 OA
ENDBRANCH   9  16
ENDBRANCH   5  13
ENDBRANCH   4   6
ENDBRANCH   3   4
ENDBRANCH   1   3
BRANCH   1  17
ATOM     17  C   UNL     1       1.808   5.089  21.057  0.00  0.00    +0.000 C 
BRANCH  17  18
ATOM     18  O   UNL     1       2.542   5.627  19.979  0.00  0.00    +0.000 OA
BRANCH  18  19
ATOM     19  C   UNL     1       2.198   6.860  19.511  0.00  0.00    +0.000 A 
ATOM     20  C   UNL     1       2.791   7.146  18.273  0.00  0.00    +0.000 A 
ATOM     21  C   UNL     1       2.633   8.390  17.643  0.00  0.00    +0.000 A 
ATOM     22  C   UNL     1       1.909   9.398  18.266  0.00  0.00    +0.000 A 
ATOM     23  C   UNL     1       1.356   9.124  19.503  0.00  0.00    +0.000 A 
ATOM     24  C   UNL     1       1.432   7.860  20.095  0.00  0.00    +0.000 A 
ATOM     25  O   UNL     1       0.725   7.823  21.287  0.00  0.00    +0.000 OA
ATOM     26  C   UNL     1       0.663   9.227  21.688  0.00  0.00    +0.000 C 
ATOM     27  C   UNL     1       1.898   9.452  22.581  0.00  0.00    +0.000 C 
ATOM     28  C   UNL     1      -0.593   9.567  22.498  0.00  0.00    +0.000 C 
ATOM     29  C   UNL     1       0.651  10.066  20.397  0.00  0.00    +0.000 C 
ENDBRANCH  18  19
ENDBRANCH  17  18
ENDBRANCH   1  17
TORSDOF 8
ENDMDL
MODEL 4
REMARK VINA RESULT:      -7.5      3.844      6.914
REMARK  Name = 
REMARK  11 active torsions:
REMARK  status: ('A' for Active; 'I' for Inactive)
REMARK    1  A    between atoms: C_1  and  O_2
REMARK    2  A    between atoms: O_2  and  C_3
REMARK    3  A    between atoms: C_7  and  N_8
REMARK    4  A    between atoms: C_9  and  C_11
REMARK    5  A    between atoms: C_11  and  O_12
REMARK    6  A    between atoms: O_12  and  C_13
REMARK    7  A    between atoms: C_13  and  C_15
REMARK    8  A    between atoms: C_15  and  O_16
REMARK    9  A    between atoms: O_16  and  C_17
REMARK   10  A    between atoms: C_24  and  C_25
REMARK   11  A    between atoms: C_24  and  C_26
REMARK                            x       y       z     vdW  Elec       q    Type
REMARK                         _______ _______ _______ _____ _____    ______ ____
ROOT
ATOM      1  C   UNL     1       7.455   5.058  17.112  0.00  0.00    +0.000 C 
ATOM      2  O   UNL     1       7.721   4.361  18.086  0.00  0.00    +0.000 OA
ENDROOT
BRANCH   1   3
ATOM      3  O   UNL     1       7.824   6.372  16.976  0.00  0.00    +0.000 OA
BRANCH   3   4
ATOM      4  C   UNL     1       7.927   7.064  18.215  0.00  0.00    +0.000 C 
BRANCH   4   6
ATOM      5  N   UNL     1       9.027   9.053  19.114  0.00  0.00    +0.000 N 
ATOM      6  C   UNL     1       8.133   8.576  18.172  0.00  0.00    +0.000 C 
ATOM      7  O   UNL     1       7.576   9.245  17.295  0.00  0.00    +0.000 OA
ATOM      8  H   UNL     1       9.296   8.407  19.851  0.00  0.00    +0.000 HD
BRANCH   5  13
ATOM      9  C   UNL     1       9.713  12.357  20.659  0.00  0.00    +0.000 A 
ATOM     10  C   UNL     1      10.199  13.076  19.570  0.00  0.00    +0.000 A 
ATOM     11  C   UNL     1      10.349  12.466  18.331  0.00  0.00    +0.000 A 
ATOM     12  C   UNL     1       9.984  11.128  18.169  0.00  0.00    +0.000 A 
ATOM     13  C   UNL     1       9.468  10.393  19.241  0.00  0.00    +0.000 A 
ATOM     14  C   UNL     1       9.369  11.008  20.500  0.00  0.00    +0.000 A 
BRANCH   9  16
ATOM     15  C   UNL     1       9.981  14.461  21.745  0.00  0.00    +0.000 C 
ATOM     16  O   UNL     1       9.608  13.091  21.809  0.00  0.00    +0.000 OA
ENDBRANCH   9  16
ENDBRANCH   5  13
ENDBRANCH   4   6
ENDBRANCH   3   4
ENDBRANCH   1   3
BRANCH   1  17
ATOM     17  C   UNL     1       6.567   4.636  15.953  0.00  0.00    +0.000 C 
BRANCH  17  18
ATOM     18  O   UNL     1       5.434   3.951  16.436  0.00  0.00    +0.000 OA
BRANCH  18  19
ATOM     19  C   UNL     1       4.415   4.681  16.975  0.00  0.00    +0.000 A 
ATOM     20  C   UNL     1       4.644   6.061  16.892  0.00  0.00    +0.000 A 
ATOM     21  C   UNL     1       3.759   6.996  17.452  0.00  0.00    +0.000 A 
ATOM     22  C   UNL     1       2.642   6.563  18.153  0.00  0.00    +0.000 A 
ATOM     23  C   UNL     1       2.440   5.199  18.264  0.00  0.00    +0.000 A 
ATOM     24  C   UNL     1       3.265   4.265  17.633  0.00  0.00    +0.000 A 
ATOM     25  O   UNL     1       2.799   2.974  17.827  0.00  0.00    +0.000 OA
ATOM     26  C   UNL     1       1.982   3.087  19.035  0.00  0.00    +0.000 C 
ATOM     27  C   UNL     1       2.935   2.778  20.204  0.00  0.00    +0.000 C 
ATOM     28  C   UNL     1       0.822   2.086  19.073  0.00  0.00    +0.000 C 
ATOM     29  C   UNL     1       1.396   4.511  19.052  0.00  0.00    +0.000 C 
ENDBRANCH  18  19
ENDBRANCH  17  18
ENDBRANCH   1  17
TORSDOF 8
ENDMDL
MODEL 5
REMARK VINA RESULT:      -7.3      4.044      7.238
REMARK  Name = 
REMARK  11 active torsions:
REMARK  status: ('A' for Active; 'I' for Inactive)
REMARK    1  A    between atoms: C_1  and  O_2
REMARK    2  A    between atoms: O_2  and  C_3
REMARK    3  A    between atoms: C_7  and  N_8
REMARK    4  A    between atoms: C_9  and  C_11
REMARK    5  A    between atoms: C_11  and  O_12
REMARK    6  A    between atoms: O_12  and  C_13
REMARK    7  A    between atoms: C_13  and  C_15
REMARK    8  A    between atoms: C_15  and  O_16
REMARK    9  A    between atoms: O_16  and  C_17
REMARK   10  A    between atoms: C_24  and  C_25
REMARK   11  A    between atoms: C_24  and  C_26
REMARK                            x       y       z     vdW  Elec       q    Type
REMARK                         _______ _______ _______ _____ _____    ______ ____
ROOT
ATOM      1  C   UNL     1       7.336   5.600  17.735  0.00  0.00    +0.000 C 
ATOM      2  O   UNL     1       7.844   4.708  17.063  0.00  0.00    +0.000 OA
ENDROOT
BRANCH   1   3
ATOM      3  O   UNL     1       7.539   6.940  17.524  0.00  0.00    +0.000 OA
BRANCH   3   4
ATOM      4  C   UNL     1       8.284   7.571  18.558  0.00  0.00    +0.000 C 
BRANCH   4   6
ATOM      5  N   UNL     1       9.387   9.592  19.376  0.00  0.00    +0.000 N 
ATOM      6  C   UNL     1       8.450   9.087  18.493  0.00  0.00    +0.000 C 
ATOM      7  O   UNL     1       7.826   9.736  17.647  0.00  0.00    +0.000 OA
ATOM      8  H   UNL     1       9.715   8.960  20.100  0.00  0.00    +0.000 HD
BRANCH   5  13
ATOM      9  C   UNL     1      11.082  12.778  18.503  0.00  0.00    +0.000 A 
ATOM     10  C   UNL     1      10.774  13.566  19.610  0.00  0.00    +0.000 A 
ATOM     11  C   UNL     1       9.969  13.072  20.627  0.00  0.00    +0.000 A 
ATOM     12  C   UNL     1       9.485  11.764  20.554  0.00  0.00    +0.000 A 
ATOM     13  C   UNL     1       9.803  10.944  19.468  0.00  0.00    +0.000 A 
ATOM     14  C   UNL     1      10.576  11.473  18.422  0.00  0.00    +0.000 A 
BRANCH   9  16
ATOM     15  C   UNL     1      11.549  14.714  17.196  0.00  0.00    +0.000 C 
ATOM     16  O   UNL     1      11.893  13.392  17.589  0.00  0.00    +0.000 OA
ENDBRANCH   9  16
ENDBRANCH   5  13
ENDBRANCH   4   6
ENDBRANCH   3   4
ENDBRANCH   1   3
BRANCH   1  17
ATOM     17  C   UNL     1       6.503   5.382  18.987  0.00  0.00    +0.000 C 
BRANCH  17  18
ATOM     18  O   UNL     1       5.146   5.650  18.718  0.00  0.00    +0.000 OA
BRANCH  18  19
ATOM     19  C   UNL     1       4.340   4.615  18.345  0.00  0.00    +0.000 A 
ATOM     20  C   UNL     1       4.374   4.383  16.963  0.00  0.00    +0.000 A 
ATOM     21  C   UNL     1       3.565   3.413  16.352  0.00  0.00    +0.000 A 
ATOM     22  C   UNL     1       2.663   2.681  17.112  0.00  0.00    +0.000 A 
ATOM     23  C   UNL     1       2.606   2.938  18.470  0.00  0.00    +0.000 A 
ATOM     24  C   UNL     1       3.472   3.837  19.099  0.00  0.00    +0.000 A 
ATOM     25  O   UNL     1       3.271   3.848  20.470  0.00  0.00    +0.000 OA
ATOM     26  C   UNL     1       1.905   3.345  20.616  0.00  0.00    +0.000 C 
ATOM     27  C   UNL     1       1.006   4.595  20.606  0.00  0.00    +0.000 C 
ATOM     28  C   UNL     1       1.679   2.591  21.931  0.00  0.00    +0.000 C 
ATOM     29  C   UNL     1       1.656   2.373  19.449  0.00  0.00    +0.000 C 
ENDBRANCH  18  19
ENDBRANCH  17  18
ENDBRANCH   1  17
TORSDOF 8
ENDMDL
MODEL 6
REMARK VINA RESULT:      -7.2      1.068      1.215
REMARK  Name = 
REMARK  11 active torsions:
REMARK  status: ('A' for Active; 'I' for Inactive)
REMARK    1  A    between atoms: C_1  and  O_2
REMARK    2  A    between atoms: O_2  and  C_3
REMARK    3  A    between atoms: C_7  and  N_8
REMARK    4  A    between atoms: C_9  and  C_11
REMARK    5  A    between atoms: C_11  and  O_12
REMARK    6  A    between atoms: O_12  and  C_13
REMARK    7  A    between atoms: C_13  and  C_15
REMARK    8  A    between atoms: C_15  and  O_16
REMARK    9  A    between atoms: O_16  and  C_17
REMARK   10  A    between atoms: C_24  and  C_25
REMARK   11  A    between atoms: C_24  and  C_26
REMARK                            x       y       z     vdW  Elec       q    Type
REMARK                         _______ _______ _______ _____ _____    ______ ____
ROOT
ATOM      1  C   UNL     1       1.810   3.991  21.231  0.00  0.00    +0.000 C 
ATOM      2  O   UNL     1       2.012   3.235  22.176  0.00  0.00    +0.000 OA
ENDROOT
BRANCH   1   3
ATOM      3  O   UNL     1       0.977   3.708  20.178  0.00  0.00    +0.000 OA
BRANCH   3   4
ATOM      4  C   UNL     1       1.565   2.858  19.201  0.00  0.00    +0.000 C 
BRANCH   4   6
ATOM      5  N   UNL     1       3.764   3.493  18.345  0.00  0.00    +0.000 N 
ATOM      6  C   UNL     1       2.403   3.507  18.103  0.00  0.00    +0.000 C 
ATOM      7  O   UNL     1       1.852   3.920  17.076  0.00  0.00    +0.000 OA
ATOM      8  H   UNL     1       4.054   3.247  19.287  0.00  0.00    +0.000 HD
BRANCH   5  13
ATOM      9  C   UNL     1       6.774   5.296  17.131  0.00  0.00    +0.000 A 
ATOM     10  C   UNL     1       6.747   4.993  15.772  0.00  0.00    +0.000 A 
ATOM     11  C   UNL     1       5.768   4.156  15.254  0.00  0.00    +0.000 A 
ATOM     12  C   UNL     1       4.785   3.634  16.097  0.00  0.00    +0.000 A 
ATOM     13  C   UNL     1       4.774   3.946  17.460  0.00  0.00    +0.000 A 
ATOM     14  C   UNL     1       5.799   4.753  17.980  0.00  0.00    +0.000 A 
BRANCH   9  16
ATOM     15  C   UNL     1       7.511   7.534  17.479  0.00  0.00    +0.000 C 
ATOM     16  O   UNL     1       7.787   6.140  17.494  0.00  0.00    +0.000 OA
ENDBRANCH   9  16
ENDBRANCH   5  13
ENDBRANCH   4   6
ENDBRANCH   3   4
ENDBRANCH   1   3
BRANCH   1  17
ATOM     17  C   UNL     1       2.535   5.305  20.993  0.00  0.00    +0.000 C 
BRANCH  17  18
ATOM     18  O   UNL     1       1.606   6.362  20.907  0.00  0.00    +0.000 OA
BRANCH  18  19
ATOM     19  C   UNL     1       1.725   7.249  19.879  0.00  0.00    +0.000 A 
ATOM     20  C   UNL     1       2.712   6.871  18.958  0.00  0.00    +0.000 A 
ATOM     21  C   UNL     1       3.053   7.678  17.861  0.00  0.00    +0.000 A 
ATOM     22  C   UNL     1       2.440   8.910  17.687  0.00  0.00    +0.000 A 
ATOM     23  C   UNL     1       1.492   9.296  18.618  0.00  0.00    +0.000 A 
ATOM     24  C   UNL     1       1.082   8.461  19.661  0.00  0.00    +0.000 A 
ATOM     25  O   UNL     1       0.063   9.043  20.398  0.00  0.00    +0.000 OA
ATOM     26  C   UNL     1       0.223  10.471  20.125  0.00  0.00    +0.000 C 
ATOM     27  C   UNL     1       1.149  10.999  21.236  0.00  0.00    +0.000 C 
ATOM     28  C   UNL     1      -1.099  11.246  20.182  0.00  0.00    +0.000 C 
ATOM     29  C   UNL     1       0.799  10.598  18.703  0.00  0.00    +0.000 C 
ENDBRANCH  18  19
ENDBRANCH  17  18
ENDBRANCH   1  17
TORSDOF 8
ENDMDL
MODEL 7
REMARK VINA RESULT:      -7.2      4.033      8.300
REMARK  Name = 
REMARK  11 active torsions:
REMARK  status: ('A' for Active; 'I' for Inactive)
REMARK    1  A    between atoms: C_1  and  O_2
REMARK    2  A    between atoms: O_2  and  C_3
REMARK    3  A    between atoms: C_7  and  N_8
REMARK    4  A    between atoms: C_9  and  C_11
REMARK    5  A    between atoms: C_11  and  O_12
REMARK    6  A    between atoms: O_12  and  C_13
REMARK    7  A    between atoms: C_13  and  C_15
REMARK    8  A    between atoms: C_15  and  O_16
REMARK    9  A    between atoms: O_16  and  C_17
REMARK   10  A    between atoms: C_24  and  C_25
REMARK   11  A    between atoms: C_24  and  C_26
REMARK                            x       y       z     vdW  Elec       q    Type
REMARK                         _______ _______ _______ _____ _____    ______ ____
ROOT
ATOM      1  C   UNL     1       0.741   8.811  20.850  0.00  0.00    +0.000 C 
ATOM      2  O   UNL     1      -0.137   8.249  21.497  0.00  0.00    +0.000 OA
ENDROOT
BRANCH   1   3
ATOM      3  O   UNL     1       0.976  10.162  20.875  0.00  0.00    +0.000 OA
BRANCH   3   4
ATOM      4  C   UNL     1       1.192  10.726  19.587  0.00  0.00    +0.000 C 
BRANCH   4   6
ATOM      5  N   UNL     1      -0.950  10.448  18.443  0.00  0.00    +0.000 N 
ATOM      6  C   UNL     1      -0.002  11.358  18.876  0.00  0.00    +0.000 C 
ATOM      7  O   UNL     1      -0.088  12.588  18.797  0.00  0.00    +0.000 OA
ATOM      8  H   UNL     1      -0.677   9.469  18.455  0.00  0.00    +0.000 HD
BRANCH   5  13
ATOM      9  C   UNL     1      -3.507  10.903  15.792  0.00  0.00    +0.000 A 
ATOM     10  C   UNL     1      -4.559  11.461  16.515  0.00  0.00    +0.000 A 
ATOM     11  C   UNL     1      -4.452  11.647  17.887  0.00  0.00    +0.000 A 
ATOM     12  C   UNL     1      -3.270  11.298  18.544  0.00  0.00    +0.000 A 
ATOM     13  C   UNL     1      -2.191  10.762  17.835  0.00  0.00    +0.000 A 
ATOM     14  C   UNL     1      -2.331  10.532  16.457  0.00  0.00    +0.000 A 
BRANCH   9  16
ATOM     15  C   UNL     1      -3.013   9.813  13.732  0.00  0.00    +0.000 C 
ATOM     16  O   UNL     1      -3.751  10.791  14.450  0.00  0.00    +0.000 OA
ENDBRANCH   9  16
ENDBRANCH   5  13
ENDBRANCH   4   6
ENDBRANCH   3   4
ENDBRANCH   1   3
BRANCH   1  17
ATOM     17  C   UNL     1       1.631   8.139  19.818  0.00  0.00    +0.000 C 
BRANCH  17  18
ATOM     18  O   UNL     1       2.305   7.046  20.399  0.00  0.00    +0.000 OA
BRANCH  18  19
ATOM     19  C   UNL     1       2.179   5.820  19.814  0.00  0.00    +0.000 A 
ATOM     20  C   UNL     1       1.274   4.994  20.494  0.00  0.00    +0.000 A 
ATOM     21  C   UNL     1       1.048   3.664  20.108  0.00  0.00    +0.000 A 
ATOM     22  C   UNL     1       1.763   3.114  19.054  0.00  0.00    +0.000 A 
ATOM     23  C   UNL     1       2.682   3.921  18.409  0.00  0.00    +0.000 A 
ATOM     24  C   UNL     1       2.848   5.271  18.728  0.00  0.00    +0.000 A 
ATOM     25  O   UNL     1       3.762   5.877  17.880  0.00  0.00    +0.000 OA
ATOM     26  C   UNL     1       4.557   4.755  17.383  0.00  0.00    +0.000 C 
ATOM     27  C   UNL     1       5.743   4.631  18.358  0.00  0.00    +0.000 C 
ATOM     28  C   UNL     1       5.108   4.987  15.971  0.00  0.00    +0.000 C 
ATOM     29  C   UNL     1       3.631   3.526  17.347  0.00  0.00    +0.000 C 
ENDBRANCH  18  19
ENDBRANCH  17  18
ENDBRANCH   1  17
TORSDOF 8
ENDMDL
MODEL 8
REMARK VINA RESULT:      -7.1      4.053      9.500
REMARK  Name = 
REMARK  11 active torsions:
REMARK  status: ('A' for Active; 'I' for Inactive)
REMARK    1  A    between atoms: C_1  and  O_2
REMARK    2  A    between atoms: O_2  and  C_3
REMARK    3  A    between atoms: C_7  and  N_8
REMARK    4  A    between atoms: C_9  and  C_11
REMARK    5  A    between atoms: C_11  and  O_12
REMARK    6  A    between atoms: O_12  and  C_13
REMARK    7  A    between atoms: C_13  and  C_15
REMARK    8  A    between atoms: C_15  and  O_16
REMARK    9  A    between atoms: O_16  and  C_17
REMARK   10  A    between atoms: C_24  and  C_25
REMARK   11  A    between atoms: C_24  and  C_26
REMARK                            x       y       z     vdW  Elec       q    Type
REMARK                         _______ _______ _______ _____ _____    ______ ____
ROOT
ATOM      1  C   UNL     1       0.772   9.715  18.975  0.00  0.00    +0.000 C 
ATOM      2  O   UNL     1      -0.140  10.209  18.320  0.00  0.00    +0.000 OA
ENDROOT
BRANCH   1   3
ATOM      3  O   UNL     1       1.026  10.008  20.291  0.00  0.00    +0.000 OA
BRANCH   3   4
ATOM      4  C   UNL     1       0.018   9.546  21.181  0.00  0.00    +0.000 C 
BRANCH   4   6
ATOM      5  N   UNL     1      -1.231  11.516  21.910  0.00  0.00    +0.000 N 
ATOM      6  C   UNL     1      -0.415  10.474  22.313  0.00  0.00    +0.000 C 
ATOM      7  O   UNL     1      -0.090  10.214  23.476  0.00  0.00    +0.000 OA
ATOM      8  H   UNL     1      -1.296  11.680  20.910  0.00  0.00    +0.000 HD
BRANCH   5  13
ATOM      9  C   UNL     1      -3.879  13.270  23.831  0.00  0.00    +0.000 A 
ATOM     10  C   UNL     1      -3.179  14.367  24.328  0.00  0.00    +0.000 A 
ATOM     11  C   UNL     1      -1.821  14.512  24.074  0.00  0.00    +0.000 A 
ATOM     12  C   UNL     1      -1.157  13.565  23.292  0.00  0.00    +0.000 A 
ATOM     13  C   UNL     1      -1.844  12.471  22.759  0.00  0.00    +0.000 A 
ATOM     14  C   UNL     1      -3.205  12.309  23.065  0.00  0.00    +0.000 A 
BRANCH   9  16
ATOM     15  C   UNL     1      -5.992  14.362  23.697  0.00  0.00    +0.000 C 
ATOM     16  O   UNL     1      -5.209  13.266  24.151  0.00  0.00    +0.000 OA
ENDBRANCH   9  16
ENDBRANCH   5  13
ENDBRANCH   4   6
ENDBRANCH   3   4
ENDBRANCH   1   3
BRANCH   1  17
ATOM     17  C   UNL     1       1.850   8.800  18.419  0.00  0.00    +0.000 C 
BRANCH  17  18
ATOM     18  O   UNL     1       2.195   7.822  19.373  0.00  0.00    +0.000 OA
BRANCH  18  19
ATOM     19  C   UNL     1       2.899   6.730  18.959  0.00  0.00    +0.000 A 
ATOM     20  C   UNL     1       3.587   6.961  17.760  0.00  0.00    +0.000 A 
ATOM     21  C   UNL     1       4.316   5.950  17.115  0.00  0.00    +0.000 A 
ATOM     22  C   UNL     1       4.333   4.664  17.636  0.00  0.00    +0.000 A 
ATOM     23  C   UNL     1       3.623   4.431  18.800  0.00  0.00    +0.000 A 
ATOM     24  C   UNL     1       2.970   5.452  19.496  0.00  0.00    +0.000 A 
ATOM     25  O   UNL     1       2.410   4.976  20.672  0.00  0.00    +0.000 OA
ATOM     26  C   UNL     1       2.264   3.543  20.421  0.00  0.00    +0.000 C 
ATOM     27  C   UNL     1       0.851   3.372  19.833  0.00  0.00    +0.000 C 
ATOM     28  C   UNL     1       2.369   2.695  21.694  0.00  0.00    +0.000 C 
ATOM     29  C   UNL     1       3.402   3.133  19.470  0.00  0.00    +0.000 C 
ENDBRANCH  18  19
ENDBRANCH  17  18
ENDBRANCH   1  17
TORSDOF 8
ENDMDL
MODEL 9
REMARK VINA RESULT:      -7.1      5.314      8.724
REMARK  Name = 
REMARK  11 active torsions:
REMARK  status: ('A' for Active; 'I' for Inactive)
REMARK    1  A    between atoms: C_1  and  O_2
REMARK    2  A    between atoms: O_2  and  C_3
REMARK    3  A    between atoms: C_7  and  N_8
REMARK    4  A    between atoms: C_9  and  C_11
REMARK    5  A    between atoms: C_11  and  O_12
REMARK    6  A    between atoms: O_12  and  C_13
REMARK    7  A    between atoms: C_13  and  C_15
REMARK    8  A    between atoms: C_15  and  O_16
REMARK    9  A    between atoms: O_16  and  C_17
REMARK   10  A    between atoms: C_24  and  C_25
REMARK   11  A    between atoms: C_24  and  C_26
REMARK                            x       y       z     vdW  Elec       q    Type
REMARK                         _______ _______ _______ _____ _____    ______ ____
ROOT
ATOM      1  C   UNL     1       7.863   7.550  18.036  0.00  0.00    +0.000 C 
ATOM      2  O   UNL     1       7.420   7.738  16.907  0.00  0.00    +0.000 OA
ENDROOT
BRANCH   1   3
ATOM      3  O   UNL     1       8.601   8.468  18.739  0.00  0.00    +0.000 OA
BRANCH   3   4
ATOM      4  C   UNL     1       8.589   9.769  18.164  0.00  0.00    +0.000 C 
BRANCH   4   6
ATOM      5  N   UNL     1       9.666  11.962  18.115  0.00  0.00    +0.000 N 
ATOM      6  C   UNL     1       9.315  10.885  18.910  0.00  0.00    +0.000 C 
ATOM      7  O   UNL     1       9.473  10.803  20.132  0.00  0.00    +0.000 OA
ATOM      8  H   UNL     1       9.595  11.826  17.111  0.00  0.00    +0.000 HD
BRANCH   5  13
ATOM      9  C   UNL     1      10.483  15.578  18.311  0.00  0.00    +0.000 A 
ATOM     10  C   UNL     1      11.481  15.583  19.282  0.00  0.00    +0.000 A 
ATOM     11  C   UNL     1      11.859  14.405  19.913  0.00  0.00    +0.000 A 
ATOM     12  C   UNL     1      11.253  13.200  19.552  0.00  0.00    +0.000 A 
ATOM     13  C   UNL     1      10.268  13.165  18.560  0.00  0.00    +0.000 A 
ATOM     14  C   UNL     1       9.860  14.370  17.966  0.00  0.00    +0.000 A 
BRANCH   9  16
ATOM     15  C   UNL     1      11.341  17.588  17.363  0.00  0.00    +0.000 C 
ATOM     16  O   UNL     1      10.225  16.807  17.770  0.00  0.00    +0.000 OA
ENDBRANCH   9  16
ENDBRANCH   5  13
ENDBRANCH   4   6
ENDBRANCH   3   4
ENDBRANCH   1   3
BRANCH   1  17
ATOM     17  C   UNL     1       7.786   6.237  18.797  0.00  0.00    +0.000 C 
BRANCH  17  18
ATOM     18  O   UNL     1       7.967   5.155  17.913  0.00  0.00    +0.000 OA
BRANCH  18  19
ATOM     19  C   UNL     1       6.884   4.683  17.233  0.00  0.00    +0.000 A 
ATOM     20  C   UNL     1       7.087   4.669  15.846  0.00  0.00    +0.000 A 
ATOM     21  C   UNL     1       6.075   4.291  14.951  0.00  0.00    +0.000 A 
ATOM     22  C   UNL     1       4.813   3.960  15.426  0.00  0.00    +0.000 A 
ATOM     23  C   UNL     1       4.606   4.010  16.793  0.00  0.00    +0.000 A 
ATOM     24  C   UNL     1       5.632   4.298  17.696  0.00  0.00    +0.000 A 
ATOM     25  O   UNL     1       5.188   4.198  19.006  0.00  0.00    +0.000 OA
ATOM     26  C   UNL     1       3.742   4.375  18.887  0.00  0.00    +0.000 C 
ATOM     27  C   UNL     1       3.498   5.885  19.058  0.00  0.00    +0.000 C 
ATOM     28  C   UNL     1       2.953   3.627  19.968  0.00  0.00    +0.000 C 
ATOM     29  C   UNL     1       3.330   3.816  17.512  0.00  0.00    +0.000 C 
ENDBRANCH  18  19
ENDBRANCH  17  18
ENDBRANCH   1  17
TORSDOF 8
ENDMDL
