MODEL 1
REMARK VINA RESULT:      -6.0      0.000      0.000
REMARK  Name = 
REMARK  11 active torsions:
REMARK  status: ('A' for Active; 'I' for Inactive)
REMARK    1  A    between atoms: C_1  and  C_2
REMARK    2  A    between atoms: C_2  and  C_3
REMARK    3  A    between atoms: C_3  and  C_4
REMARK    4  A    between atoms: C_3  and  C_5
REMARK    5  A    between atoms: C_3  and  C_6
REMARK    6  A    between atoms: C_6  and  N_7
REMARK    7  A    between atoms: C_10  and  O_11
REMARK    8  A    between atoms: O_11  and  C_12
REMARK    9  A    between atoms: C_12  and  C_13
REMARK   10  A    between atoms: C_12  and  C_14
REMARK   11  A    between atoms: C_12  and  C_15
REMARK                            x       y       z     vdW  Elec       q    Type
REMARK                         _______ _______ _______ _____ _____    ______ ____
ROOT
ATOM      1  N   UNL     1       4.660   5.586  17.888  0.00  0.00    +0.000 NA
ATOM      2  C   UNL     1       4.331   4.170  17.689  0.00  0.00    +0.000 C 
ATOM      3  C   UNL     1       2.947   3.917  17.091  0.00  0.00    +0.000 C 
ATOM      4  C   UNL     1       1.867   4.536  17.966  0.00  0.00    +0.000 C 
ATOM      5  C   UNL     1       2.148   6.041  17.925  0.00  0.00    +0.000 C 
ATOM      6  C   UNL     1       3.537   6.344  18.504  0.00  0.00    +0.000 C 
ENDROOT
BRANCH   1   7
ATOM      7  C   UNL     1       5.840   5.763  18.780  0.00  0.00    +0.000 C 
BRANCH   7   8
ATOM      8  C   UNL     1       7.297   5.869  18.219  0.00  0.00    +0.000 C 
ATOM      9  C   UNL     1       7.667   4.589  17.452  0.00  0.00    +0.000 C 
ATOM     10  C   UNL     1       8.357   6.112  19.316  0.00  0.00    +0.000 C 
BRANCH   8  12
ATOM     11  C   UNL     1       8.048   8.366  17.843  0.00  0.00    +0.000 C 
ATOM     12  C   UNL     1       7.389   7.115  17.278  0.00  0.00    +0.000 C 
ENDBRANCH   8  12
ENDBRANCH   7   8
ENDBRANCH   1   7
BRANCH   4  13
ATOM     13  O   UNL     1       1.908   4.121  19.339  0.00  0.00    +0.000 OA
BRANCH  13  14
ATOM     14  C   UNL     1       1.626   2.773  19.733  0.00  0.00    +0.000 C 
ATOM     15  C   UNL     1       2.875   1.878  19.730  0.00  0.00    +0.000 C 
ATOM     16  C   UNL     1       1.173   2.871  21.202  0.00  0.00    +0.000 C 
ATOM     17  C   UNL     1       0.498   2.137  18.918  0.00  0.00    +0.000 C 
ENDBRANCH  13  14
ENDBRANCH   4  13
TORSDOF 5
ENDMDL
MODEL 2
REMARK VINA RESULT:      -6.0      3.856      5.403
REMARK  Name = 
REMARK  11 active torsions:
REMARK  status: ('A' for Active; 'I' for Inactive)
REMARK    1  A    between atoms: C_1  and  C_2
REMARK    2  A    between atoms: C_2  and  C_3
REMARK    3  A    between atoms: C_3  and  C_4
REMARK    4  A    between atoms: C_3  and  C_5
REMARK    5  A    between atoms: C_3  and  C_6
REMARK    6  A    between atoms: C_6  and  N_7
REMARK    7  A    between atoms: C_10  and  O_11
REMARK    8  A    between atoms: O_11  and  C_12
REMARK    9  A    between atoms: C_12  and  C_13
REMARK   10  A    between atoms: C_12  and  C_14
REMARK   11  A    between atoms: C_12  and  C_15
REMARK                            x       y       z     vdW  Elec       q    Type
REMARK                         _______ _______ _______ _____ _____    ______ ____
ROOT
ATOM      1  N   UNL     1       6.468   4.686  14.735  0.00  0.00    +0.000 NA
ATOM      2  C   UNL     1       5.155   5.287  14.995  0.00  0.00    +0.000 C 
ATOM      3  C   UNL     1       5.138   6.304  16.137  0.00  0.00    +0.000 C 
ATOM      4  C   UNL     1       5.631   5.667  17.427  0.00  0.00    +0.000 C 
ATOM      5  C   UNL     1       7.085   5.282  17.139  0.00  0.00    +0.000 C 
ATOM      6  C   UNL     1       7.155   4.270  15.988  0.00  0.00    +0.000 C 
ENDROOT
BRANCH   1   7
ATOM      7  C   UNL     1       6.363   3.472  13.878  0.00  0.00    +0.000 C 
BRANCH   7   8
ATOM      8  C   UNL     1       6.340   3.558  12.315  0.00  0.00    +0.000 C 
ATOM      9  C   UNL     1       7.138   4.781  11.837  0.00  0.00    +0.000 C 
ATOM     10  C   UNL     1       4.913   3.638  11.729  0.00  0.00    +0.000 C 
BRANCH   8  12
ATOM     11  C   UNL     1       5.977   1.210  11.176  0.00  0.00    +0.000 C 
ATOM     12  C   UNL     1       6.951   2.243  11.726  0.00  0.00    +0.000 C 
ENDBRANCH   8  12
ENDBRANCH   7   8
ENDBRANCH   1   7
BRANCH   4  13
ATOM     13  O   UNL     1       4.929   4.472  17.804  0.00  0.00    +0.000 OA
BRANCH  13  14
ATOM     14  C   UNL     1       3.722   4.514  18.574  0.00  0.00    +0.000 C 
ATOM     15  C   UNL     1       2.460   4.346  17.715  0.00  0.00    +0.000 C 
ATOM     16  C   UNL     1       3.787   3.274  19.486  0.00  0.00    +0.000 C 
ATOM     17  C   UNL     1       3.620   5.760  19.456  0.00  0.00    +0.000 C 
ENDBRANCH  13  14
ENDBRANCH   4  13
TORSDOF 5
ENDMDL
MODEL 3
REMARK VINA RESULT:      -5.9      3.707      5.221
REMARK  Name = 
REMARK  11 active torsions:
REMARK  status: ('A' for Active; 'I' for Inactive)
REMARK    1  A    between atoms: C_1  and  C_2
REMARK    2  A    between atoms: C_2  and  C_3
REMARK    3  A    between atoms: C_3  and  C_4
REMARK    4  A    between atoms: C_3  and  C_5
REMARK    5  A    between atoms: C_3  and  C_6
REMARK    6  A    between atoms: C_6  and  N_7
REMARK    7  A    between atoms: C_10  and  O_11
REMARK    8  A    between atoms: O_11  and  C_12
REMARK    9  A    between atoms: C_12  and  C_13
REMARK   10  A    between atoms: C_12  and  C_14
REMARK   11  A    between atoms: C_12  and  C_15
REMARK                            x       y       z     vdW  Elec       q    Type
REMARK                         _______ _______ _______ _____ _____    ______ ____
ROOT
ATOM      1  N   UNL     1       6.423   4.712  14.814  0.00  0.00    +0.000 NA
ATOM      2  C   UNL     1       5.119   5.318  15.106  0.00  0.00    +0.000 C 
ATOM      3  C   UNL     1       5.133   6.338  16.245  0.00  0.00    +0.000 C 
ATOM      4  C   UNL     1       5.658   5.703  17.524  0.00  0.00    +0.000 C 
ATOM      5  C   UNL     1       7.103   5.313  17.200  0.00  0.00    +0.000 C 
ATOM      6  C   UNL     1       7.141   4.298  16.050  0.00  0.00    +0.000 C 
ENDROOT
BRANCH   1   7
ATOM      7  C   UNL     1       6.293   3.496  13.964  0.00  0.00    +0.000 C 
BRANCH   7   8
ATOM      8  C   UNL     1       6.251   3.576  12.401  0.00  0.00    +0.000 C 
ATOM      9  C   UNL     1       6.604   2.211  11.789  0.00  0.00    +0.000 C 
ATOM     10  C   UNL     1       7.206   4.642  11.818  0.00  0.00    +0.000 C 
BRANCH   8  12
ATOM     11  C   UNL     1       4.027   3.046  11.093  0.00  0.00    +0.000 C 
ATOM     12  C   UNL     1       4.819   4.020  11.954  0.00  0.00    +0.000 C 
ENDBRANCH   8  12
ENDBRANCH   7   8
ENDBRANCH   1   7
BRANCH   4  13
ATOM     13  O   UNL     1       4.963   4.512  17.922  0.00  0.00    +0.000 OA
BRANCH  13  14
ATOM     14  C   UNL     1       3.724   4.561  18.640  0.00  0.00    +0.000 C 
ATOM     15  C   UNL     1       2.502   4.346  17.735  0.00  0.00    +0.000 C 
ATOM     16  C   UNL     1       3.766   3.352  19.595  0.00  0.00    +0.000 C 
ATOM     17  C   UNL     1       3.569   5.834  19.474  0.00  0.00    +0.000 C 
ENDBRANCH  13  14
ENDBRANCH   4  13
TORSDOF 5
ENDMDL
MODEL 4
REMARK VINA RESULT:      -5.9      0.552      1.283
REMARK  Name = 
REMARK  11 active torsions:
REMARK  status: ('A' for Active; 'I' for Inactive)
REMARK    1  A    between atoms: C_1  and  C_2
REMARK    2  A    between atoms: C_2  and  C_3
REMARK    3  A    between atoms: C_3  and  C_4
REMARK    4  A    between atoms: C_3  and  C_5
REMARK    5  A    between atoms: C_3  and  C_6
REMARK    6  A    between atoms: C_6  and  N_7
REMARK    7  A    between atoms: C_10  and  O_11
REMARK    8  A    between atoms: O_11  and  C_12
REMARK    9  A    between atoms: C_12  and  C_13
REMARK   10  A    between atoms: C_12  and  C_14
REMARK   11  A    between atoms: C_12  and  C_15
REMARK                            x       y       z     vdW  Elec       q    Type
REMARK                         _______ _______ _______ _____ _____    ______ ____
ROOT
ATOM      1  N   UNL     1       4.516   5.646  17.638  0.00  0.00    +0.000 NA
ATOM      2  C   UNL     1       4.265   4.204  17.521  0.00  0.00    +0.000 C 
ATOM      3  C   UNL     1       2.851   3.840  17.070  0.00  0.00    +0.000 C 
ATOM      4  C   UNL     1       1.819   4.424  18.023  0.00  0.00    +0.000 C 
ATOM      5  C   UNL     1       1.994   5.941  17.904  0.00  0.00    +0.000 C 
ATOM      6  C   UNL     1       3.407   6.354  18.334  0.00  0.00    +0.000 C 
ENDROOT
BRANCH   1   7
ATOM      7  C   UNL     1       5.760   5.933  18.405  0.00  0.00    +0.000 C 
BRANCH   7   8
ATOM      8  C   UNL     1       7.174   5.909  17.734  0.00  0.00    +0.000 C 
ATOM      9  C   UNL     1       7.044   6.093  16.214  0.00  0.00    +0.000 C 
ATOM     10  C   UNL     1       7.958   4.607  18.011  0.00  0.00    +0.000 C 
BRANCH   8  12
ATOM     11  C   UNL     1       7.943   8.428  17.706  0.00  0.00    +0.000 C 
ATOM     12  C   UNL     1       8.046   7.052  18.350  0.00  0.00    +0.000 C 
ENDBRANCH   8  12
ENDBRANCH   7   8
ENDBRANCH   1   7
BRANCH   4  13
ATOM     13  O   UNL     1       2.017   4.069  19.400  0.00  0.00    +0.000 OA
BRANCH  13  14
ATOM     14  C   UNL     1       1.729   2.755  19.893  0.00  0.00    +0.000 C 
ATOM     15  C   UNL     1       1.321   2.751  21.374  0.00  0.00    +0.000 C 
ATOM     16  C   UNL     1       0.486   2.296  19.106  0.00  0.00    +0.000 C 
ATOM     17  C   UNL     1       2.862   1.760  19.637  0.00  0.00    +0.000 C 
ENDBRANCH  13  14
ENDBRANCH   4  13
TORSDOF 5
ENDMDL
MODEL 5
REMARK VINA RESULT:      -5.9      3.725      5.234
REMARK  Name = 
REMARK  11 active torsions:
REMARK  status: ('A' for Active; 'I' for Inactive)
REMARK    1  A    between atoms: C_1  and  C_2
REMARK    2  A    between atoms: C_2  and  C_3
REMARK    3  A    between atoms: C_3  and  C_4
REMARK    4  A    between atoms: C_3  and  C_5
REMARK    5  A    between atoms: C_3  and  C_6
REMARK    6  A    between atoms: C_6  and  N_7
REMARK    7  A    between atoms: C_10  and  O_11
REMARK    8  A    between atoms: O_11  and  C_12
REMARK    9  A    between atoms: C_12  and  C_13
REMARK   10  A    between atoms: C_12  and  C_14
REMARK   11  A    between atoms: C_12  and  C_15
REMARK                            x       y       z     vdW  Elec       q    Type
REMARK                         _______ _______ _______ _____ _____    ______ ____
ROOT
ATOM      1  N   UNL     1       6.427   4.683  14.783  0.00  0.00    +0.000 NA
ATOM      2  C   UNL     1       5.147   5.346  15.056  0.00  0.00    +0.000 C 
ATOM      3  C   UNL     1       5.175   6.324  16.230  0.00  0.00    +0.000 C 
ATOM      4  C   UNL     1       5.623   5.619  17.501  0.00  0.00    +0.000 C 
ATOM      5  C   UNL     1       7.056   5.165  17.210  0.00  0.00    +0.000 C 
ATOM      6  C   UNL     1       7.080   4.190  16.026  0.00  0.00    +0.000 C 
ENDROOT
BRANCH   1   7
ATOM      7  C   UNL     1       6.263   3.505  13.886  0.00  0.00    +0.000 C 
BRANCH   7   8
ATOM      8  C   UNL     1       6.325   3.634  12.327  0.00  0.00    +0.000 C 
ATOM      9  C   UNL     1       6.765   2.301  11.701  0.00  0.00    +0.000 C 
ATOM     10  C   UNL     1       7.281   4.747  11.844  0.00  0.00    +0.000 C 
BRANCH   8  12
ATOM     11  C   UNL     1       4.059   2.952  11.171  0.00  0.00    +0.000 C 
ATOM     12  C   UNL     1       4.913   4.047  11.796  0.00  0.00    +0.000 C 
ENDBRANCH   8  12
ENDBRANCH   7   8
ENDBRANCH   1   7
BRANCH   4  13
ATOM     13  O   UNL     1       4.855   4.453  17.834  0.00  0.00    +0.000 OA
BRANCH  13  14
ATOM     14  C   UNL     1       3.725   4.515  18.713  0.00  0.00    +0.000 C 
ATOM     15  C   UNL     1       3.590   5.873  19.416  0.00  0.00    +0.000 C 
ATOM     16  C   UNL     1       2.495   4.384  17.795  0.00  0.00    +0.000 C 
ATOM     17  C   UNL     1       3.697   3.370  19.729  0.00  0.00    +0.000 C 
ENDBRANCH  13  14
ENDBRANCH   4  13
TORSDOF 5
ENDMDL
MODEL 6
REMARK VINA RESULT:      -5.9      1.699      6.085
REMARK  Name = 
REMARK  11 active torsions:
REMARK  status: ('A' for Active; 'I' for Inactive)
REMARK    1  A    between atoms: C_1  and  C_2
REMARK    2  A    between atoms: C_2  and  C_3
REMARK    3  A    between atoms: C_3  and  C_4
REMARK    4  A    between atoms: C_3  and  C_5
REMARK    5  A    between atoms: C_3  and  C_6
REMARK    6  A    between atoms: C_6  and  N_7
REMARK    7  A    between atoms: C_10  and  O_11
REMARK    8  A    between atoms: O_11  and  C_12
REMARK    9  A    between atoms: C_12  and  C_13
REMARK   10  A    between atoms: C_12  and  C_14
REMARK   11  A    between atoms: C_12  and  C_15
REMARK                            x       y       z     vdW  Elec       q    Type
REMARK                         _______ _______ _______ _____ _____    ______ ____
ROOT
ATOM      1  N   UNL     1       2.738   5.303  18.947  0.00  0.00    +0.000 NA
ATOM      2  C   UNL     1       2.956   6.754  18.986  0.00  0.00    +0.000 C 
ATOM      3  C   UNL     1       3.399   7.366  17.658  0.00  0.00    +0.000 C 
ATOM      4  C   UNL     1       4.680   6.708  17.168  0.00  0.00    +0.000 C 
ATOM      5  C   UNL     1       4.297   5.244  16.927  0.00  0.00    +0.000 C 
ATOM      6  C   UNL     1       3.831   4.589  18.234  0.00  0.00    +0.000 C 
ENDROOT
BRANCH   1   7
ATOM      7  C   UNL     1       2.659   4.716  20.313  0.00  0.00    +0.000 C 
BRANCH   7   8
ATOM      8  C   UNL     1       2.113   3.270  20.566  0.00  0.00    +0.000 C 
ATOM      9  C   UNL     1       1.952   3.018  22.073  0.00  0.00    +0.000 C 
ATOM     10  C   UNL     1       3.015   2.165  19.973  0.00  0.00    +0.000 C 
BRANCH   8  12
ATOM     11  C   UNL     1       0.706   2.222  18.602  0.00  0.00    +0.000 C 
ATOM     12  C   UNL     1       0.738   3.113  19.836  0.00  0.00    +0.000 C 
ENDBRANCH   8  12
ENDBRANCH   7   8
ENDBRANCH   1   7
BRANCH   4  13
ATOM     13  O   UNL     1       5.757   6.727  18.117  0.00  0.00    +0.000 OA
BRANCH  13  14
ATOM     14  C   UNL     1       7.129   6.675  17.707  0.00  0.00    +0.000 C 
ATOM     15  C   UNL     1       7.755   8.068  17.543  0.00  0.00    +0.000 C 
ATOM     16  C   UNL     1       7.872   6.008  18.881  0.00  0.00    +0.000 C 
ATOM     17  C   UNL     1       7.344   5.828  16.451  0.00  0.00    +0.000 C 
ENDBRANCH  13  14
ENDBRANCH   4  13
TORSDOF 5
ENDMDL
MODEL 7
REMARK VINA RESULT:      -5.8      1.177      2.073
REMARK  Name = 
REMARK  11 active torsions:
REMARK  status: ('A' for Active; 'I' for Inactive)
REMARK    1  A    between atoms: C_1  and  C_2
REMARK    2  A    between atoms: C_2  and  C_3
REMARK    3  A    between atoms: C_3  and  C_4
REMARK    4  A    between atoms: C_3  and  C_5
REMARK    5  A    between atoms: C_3  and  C_6
REMARK    6  A    between atoms: C_6  and  N_7
REMARK    7  A    between atoms: C_10  and  O_11
REMARK    8  A    between atoms: O_11  and  C_12
REMARK    9  A    between atoms: C_12  and  C_13
REMARK   10  A    between atoms: C_12  and  C_14
REMARK   11  A    between atoms: C_12  and  C_15
REMARK                            x       y       z     vdW  Elec       q    Type
REMARK                         _______ _______ _______ _____ _____    ______ ____
ROOT
ATOM      1  N   UNL     1       4.467   5.424  17.210  0.00  0.00    +0.000 NA
ATOM      2  C   UNL     1       4.816   4.015  17.428  0.00  0.00    +0.000 C 
ATOM      3  C   UNL     1       3.660   3.036  17.223  0.00  0.00    +0.000 C 
ATOM      4  C   UNL     1       2.497   3.384  18.140  0.00  0.00    +0.000 C 
ATOM      5  C   UNL     1       2.045   4.774  17.685  0.00  0.00    +0.000 C 
ATOM      6  C   UNL     1       3.180   5.792  17.859  0.00  0.00    +0.000 C 
ENDROOT
BRANCH   1   7
ATOM      7  C   UNL     1       5.504   6.344  17.757  0.00  0.00    +0.000 C 
BRANCH   7   8
ATOM      8  C   UNL     1       6.995   6.291  17.282  0.00  0.00    +0.000 C 
ATOM      9  C   UNL     1       7.612   7.699  17.310  0.00  0.00    +0.000 C 
ATOM     10  C   UNL     1       7.163   5.705  15.863  0.00  0.00    +0.000 C 
BRANCH   8  12
ATOM     11  C   UNL     1       7.797   5.654  19.709  0.00  0.00    +0.000 C 
ATOM     12  C   UNL     1       7.792   5.327  18.222  0.00  0.00    +0.000 C 
ENDBRANCH   8  12
ENDBRANCH   7   8
ENDBRANCH   1   7
BRANCH   4  13
ATOM     13  O   UNL     1       2.845   3.471  19.530  0.00  0.00    +0.000 OA
BRANCH  13  14
ATOM     14  C   UNL     1       1.850   3.585  20.555  0.00  0.00    +0.000 C 
ATOM     15  C   UNL     1       0.504   2.965  20.150  0.00  0.00    +0.000 C 
ATOM     16  C   UNL     1       2.380   2.732  21.724  0.00  0.00    +0.000 C 
ATOM     17  C   UNL     1       1.663   5.021  21.047  0.00  0.00    +0.000 C 
ENDBRANCH  13  14
ENDBRANCH   4  13
TORSDOF 5
ENDMDL
MODEL 8
REMARK VINA RESULT:      -5.8      1.672      5.927
REMARK  Name = 
REMARK  11 active torsions:
REMARK  status: ('A' for Active; 'I' for Inactive)
REMARK    1  A    between atoms: C_1  and  C_2
REMARK    2  A    between atoms: C_2  and  C_3
REMARK    3  A    between atoms: C_3  and  C_4
REMARK    4  A    between atoms: C_3  and  C_5
REMARK    5  A    between atoms: C_3  and  C_6
REMARK    6  A    between atoms: C_6  and  N_7
REMARK    7  A    between atoms: C_10  and  O_11
REMARK    8  A    between atoms: O_11  and  C_12
REMARK    9  A    between atoms: C_12  and  C_13
REMARK   10  A    between atoms: C_12  and  C_14
REMARK   11  A    between atoms: C_12  and  C_15
REMARK                            x       y       z     vdW  Elec       q    Type
REMARK                         _______ _______ _______ _____ _____    ______ ____
ROOT
ATOM      1  N   UNL     1       2.673   5.215  18.738  0.00  0.00    +0.000 NA
ATOM      2  C   UNL     1       2.921   6.648  18.936  0.00  0.00    +0.000 C 
ATOM      3  C   UNL     1       3.402   7.389  17.689  0.00  0.00    +0.000 C 
ATOM      4  C   UNL     1       4.678   6.758  17.152  0.00  0.00    +0.000 C 
ATOM      5  C   UNL     1       4.270   5.337  16.749  0.00  0.00    +0.000 C 
ATOM      6  C   UNL     1       3.765   4.557  17.970  0.00  0.00    +0.000 C 
ENDROOT
BRANCH   1   7
ATOM      7  C   UNL     1       2.557   4.487  20.032  0.00  0.00    +0.000 C 
BRANCH   7   8
ATOM      8  C   UNL     1       1.908   3.066  20.129  0.00  0.00    +0.000 C 
ATOM      9  C   UNL     1       0.704   2.964  19.179  0.00  0.00    +0.000 C 
ATOM     10  C   UNL     1       1.444   2.703  21.557  0.00  0.00    +0.000 C 
BRANCH   8  12
ATOM     11  C   UNL     1       4.352   2.126  20.420  0.00  0.00    +0.000 C 
ATOM     12  C   UNL     1       2.985   1.991  19.762  0.00  0.00    +0.000 C 
ENDBRANCH   8  12
ENDBRANCH   7   8
ENDBRANCH   1   7
BRANCH   4  13
ATOM     13  O   UNL     1       5.737   6.651  18.116  0.00  0.00    +0.000 OA
BRANCH  13  14
ATOM     14  C   UNL     1       7.115   6.608  17.726  0.00  0.00    +0.000 C 
ATOM     15  C   UNL     1       7.727   8.005  17.546  0.00  0.00    +0.000 C 
ATOM     16  C   UNL     1       7.849   5.970  18.921  0.00  0.00    +0.000 C 
ATOM     17  C   UNL     1       7.358   5.743  16.488  0.00  0.00    +0.000 C 
ENDBRANCH  13  14
ENDBRANCH   4  13
TORSDOF 5
ENDMDL
MODEL 9
REMARK VINA RESULT:      -5.8      1.368      1.865
REMARK  Name = 
REMARK  11 active torsions:
REMARK  status: ('A' for Active; 'I' for Inactive)
REMARK    1  A    between atoms: C_1  and  C_2
REMARK    2  A    between atoms: C_2  and  C_3
REMARK    3  A    between atoms: C_3  and  C_4
REMARK    4  A    between atoms: C_3  and  C_5
REMARK    5  A    between atoms: C_3  and  C_6
REMARK    6  A    between atoms: C_6  and  N_7
REMARK    7  A    between atoms: C_10  and  O_11
REMARK    8  A    between atoms: O_11  and  C_12
REMARK    9  A    between atoms: C_12  and  C_13
REMARK   10  A    between atoms: C_12  and  C_14
REMARK   11  A    between atoms: C_12  and  C_15
REMARK                            x       y       z     vdW  Elec       q    Type
REMARK                         _______ _______ _______ _____ _____    ______ ____
ROOT
ATOM      1  N   UNL     1       4.351   4.612  17.077  0.00  0.00    +0.000 NA
ATOM      2  C   UNL     1       4.724   3.273  17.546  0.00  0.00    +0.000 C 
ATOM      3  C   UNL     1       3.592   2.247  17.505  0.00  0.00    +0.000 C 
ATOM      4  C   UNL     1       2.408   2.725  18.332  0.00  0.00    +0.000 C 
ATOM      5  C   UNL     1       1.935   4.002  17.631  0.00  0.00    +0.000 C 
ATOM      6  C   UNL     1       3.046   5.060  17.634  0.00  0.00    +0.000 C 
ENDROOT
BRANCH   1   7
ATOM      7  C   UNL     1       5.360   5.638  17.463  0.00  0.00    +0.000 C 
BRANCH   7   8
ATOM      8  C   UNL     1       6.837   5.586  16.948  0.00  0.00    +0.000 C 
ATOM      9  C   UNL     1       6.872   5.137  15.478  0.00  0.00    +0.000 C 
ATOM     10  C   UNL     1       7.739   4.645  17.775  0.00  0.00    +0.000 C 
BRANCH   8  12
ATOM     11  C   UNL     1       8.115   7.340  18.441  0.00  0.00    +0.000 C 
ATOM     12  C   UNL     1       7.476   7.006  17.100  0.00  0.00    +0.000 C 
ENDBRANCH   8  12
ENDBRANCH   7   8
ENDBRANCH   1   7
BRANCH   4  13
ATOM     13  O   UNL     1       2.732   3.067  19.688  0.00  0.00    +0.000 OA
BRANCH  13  14
ATOM     14  C   UNL     1       1.731   3.484  20.624  0.00  0.00    +0.000 C 
ATOM     15  C   UNL     1       0.302   3.231  20.122  0.00  0.00    +0.000 C 
ATOM     16  C   UNL     1       1.922   2.571  21.850  0.00  0.00    +0.000 C 
ATOM     17  C   UNL     1       1.902   4.938  21.071  0.00  0.00    +0.000 C 
ENDBRANCH  13  14
ENDBRANCH   4  13
TORSDOF 5
ENDMDL
