MODEL 1
REMARK VINA RESULT:      -8.1      0.000      0.000
REMARK  Name = 
REMARK  8 active torsions:
REMARK  status: ('A' for Active; 'I' for Inactive)
REMARK    1  A    between atoms: C_1  and  C_2
REMARK    2  A    between atoms: C_2  and  C_3
REMARK    3  A    between atoms: C_3  and  N_4
REMARK    4  A    between atoms: C_10  and  C_11
REMARK    5  A    between atoms: N_13  and  C_14
REMARK    6  A    between atoms: C_14  and  C_15
REMARK    7  A    between atoms: C_15  and  C_16
REMARK    8  A    between atoms: C_16  and  N_17
REMARK                            x       y       z     vdW  Elec       q    Type
REMARK                         _______ _______ _______ _____ _____    ______ ____
ROOT
ATOM      1  N   UNL     1       3.345   2.946  19.058  0.00  0.00    +0.000 N 
ATOM      2  C   UNL     1       4.588   2.708  19.623  0.00  0.00    +0.000 A 
ATOM      3  O   UNL     1       4.832   1.783  20.398  0.00  0.00    +0.000 OA
ATOM      4  N   UNL     1       5.594   3.569  19.283  0.00  0.00    +0.000 N 
ATOM      5  C   UNL     1       5.421   4.681  18.465  0.00  0.00    +0.000 A 
ATOM      6  C   UNL     1       6.491   5.545  18.232  0.00  0.00    +0.000 A 
ATOM      7  C   UNL     1       6.292   6.697  17.454  0.00  0.00    +0.000 A 
ATOM      8  C   UNL     1       5.022   6.975  16.926  0.00  0.00    +0.000 A 
ATOM      9  C   UNL     1       3.967   6.084  17.139  0.00  0.00    +0.000 A 
ATOM     10  C   UNL     1       4.175   4.934  17.906  0.00  0.00    +0.000 A 
ATOM     11  C   UNL     1       3.077   3.979  18.162  0.00  0.00    +0.000 A 
ATOM     12  O   UNL     1       2.004   4.137  17.587  0.00  0.00    +0.000 OA
ATOM     13  H   UNL     1       6.489   3.384  19.723  0.00  0.00    +0.000 HD
ENDROOT
BRANCH   7  14
ATOM     14  C   UNL     1       7.444   7.625  17.265  0.00  0.00    +0.000 C 
ATOM     15  O   UNL     1       8.350   7.324  16.509  0.00  0.00    +0.000 OA
ATOM     16  N   UNL     1       7.384   8.810  17.967  0.00  0.00    +0.000 N 
ATOM     17  H   UNL     1       6.520   9.077  18.408  0.00  0.00    +0.000 HD
BRANCH  16  18
ATOM     18  C   UNL     1       8.451   9.794  17.875  0.00  0.00    +0.000 C 
BRANCH  18  19
ATOM     19  C   UNL     1       9.299   9.850  19.159  0.00  0.00    +0.000 C 
BRANCH  19  20
ATOM     20  C   UNL     1       9.456  11.311  19.596  0.00  0.00    +0.000 C 
BRANCH  20  21
ATOM     21  N   UNL     1      10.818  11.824  19.796  0.00  0.00    +0.000 NA
ATOM     22  C   UNL     1      10.910  13.210  20.307  0.00  0.00    +0.000 C 
ATOM     23  C   UNL     1      10.650  14.341  19.285  0.00  0.00    +0.000 C 
ATOM     24  O   UNL     1      11.336  14.148  18.042  0.00  0.00    +0.000 OA
ATOM     25  C   UNL     1      11.063  12.851  17.508  0.00  0.00    +0.000 C 
ATOM     26  C   UNL     1      11.542  11.775  18.496  0.00  0.00    +0.000 C 
ENDBRANCH  20  21
ENDBRANCH  19  20
ENDBRANCH  18  19
ENDBRANCH  16  18
ENDBRANCH   7  14
BRANCH   1  27
ATOM     27  C   UNL     1       2.261   2.029  19.387  0.00  0.00    +0.000 C 
BRANCH  27  29
ATOM     28  C   UNL     1       1.840   2.926  21.700  0.00  0.00    +0.000 C 
ATOM     29  C   UNL     1       1.237   2.664  20.329  0.00  0.00    +0.000 C 
ENDBRANCH  27  29
ENDBRANCH   1  27
TORSDOF 7
ENDMDL
MODEL 2
REMARK VINA RESULT:      -7.7      5.983      8.999
REMARK  Name = 
REMARK  8 active torsions:
REMARK  status: ('A' for Active; 'I' for Inactive)
REMARK    1  A    between atoms: C_1  and  C_2
REMARK    2  A    between atoms: C_2  and  C_3
REMARK    3  A    between atoms: C_3  and  N_4
REMARK    4  A    between atoms: C_10  and  C_11
REMARK    5  A    between atoms: N_13  and  C_14
REMARK    6  A    between atoms: C_14  and  C_15
REMARK    7  A    between atoms: C_15  and  C_16
REMARK    8  A    between atoms: C_16  and  N_17
REMARK                            x       y       z     vdW  Elec       q    Type
REMARK                         _______ _______ _______ _____ _____    ______ ____
ROOT
ATOM      1  N   UNL     1       4.591   5.278  18.007  0.00  0.00    +0.000 N 
ATOM      2  C   UNL     1       4.144   4.816  19.235  0.00  0.00    +0.000 A 
ATOM      3  O   UNL     1       4.479   3.743  19.736  0.00  0.00    +0.000 OA
ATOM      4  N   UNL     1       3.274   5.622  19.915  0.00  0.00    +0.000 N 
ATOM      5  C   UNL     1       2.782   6.826  19.421  0.00  0.00    +0.000 A 
ATOM      6  C   UNL     1       1.840   7.545  20.157  0.00  0.00    +0.000 A 
ATOM      7  C   UNL     1       1.304   8.729  19.623  0.00  0.00    +0.000 A 
ATOM      8  C   UNL     1       1.709   9.172  18.356  0.00  0.00    +0.000 A 
ATOM      9  C   UNL     1       2.678   8.460  17.643  0.00  0.00    +0.000 A 
ATOM     10  C   UNL     1       3.215   7.288  18.185  0.00  0.00    +0.000 A 
ATOM     11  C   UNL     1       4.229   6.504  17.452  0.00  0.00    +0.000 A 
ATOM     12  O   UNL     1       4.696   6.959  16.412  0.00  0.00    +0.000 OA
ATOM     13  H   UNL     1       2.948   5.253  20.803  0.00  0.00    +0.000 HD
ENDROOT
BRANCH   7  14
ATOM     14  C   UNL     1       0.263   9.447  20.414  0.00  0.00    +0.000 C 
ATOM     15  O   UNL     1      -0.163   8.958  21.444  0.00  0.00    +0.000 OA
ATOM     16  N   UNL     1      -0.133  10.670  19.917  0.00  0.00    +0.000 N 
ATOM     17  H   UNL     1       0.402  11.099  19.181  0.00  0.00    +0.000 HD
BRANCH  16  18
ATOM     18  C   UNL     1      -1.148  11.464  20.592  0.00  0.00    +0.000 C 
BRANCH  18  19
ATOM     19  C   UNL     1      -1.706  12.579  19.690  0.00  0.00    +0.000 C 
BRANCH  19  20
ATOM     20  C   UNL     1      -1.857  12.043  18.261  0.00  0.00    +0.000 C 
BRANCH  20  21
ATOM     21  N   UNL     1      -2.474  10.722  18.086  0.00  0.00    +0.000 NA
ATOM     22  C   UNL     1      -2.053   9.974  16.880  0.00  0.00    +0.000 C 
ATOM     23  C   UNL     1      -2.675  10.425  15.538  0.00  0.00    +0.000 C 
ATOM     24  O   UNL     1      -4.092  10.631  15.613  0.00  0.00    +0.000 OA
ATOM     25  C   UNL     1      -4.420  11.508  16.693  0.00  0.00    +0.000 C 
ATOM     26  C   UNL     1      -3.951  10.889  18.020  0.00  0.00    +0.000 C 
ENDBRANCH  20  21
ENDBRANCH  19  20
ENDBRANCH  18  19
ENDBRANCH  16  18
ENDBRANCH   7  14
BRANCH   1  27
ATOM     27  C   UNL     1       5.537   4.447  17.271  0.00  0.00    +0.000 C 
BRANCH  27  29
ATOM     28  C   UNL     1       5.893   3.983  14.823  0.00  0.00    +0.000 C 
ATOM     29  C   UNL     1       4.925   3.876  15.991  0.00  0.00    +0.000 C 
ENDBRANCH  27  29
ENDBRANCH   1  27
TORSDOF 7
ENDMDL
MODEL 3
REMARK VINA RESULT:      -7.7      5.638      9.355
REMARK  Name = 
REMARK  8 active torsions:
REMARK  status: ('A' for Active; 'I' for Inactive)
REMARK    1  A    between atoms: C_1  and  C_2
REMARK    2  A    between atoms: C_2  and  C_3
REMARK    3  A    between atoms: C_3  and  N_4
REMARK    4  A    between atoms: C_10  and  C_11
REMARK    5  A    between atoms: N_13  and  C_14
REMARK    6  A    between atoms: C_14  and  C_15
REMARK    7  A    between atoms: C_15  and  C_16
REMARK    8  A    between atoms: C_16  and  N_17
REMARK                            x       y       z     vdW  Elec       q    Type
REMARK                         _______ _______ _______ _____ _____    ______ ____
ROOT
ATOM      1  N   UNL     1      -0.529  10.560  21.689  0.00  0.00    +0.000 N 
ATOM      2  C   UNL     1       0.246   9.707  22.460  0.00  0.00    +0.000 A 
ATOM      3  O   UNL     1       0.240   9.686  23.690  0.00  0.00    +0.000 OA
ATOM      4  N   UNL     1       1.063   8.842  21.786  0.00  0.00    +0.000 N 
ATOM      5  C   UNL     1       1.195   8.817  20.402  0.00  0.00    +0.000 A 
ATOM      6  C   UNL     1       2.109   7.947  19.807  0.00  0.00    +0.000 A 
ATOM      7  C   UNL     1       2.280   7.972  18.413  0.00  0.00    +0.000 A 
ATOM      8  C   UNL     1       1.540   8.872  17.632  0.00  0.00    +0.000 A 
ATOM      9  C   UNL     1       0.604   9.715  18.237  0.00  0.00    +0.000 A 
ATOM     10  C   UNL     1       0.432   9.678  19.624  0.00  0.00    +0.000 A 
ATOM     11  C   UNL     1      -0.539  10.566  20.296  0.00  0.00    +0.000 A 
ATOM     12  O   UNL     1      -1.292  11.252  19.611  0.00  0.00    +0.000 OA
ATOM     13  H   UNL     1       1.632   8.241  22.373  0.00  0.00    +0.000 HD
ENDROOT
BRANCH   7  14
ATOM     14  C   UNL     1       3.301   7.063  17.815  0.00  0.00    +0.000 C 
ATOM     15  O   UNL     1       4.313   7.526  17.321  0.00  0.00    +0.000 OA
ATOM     16  N   UNL     1       3.025   5.715  17.892  0.00  0.00    +0.000 N 
ATOM     17  H   UNL     1       2.278   5.398  18.487  0.00  0.00    +0.000 HD
BRANCH  16  18
ATOM     18  C   UNL     1       3.937   4.727  17.337  0.00  0.00    +0.000 C 
BRANCH  18  19
ATOM     19  C   UNL     1       4.748   4.009  18.431  0.00  0.00    +0.000 C 
BRANCH  19  20
ATOM     20  C   UNL     1       3.970   4.061  19.751  0.00  0.00    +0.000 C 
BRANCH  20  21
ATOM     21  N   UNL     1       3.347   2.820  20.229  0.00  0.00    +0.000 NA
ATOM     22  C   UNL     1       2.708   1.983  19.189  0.00  0.00    +0.000 C 
ATOM     23  C   UNL     1       1.331   2.458  18.672  0.00  0.00    +0.000 C 
ATOM     24  O   UNL     1       0.433   2.840  19.723  0.00  0.00    +0.000 OA
ATOM     25  C   UNL     1       1.050   3.788  20.596  0.00  0.00    +0.000 C 
ATOM     26  C   UNL     1       2.303   3.165  21.233  0.00  0.00    +0.000 C 
ENDBRANCH  20  21
ENDBRANCH  19  20
ENDBRANCH  18  19
ENDBRANCH  16  18
ENDBRANCH   7  14
BRANCH   1  27
ATOM     27  C   UNL     1      -1.426  11.478  22.383  0.00  0.00    +0.000 C 
BRANCH  27  29
ATOM     28  C   UNL     1      -0.770  13.811  21.708  0.00  0.00    +0.000 C 
ATOM     29  C   UNL     1      -0.715  12.763  22.809  0.00  0.00    +0.000 C 
ENDBRANCH  27  29
ENDBRANCH   1  27
TORSDOF 7
ENDMDL
MODEL 4
REMARK VINA RESULT:      -7.7      5.317      7.742
REMARK  Name = 
REMARK  8 active torsions:
REMARK  status: ('A' for Active; 'I' for Inactive)
REMARK    1  A    between atoms: C_1  and  C_2
REMARK    2  A    between atoms: C_2  and  C_3
REMARK    3  A    between atoms: C_3  and  N_4
REMARK    4  A    between atoms: C_10  and  C_11
REMARK    5  A    between atoms: N_13  and  C_14
REMARK    6  A    between atoms: C_14  and  C_15
REMARK    7  A    between atoms: C_15  and  C_16
REMARK    8  A    between atoms: C_16  and  N_17
REMARK                            x       y       z     vdW  Elec       q    Type
REMARK                         _______ _______ _______ _____ _____    ______ ____
ROOT
ATOM      1  N   UNL     1       0.231  11.130  21.284  0.00  0.00    +0.000 N 
ATOM      2  C   UNL     1       0.229  10.146  22.260  0.00  0.00    +0.000 A 
ATOM      3  O   UNL     1      -0.112  10.330  23.428  0.00  0.00    +0.000 OA
ATOM      4  N   UNL     1       0.635   8.899  21.877  0.00  0.00    +0.000 N 
ATOM      5  C   UNL     1       1.097   8.590  20.601  0.00  0.00    +0.000 A 
ATOM      6  C   UNL     1       1.560   7.304  20.323  0.00  0.00    +0.000 A 
ATOM      7  C   UNL     1       2.080   7.017  19.050  0.00  0.00    +0.000 A 
ATOM      8  C   UNL     1       2.138   8.023  18.074  0.00  0.00    +0.000 A 
ATOM      9  C   UNL     1       1.640   9.298  18.355  0.00  0.00    +0.000 A 
ATOM     10  C   UNL     1       1.114   9.574  19.621  0.00  0.00    +0.000 A 
ATOM     11  C   UNL     1       0.594  10.915  19.956  0.00  0.00    +0.000 A 
ATOM     12  O   UNL     1       0.506  11.758  19.068  0.00  0.00    +0.000 OA
ATOM     13  H   UNL     1       0.642   8.201  22.614  0.00  0.00    +0.000 HD
ENDROOT
BRANCH   7  14
ATOM     14  C   UNL     1       2.612   5.646  18.801  0.00  0.00    +0.000 C 
ATOM     15  O   UNL     1       2.469   5.126  17.709  0.00  0.00    +0.000 OA
ATOM     16  N   UNL     1       3.275   5.057  19.857  0.00  0.00    +0.000 N 
ATOM     17  H   UNL     1       3.530   5.618  20.652  0.00  0.00    +0.000 HD
BRANCH  16  18
ATOM     18  C   UNL     1       3.832   3.718  19.743  0.00  0.00    +0.000 C 
BRANCH  18  19
ATOM     19  C   UNL     1       5.146   3.704  18.942  0.00  0.00    +0.000 C 
BRANCH  19  20
ATOM     20  C   UNL     1       5.880   5.033  19.153  0.00  0.00    +0.000 C 
BRANCH  20  21
ATOM     21  N   UNL     1       7.299   5.100  18.780  0.00  0.00    +0.000 NA
ATOM     22  C   UNL     1       7.907   6.448  18.815  0.00  0.00    +0.000 C 
ATOM     23  C   UNL     1       7.569   7.387  17.634  0.00  0.00    +0.000 C 
ATOM     24  O   UNL     1       7.677   6.749  16.355  0.00  0.00    +0.000 OA
ATOM     25  C   UNL     1       6.920   5.537  16.328  0.00  0.00    +0.000 C 
ATOM     26  C   UNL     1       7.455   4.571  17.398  0.00  0.00    +0.000 C 
ENDBRANCH  20  21
ENDBRANCH  19  20
ENDBRANCH  18  19
ENDBRANCH  16  18
ENDBRANCH   7  14
BRANCH   1  27
ATOM     27  C   UNL     1      -0.220  12.465  21.661  0.00  0.00    +0.000 C 
BRANCH  27  29
ATOM     28  C   UNL     1      -2.314  13.211  20.481  0.00  0.00    +0.000 C 
ATOM     29  C   UNL     1      -1.746  12.556  21.731  0.00  0.00    +0.000 C 
ENDBRANCH  27  29
ENDBRANCH   1  27
TORSDOF 7
ENDMDL
MODEL 5
REMARK VINA RESULT:      -7.6      5.642      7.863
REMARK  Name = 
REMARK  8 active torsions:
REMARK  status: ('A' for Active; 'I' for Inactive)
REMARK    1  A    between atoms: C_1  and  C_2
REMARK    2  A    between atoms: C_2  and  C_3
REMARK    3  A    between atoms: C_3  and  N_4
REMARK    4  A    between atoms: C_10  and  C_11
REMARK    5  A    between atoms: N_13  and  C_14
REMARK    6  A    between atoms: C_14  and  C_15
REMARK    7  A    between atoms: C_15  and  C_16
REMARK    8  A    between atoms: C_16  and  N_17
REMARK                            x       y       z     vdW  Elec       q    Type
REMARK                         _______ _______ _______ _____ _____    ______ ____
ROOT
ATOM      1  N   UNL     1      -0.115  10.995  21.752  0.00  0.00    +0.000 N 
ATOM      2  C   UNL     1       0.150   9.978  22.657  0.00  0.00    +0.000 A 
ATOM      3  O   UNL     1      -0.115  10.032  23.858  0.00  0.00    +0.000 OA
ATOM      4  N   UNL     1       0.743   8.851  22.160  0.00  0.00    +0.000 N 
ATOM      5  C   UNL     1       1.140   8.703  20.835  0.00  0.00    +0.000 A 
ATOM      6  C   UNL     1       1.805   7.543  20.435  0.00  0.00    +0.000 A 
ATOM      7  C   UNL     1       2.255   7.427  19.110  0.00  0.00    +0.000 A 
ATOM      8  C   UNL     1       2.042   8.476  18.203  0.00  0.00    +0.000 A 
ATOM      9  C   UNL     1       1.345   9.618  18.607  0.00  0.00    +0.000 A 
ATOM     10  C   UNL     1       0.890   9.722  19.925  0.00  0.00    +0.000 A 
ATOM     11  C   UNL     1       0.164  10.921  20.389  0.00  0.00    +0.000 A 
ATOM     12  O   UNL     1      -0.154  11.779  19.570  0.00  0.00    +0.000 OA
ATOM     13  H   UNL     1       0.942   8.130  22.845  0.00  0.00    +0.000 HD
ENDROOT
BRANCH   7  14
ATOM     14  C   UNL     1       3.006   6.196  18.729  0.00  0.00    +0.000 C 
ATOM     15  O   UNL     1       2.718   5.599  17.707  0.00  0.00    +0.000 OA
ATOM     16  N   UNL     1       4.026   5.826  19.579  0.00  0.00    +0.000 N 
ATOM     17  H   UNL     1       4.336   6.471  20.285  0.00  0.00    +0.000 HD
BRANCH  16  18
ATOM     18  C   UNL     1       4.826   4.638  19.322  0.00  0.00    +0.000 C 
BRANCH  18  19
ATOM     19  C   UNL     1       6.325   4.966  19.198  0.00  0.00    +0.000 C 
BRANCH  19  20
ATOM     20  C   UNL     1       6.866   4.366  17.895  0.00  0.00    +0.000 C 
BRANCH  20  21
ATOM     21  N   UNL     1       7.453   5.284  16.909  0.00  0.00    +0.000 NA
ATOM     22  C   UNL     1       7.184   6.721  17.134  0.00  0.00    +0.000 C 
ATOM     23  C   UNL     1       5.776   7.227  16.744  0.00  0.00    +0.000 C 
ATOM     24  O   UNL     1       5.345   6.764  15.458  0.00  0.00    +0.000 OA
ATOM     25  C   UNL     1       5.463   5.342  15.366  0.00  0.00    +0.000 C 
ATOM     26  C   UNL     1       6.933   4.934  15.560  0.00  0.00    +0.000 C 
ENDBRANCH  20  21
ENDBRANCH  19  20
ENDBRANCH  18  19
ENDBRANCH  16  18
ENDBRANCH   7  14
BRANCH   1  27
ATOM     27  C   UNL     1      -0.768  12.198  22.253  0.00  0.00    +0.000 C 
BRANCH  27  29
ATOM     28  C   UNL     1      -2.996  13.368  22.245  0.00  0.00    +0.000 C 
ATOM     29  C   UNL     1      -2.285  12.028  22.354  0.00  0.00    +0.000 C 
ENDBRANCH  27  29
ENDBRANCH   1  27
TORSDOF 7
ENDMDL
MODEL 6
REMARK VINA RESULT:      -7.5      5.574      8.289
REMARK  Name = 
REMARK  8 active torsions:
REMARK  status: ('A' for Active; 'I' for Inactive)
REMARK    1  A    between atoms: C_1  and  C_2
REMARK    2  A    between atoms: C_2  and  C_3
REMARK    3  A    between atoms: C_3  and  N_4
REMARK    4  A    between atoms: C_10  and  C_11
REMARK    5  A    between atoms: N_13  and  C_14
REMARK    6  A    between atoms: C_14  and  C_15
REMARK    7  A    between atoms: C_15  and  C_16
REMARK    8  A    between atoms: C_16  and  N_17
REMARK                            x       y       z     vdW  Elec       q    Type
REMARK                         _______ _______ _______ _____ _____    ______ ____
ROOT
ATOM      1  N   UNL     1      -0.092  11.282  21.208  0.00  0.00    +0.000 N 
ATOM      2  C   UNL     1      -0.013  10.379  22.257  0.00  0.00    +0.000 A 
ATOM      3  O   UNL     1      -0.393  10.612  23.403  0.00  0.00    +0.000 OA
ATOM      4  N   UNL     1       0.527   9.155  21.974  0.00  0.00    +0.000 N 
ATOM      5  C   UNL     1       1.043   8.802  20.731  0.00  0.00    +0.000 A 
ATOM      6  C   UNL     1       1.641   7.554  20.556  0.00  0.00    +0.000 A 
ATOM      7  C   UNL     1       2.213   7.229  19.315  0.00  0.00    +0.000 A 
ATOM      8  C   UNL     1       2.186   8.161  18.266  0.00  0.00    +0.000 A 
ATOM      9  C   UNL     1       1.555   9.395  18.444  0.00  0.00    +0.000 A 
ATOM     10  C   UNL     1       0.979   9.707  19.679  0.00  0.00    +0.000 A 
ATOM     11  C   UNL     1       0.316  11.008  19.905  0.00  0.00    +0.000 A 
ATOM     12  O   UNL     1       0.161  11.769  18.955  0.00  0.00    +0.000 OA
ATOM     13  H   UNL     1       0.591   8.518  22.761  0.00  0.00    +0.000 HD
ENDROOT
BRANCH   7  14
ATOM     14  C   UNL     1       2.887   5.906  19.177  0.00  0.00    +0.000 C 
ATOM     15  O   UNL     1       3.941   5.698  19.751  0.00  0.00    +0.000 OA
ATOM     16  N   UNL     1       2.230   4.973  18.404  0.00  0.00    +0.000 N 
ATOM     17  H   UNL     1       1.277   5.143  18.131  0.00  0.00    +0.000 HD
BRANCH  16  18
ATOM     18  C   UNL     1       2.790   3.648  18.185  0.00  0.00    +0.000 C 
BRANCH  18  19
ATOM     19  C   UNL     1       3.623   3.578  16.893  0.00  0.00    +0.000 C 
BRANCH  19  20
ATOM     20  C   UNL     1       5.112   3.679  17.246  0.00  0.00    +0.000 C 
BRANCH  20  21
ATOM     21  N   UNL     1       6.022   4.221  16.229  0.00  0.00    +0.000 NA
ATOM     22  C   UNL     1       7.323   4.714  16.733  0.00  0.00    +0.000 C 
ATOM     23  C   UNL     1       7.312   6.092  17.435  0.00  0.00    +0.000 C 
ATOM     24  O   UNL     1       6.567   7.086  16.719  0.00  0.00    +0.000 OA
ATOM     25  C   UNL     1       5.253   6.612  16.415  0.00  0.00    +0.000 C 
ATOM     26  C   UNL     1       5.348   5.353  15.538  0.00  0.00    +0.000 C 
ENDBRANCH  20  21
ENDBRANCH  19  20
ENDBRANCH  18  19
ENDBRANCH  16  18
ENDBRANCH   7  14
BRANCH   1  27
ATOM     27  C   UNL     1      -0.685  12.587  21.478  0.00  0.00    +0.000 C 
BRANCH  27  29
ATOM     28  C   UNL     1      -2.699  13.944  20.817  0.00  0.00    +0.000 C 
ATOM     29  C   UNL     1      -2.201  12.582  21.274  0.00  0.00    +0.000 C 
ENDBRANCH  27  29
ENDBRANCH   1  27
TORSDOF 7
ENDMDL
MODEL 7
REMARK VINA RESULT:      -7.4      5.659      8.509
REMARK  Name = 
REMARK  8 active torsions:
REMARK  status: ('A' for Active; 'I' for Inactive)
REMARK    1  A    between atoms: C_1  and  C_2
REMARK    2  A    between atoms: C_2  and  C_3
REMARK    3  A    between atoms: C_3  and  N_4
REMARK    4  A    between atoms: C_10  and  C_11
REMARK    5  A    between atoms: N_13  and  C_14
REMARK    6  A    between atoms: C_14  and  C_15
REMARK    7  A    between atoms: C_15  and  C_16
REMARK    8  A    between atoms: C_16  and  N_17
REMARK                            x       y       z     vdW  Elec       q    Type
REMARK                         _______ _______ _______ _____ _____    ______ ____
ROOT
ATOM      1  N   UNL     1       3.344   3.840  19.936  0.00  0.00    +0.000 N 
ATOM      2  C   UNL     1       2.520   4.315  20.944  0.00  0.00    +0.000 A 
ATOM      3  O   UNL     1       2.135   3.641  21.899  0.00  0.00    +0.000 OA
ATOM      4  N   UNL     1       2.122   5.619  20.850  0.00  0.00    +0.000 N 
ATOM      5  C   UNL     1       2.447   6.456  19.787  0.00  0.00    +0.000 A 
ATOM      6  C   UNL     1       1.933   7.753  19.742  0.00  0.00    +0.000 A 
ATOM      7  C   UNL     1       2.217   8.570  18.635  0.00  0.00    +0.000 A 
ATOM      8  C   UNL     1       3.003   8.077  17.584  0.00  0.00    +0.000 A 
ATOM      9  C   UNL     1       3.539   6.787  17.657  0.00  0.00    +0.000 A 
ATOM     10  C   UNL     1       3.261   5.983  18.766  0.00  0.00    +0.000 A 
ATOM     11  C   UNL     1       3.798   4.611  18.868  0.00  0.00    +0.000 A 
ATOM     12  O   UNL     1       4.603   4.223  18.025  0.00  0.00    +0.000 OA
ATOM     13  H   UNL     1       1.506   5.937  21.591  0.00  0.00    +0.000 HD
ENDROOT
BRANCH   7  14
ATOM     14  C   UNL     1       1.613   9.933  18.596  0.00  0.00    +0.000 C 
ATOM     15  O   UNL     1       1.825  10.665  17.647  0.00  0.00    +0.000 OA
ATOM     16  N   UNL     1       0.806  10.264  19.664  0.00  0.00    +0.000 N 
ATOM     17  H   UNL     1       0.515   9.544  20.303  0.00  0.00    +0.000 HD
BRANCH  16  18
ATOM     18  C   UNL     1       0.166  11.568  19.747  0.00  0.00    +0.000 C 
BRANCH  18  19
ATOM     19  C   UNL     1      -1.367  11.456  19.830  0.00  0.00    +0.000 C 
BRANCH  19  20
ATOM     20  C   UNL     1      -1.952  11.483  18.413  0.00  0.00    +0.000 C 
BRANCH  20  21
ATOM     21  N   UNL     1      -2.643  10.278  17.934  0.00  0.00    +0.000 NA
ATOM     22  C   UNL     1      -2.232   9.795  16.597  0.00  0.00    +0.000 C 
ATOM     23  C   UNL     1      -2.784  10.576  15.382  0.00  0.00    +0.000 C 
ATOM     24  O   UNL     1      -4.186  10.854  15.478  0.00  0.00    +0.000 OA
ATOM     25  C   UNL     1      -4.494  11.485  16.723  0.00  0.00    +0.000 C 
ATOM     26  C   UNL     1      -4.104  10.554  17.883  0.00  0.00    +0.000 C 
ENDBRANCH  20  21
ENDBRANCH  19  20
ENDBRANCH  18  19
ENDBRANCH  16  18
ENDBRANCH   7  14
BRANCH   1  27
ATOM     27  C   UNL     1       3.801   2.458  20.024  0.00  0.00    +0.000 C 
BRANCH  27  29
ATOM     28  C   UNL     1       1.705   1.949  18.729  0.00  0.00    +0.000 C 
ATOM     29  C   UNL     1       3.160   1.572  18.955  0.00  0.00    +0.000 C 
ENDBRANCH  27  29
ENDBRANCH   1  27
TORSDOF 7
ENDMDL
MODEL 8
REMARK VINA RESULT:      -7.3      6.574     10.147
REMARK  Name = 
REMARK  8 active torsions:
REMARK  status: ('A' for Active; 'I' for Inactive)
REMARK    1  A    between atoms: C_1  and  C_2
REMARK    2  A    between atoms: C_2  and  C_3
REMARK    3  A    between atoms: C_3  and  N_4
REMARK    4  A    between atoms: C_10  and  C_11
REMARK    5  A    between atoms: N_13  and  C_14
REMARK    6  A    between atoms: C_14  and  C_15
REMARK    7  A    between atoms: C_15  and  C_16
REMARK    8  A    between atoms: C_16  and  N_17
REMARK                            x       y       z     vdW  Elec       q    Type
REMARK                         _______ _______ _______ _____ _____    ______ ____
ROOT
ATOM      1  N   UNL     1      -1.231  12.207  21.908  0.00  0.00    +0.000 N 
ATOM      2  C   UNL     1      -1.196  12.687  20.608  0.00  0.00    +0.000 A 
ATOM      3  O   UNL     1      -1.805  13.683  20.221  0.00  0.00    +0.000 OA
ATOM      4  N   UNL     1      -0.428  11.991  19.716  0.00  0.00    +0.000 N 
ATOM      5  C   UNL     1       0.255  10.819  20.027  0.00  0.00    +0.000 A 
ATOM      6  C   UNL     1       0.954  10.138  19.031  0.00  0.00    +0.000 A 
ATOM      7  C   UNL     1       1.591   8.925  19.340  0.00  0.00    +0.000 A 
ATOM      8  C   UNL     1       1.512   8.404  20.640  0.00  0.00    +0.000 A 
ATOM      9  C   UNL     1       0.836   9.113  21.637  0.00  0.00    +0.000 A 
ATOM     10  C   UNL     1       0.213  10.325  21.325  0.00  0.00    +0.000 A 
ATOM     11  C   UNL     1      -0.522  11.092  22.351  0.00  0.00    +0.000 A 
ATOM     12  O   UNL     1      -0.474  10.720  23.520  0.00  0.00    +0.000 OA
ATOM     13  H   UNL     1      -0.434  12.352  18.768  0.00  0.00    +0.000 HD
ENDROOT
BRANCH   7  14
ATOM     14  C   UNL     1       2.289   8.198  18.241  0.00  0.00    +0.000 C 
ATOM     15  O   UNL     1       2.333   8.681  17.124  0.00  0.00    +0.000 OA
ATOM     16  N   UNL     1       2.877   7.001  18.589  0.00  0.00    +0.000 N 
ATOM     17  H   UNL     1       2.974   6.765  19.562  0.00  0.00    +0.000 HD
BRANCH  16  18
ATOM     18  C   UNL     1       3.579   6.193  17.604  0.00  0.00    +0.000 C 
BRANCH  18  19
ATOM     19  C   UNL     1       4.075   4.861  18.195  0.00  0.00    +0.000 C 
BRANCH  19  20
ATOM     20  C   UNL     1       3.671   4.784  19.672  0.00  0.00    +0.000 C 
BRANCH  20  21
ATOM     21  N   UNL     1       3.332   3.464  20.222  0.00  0.00    +0.000 NA
ATOM     22  C   UNL     1       3.071   2.404  19.224  0.00  0.00    +0.000 C 
ATOM     23  C   UNL     1       1.695   2.446  18.519  0.00  0.00    +0.000 C 
ATOM     24  O   UNL     1       0.602   2.657  19.422  0.00  0.00    +0.000 OA
ATOM     25  C   UNL     1       0.836   3.805  20.241  0.00  0.00    +0.000 C 
ATOM     26  C   UNL     1       2.115   3.597  21.068  0.00  0.00    +0.000 C 
ENDBRANCH  20  21
ENDBRANCH  19  20
ENDBRANCH  18  19
ENDBRANCH  16  18
ENDBRANCH   7  14
BRANCH   1  27
ATOM     27  C   UNL     1      -2.024  12.944  22.885  0.00  0.00    +0.000 C 
BRANCH  27  29
ATOM     28  C   UNL     1      -4.012  12.655  24.401  0.00  0.00    +0.000 C 
ATOM     29  C   UNL     1      -3.439  12.378  23.020  0.00  0.00    +0.000 C 
ENDBRANCH  27  29
ENDBRANCH   1  27
TORSDOF 7
ENDMDL
MODEL 9
REMARK VINA RESULT:      -7.3      5.525      9.609
REMARK  Name = 
REMARK  8 active torsions:
REMARK  status: ('A' for Active; 'I' for Inactive)
REMARK    1  A    between atoms: C_1  and  C_2
REMARK    2  A    between atoms: C_2  and  C_3
REMARK    3  A    between atoms: C_3  and  N_4
REMARK    4  A    between atoms: C_10  and  C_11
REMARK    5  A    between atoms: N_13  and  C_14
REMARK    6  A    between atoms: C_14  and  C_15
REMARK    7  A    between atoms: C_15  and  C_16
REMARK    8  A    between atoms: C_16  and  N_17
REMARK                            x       y       z     vdW  Elec       q    Type
REMARK                         _______ _______ _______ _____ _____    ______ ____
ROOT
ATOM      1  N   UNL     1      -0.597  11.207  20.237  0.00  0.00    +0.000 N 
ATOM      2  C   UNL     1      -0.323  11.633  18.947  0.00  0.00    +0.000 A 
ATOM      3  O   UNL     1      -0.849  12.609  18.413  0.00  0.00    +0.000 OA
ATOM      4  N   UNL     1       0.595  10.906  18.241  0.00  0.00    +0.000 N 
ATOM      5  C   UNL     1       1.208   9.754  18.721  0.00  0.00    +0.000 A 
ATOM      6  C   UNL     1       2.079   9.036  17.900  0.00  0.00    +0.000 A 
ATOM      7  C   UNL     1       2.646   7.841  18.371  0.00  0.00    +0.000 A 
ATOM      8  C   UNL     1       2.329   7.374  19.655  0.00  0.00    +0.000 A 
ATOM      9  C   UNL     1       1.482   8.119  20.480  0.00  0.00    +0.000 A 
ATOM     10  C   UNL     1       0.929   9.313  20.008  0.00  0.00    +0.000 A 
ATOM     11  C   UNL     1       0.018  10.116  20.849  0.00  0.00    +0.000 A 
ATOM     12  O   UNL     1      -0.150   9.793  22.021  0.00  0.00    +0.000 OA
ATOM     13  H   UNL     1       0.764  11.228  17.294  0.00  0.00    +0.000 HD
ENDROOT
BRANCH   7  14
ATOM     14  C   UNL     1       3.534   7.074  17.449  0.00  0.00    +0.000 C 
ATOM     15  O   UNL     1       4.025   7.624  16.480  0.00  0.00    +0.000 OA
ATOM     16  N   UNL     1       3.762   5.759  17.791  0.00  0.00    +0.000 N 
ATOM     17  H   UNL     1       3.493   5.433  18.703  0.00  0.00    +0.000 HD
BRANCH  16  18
ATOM     18  C   UNL     1       4.603   4.903  16.967  0.00  0.00    +0.000 C 
BRANCH  18  19
ATOM     19  C   UNL     1       4.119   3.441  16.971  0.00  0.00    +0.000 C 
BRANCH  19  20
ATOM     20  C   UNL     1       2.626   3.405  17.318  0.00  0.00    +0.000 C 
BRANCH  20  21
ATOM     21  N   UNL     1       2.128   2.254  18.083  0.00  0.00    +0.000 NA
ATOM     22  C   UNL     1       0.854   2.469  18.804  0.00  0.00    +0.000 C 
ATOM     23  C   UNL     1       0.933   3.287  20.114  0.00  0.00    +0.000 C 
ATOM     24  O   UNL     1       2.008   2.880  20.971  0.00  0.00    +0.000 OA
ATOM     25  C   UNL     1       3.246   2.864  20.257  0.00  0.00    +0.000 C 
ATOM     26  C   UNL     1       3.155   1.869  19.089  0.00  0.00    +0.000 C 
ENDBRANCH  20  21
ENDBRANCH  19  20
ENDBRANCH  18  19
ENDBRANCH  16  18
ENDBRANCH   7  14
BRANCH   1  27
ATOM     27  C   UNL     1      -1.555  11.978  21.020  0.00  0.00    +0.000 C 
BRANCH  27  29
ATOM     28  C   UNL     1      -1.445  13.154  23.242  0.00  0.00    +0.000 C 
ATOM     29  C   UNL     1      -0.877  13.082  21.833  0.00  0.00    +0.000 C 
ENDBRANCH  27  29
ENDBRANCH   1  27
TORSDOF 7
ENDMDL
