MODEL 1
REMARK VINA RESULT:      -7.8      0.000      0.000
REMARK  Name = 
REMARK  16 active torsions:
REMARK  status: ('A' for Active; 'I' for Inactive)
REMARK    1  A    between atoms: C_1  and  C_2
REMARK    2  A    between atoms: C_2  and  C_3
REMARK    3  A    between atoms: C_2  and  C_4
REMARK    4  A    between atoms: C_2  and  N_15
REMARK    5  A    between atoms: C_4  and  C_5
REMARK    6  A    between atoms: N_15  and  C_16
REMARK    7  A    between atoms: C_16  and  C_17
REMARK    8  A    between atoms: C_17  and  O_18
REMARK    9  A    between atoms: C_17  and  C_19
REMARK   10  A    between atoms: C_19  and  O_20
REMARK   11  A    between atoms: O_20  and  C_21
REMARK   12  A    between atoms: C_21  and  C_22
REMARK   13  A    between atoms: C_21  and  C_28
REMARK   14  A    between atoms: C_28  and  C_29
REMARK   15  A    between atoms: C_28  and  C_30
REMARK   16  A    between atoms: C_28  and  C_31
REMARK                            x       y       z     vdW  Elec       q    Type
REMARK                         _______ _______ _______ _____ _____    ______ ____
ROOT
ATOM      1  C   UNL     1       1.940   8.319  19.278  0.00  0.00    +0.000 C 
ENDROOT
BRANCH   1   2
ATOM      2  N   UNL     1       1.724   8.185  20.723  0.00  0.00    +0.000 NA
ATOM      3  H   UNL     1       1.427   7.229  20.927  0.00  0.00    +0.000 HD
BRANCH   2   5
ATOM      4  C   UNL     1       1.337   9.470  22.720  0.00  0.00    +0.000 C 
ATOM      5  C   UNL     1       0.783   9.176  21.310  0.00  0.00    +0.000 C 
ATOM      6  C   UNL     1      -0.623   8.564  21.458  0.00  0.00    +0.000 C 
BRANCH   5   7
ATOM      7  C   UNL     1       0.760  10.473  20.432  0.00  0.00    +0.000 C 
BRANCH   7   8
ATOM      8  C   UNL     1      -0.540  10.816  19.739  0.00  0.00    +0.000 A 
ATOM      9  C   UNL     1      -1.439  11.728  20.301  0.00  0.00    +0.000 A 
ATOM     10  C   UNL     1      -2.632  12.042  19.643  0.00  0.00    +0.000 A 
ATOM     11  C   UNL     1      -2.939  11.466  18.399  0.00  0.00    +0.000 A 
ATOM     12  C   UNL     1      -4.110  11.795  17.698  0.00  0.00    +0.000 A 
ATOM     13  C   UNL     1      -4.376  11.232  16.449  0.00  0.00    +0.000 A 
ATOM     14  C   UNL     1      -3.482  10.324  15.888  0.00  0.00    +0.000 A 
ATOM     15  C   UNL     1      -2.325   9.970  16.581  0.00  0.00    +0.000 A 
ATOM     16  C   UNL     1      -2.039  10.537  17.832  0.00  0.00    +0.000 A 
ATOM     17  C   UNL     1      -0.866  10.205  18.521  0.00  0.00    +0.000 A 
ENDBRANCH   7   8
ENDBRANCH   5   7
ENDBRANCH   2   5
ENDBRANCH   1   2
BRANCH   1  18
ATOM     18  C   UNL     1       2.521   7.038  18.639  0.00  0.00    +0.000 C 
BRANCH  18  19
ATOM     19  O   UNL     1       3.818   7.299  18.083  0.00  0.00    +0.000 OA
ATOM     20  H   UNL     1       3.781   8.162  17.638  0.00  0.00    +0.000 HD
ENDBRANCH  18  19
BRANCH  18  21
ATOM     21  C   UNL     1       2.619   5.931  19.703  0.00  0.00    +0.000 C 
BRANCH  21  22
ATOM     22  O   UNL     1       3.768   5.117  19.443  0.00  0.00    +0.000 OA
BRANCH  22  23
ATOM     23  C   UNL     1       3.623   4.189  18.356  0.00  0.00    +0.000 C 
BRANCH  23  24
ATOM     24  C   UNL     1       4.811   4.273  17.405  0.00  0.00    +0.000 A 
ATOM     25  C   UNL     1       4.659   4.123  16.015  0.00  0.00    +0.000 A 
ATOM     26  C   UNL     1       5.762   4.159  15.164  0.00  0.00    +0.000 A 
ATOM     27  C   UNL     1       7.033   4.377  15.689  0.00  0.00    +0.000 A 
ATOM     28  C   UNL     1       7.202   4.550  17.061  0.00  0.00    +0.000 A 
ATOM     29  C   UNL     1       6.099   4.489  17.917  0.00  0.00    +0.000 A 
ENDBRANCH  23  24
BRANCH  23  30
ATOM     30  C   UNL     1       3.390   2.752  18.950  0.00  0.00    +0.000 C 
ATOM     31  C   UNL     1       3.779   1.687  17.898  0.00  0.00    +0.000 C 
ATOM     32  C   UNL     1       4.269   2.519  20.194  0.00  0.00    +0.000 C 
ATOM     33  C   UNL     1       1.915   2.507  19.326  0.00  0.00    +0.000 C 
ENDBRANCH  23  30
ENDBRANCH  22  23
ENDBRANCH  21  22
ENDBRANCH  18  21
ENDBRANCH   1  18
TORSDOF 11
ENDMDL
MODEL 2
REMARK VINA RESULT:      -7.7      6.597      9.951
REMARK  Name = 
REMARK  16 active torsions:
REMARK  status: ('A' for Active; 'I' for Inactive)
REMARK    1  A    between atoms: C_1  and  C_2
REMARK    2  A    between atoms: C_2  and  C_3
REMARK    3  A    between atoms: C_2  and  C_4
REMARK    4  A    between atoms: C_2  and  N_15
REMARK    5  A    between atoms: C_4  and  C_5
REMARK    6  A    between atoms: N_15  and  C_16
REMARK    7  A    between atoms: C_16  and  C_17
REMARK    8  A    between atoms: C_17  and  O_18
REMARK    9  A    between atoms: C_17  and  C_19
REMARK   10  A    between atoms: C_19  and  O_20
REMARK   11  A    between atoms: O_20  and  C_21
REMARK   12  A    between atoms: C_21  and  C_22
REMARK   13  A    between atoms: C_21  and  C_28
REMARK   14  A    between atoms: C_28  and  C_29
REMARK   15  A    between atoms: C_28  and  C_30
REMARK   16  A    between atoms: C_28  and  C_31
REMARK                            x       y       z     vdW  Elec       q    Type
REMARK                         _______ _______ _______ _____ _____    ______ ____
ROOT
ATOM      1  C   UNL     1       7.826   8.436  17.555  0.00  0.00    +0.000 C 
ENDROOT
BRANCH   1   2
ATOM      2  N   UNL     1       7.960   7.080  18.098  0.00  0.00    +0.000 NA
ATOM      3  H   UNL     1       8.931   6.778  18.000  0.00  0.00    +0.000 HD
BRANCH   2   5
ATOM      4  C   UNL     1       7.196   4.818  18.395  0.00  0.00    +0.000 C 
ATOM      5  C   UNL     1       7.025   6.078  17.521  0.00  0.00    +0.000 C 
ATOM      6  C   UNL     1       7.434   5.727  16.077  0.00  0.00    +0.000 C 
BRANCH   5   7
ATOM      7  C   UNL     1       5.557   6.619  17.591  0.00  0.00    +0.000 C 
BRANCH   7   8
ATOM      8  C   UNL     1       4.465   5.617  17.894  0.00  0.00    +0.000 A 
ATOM      9  C   UNL     1       4.042   4.695  16.930  0.00  0.00    +0.000 A 
ATOM     10  C   UNL     1       3.039   3.769  17.229  0.00  0.00    +0.000 A 
ATOM     11  C   UNL     1       2.454   3.732  18.505  0.00  0.00    +0.000 A 
ATOM     12  C   UNL     1       1.473   2.785  18.844  0.00  0.00    +0.000 A 
ATOM     13  C   UNL     1       0.931   2.749  20.130  0.00  0.00    +0.000 A 
ATOM     14  C   UNL     1       1.350   3.665  21.091  0.00  0.00    +0.000 A 
ATOM     15  C   UNL     1       2.307   4.625  20.764  0.00  0.00    +0.000 A 
ATOM     16  C   UNL     1       2.870   4.665  19.479  0.00  0.00    +0.000 A 
ATOM     17  C   UNL     1       3.850   5.612  19.153  0.00  0.00    +0.000 A 
ENDBRANCH   7   8
ENDBRANCH   5   7
ENDBRANCH   2   5
ENDBRANCH   1   2
BRANCH   1  18
ATOM     18  C   UNL     1       8.351   9.522  18.520  0.00  0.00    +0.000 C 
BRANCH  18  19
ATOM     19  O   UNL     1       9.273   8.953  19.461  0.00  0.00    +0.000 OA
ATOM     20  H   UNL     1       8.859   8.988  20.339  0.00  0.00    +0.000 HD
ENDBRANCH  18  19
BRANCH  18  21
ATOM     21  C   UNL     1       9.043  10.635  17.714  0.00  0.00    +0.000 C 
BRANCH  21  22
ATOM     22  O   UNL     1       9.039  11.850  18.473  0.00  0.00    +0.000 OA
BRANCH  22  23
ATOM     23  C   UNL     1      10.259  12.606  18.418  0.00  0.00    +0.000 C 
BRANCH  23  24
ATOM     24  C   UNL     1       9.989  14.046  17.996  0.00  0.00    +0.000 A 
ATOM     25  C   UNL     1      10.987  14.843  17.405  0.00  0.00    +0.000 A 
ATOM     26  C   UNL     1      10.735  16.171  17.066  0.00  0.00    +0.000 A 
ATOM     27  C   UNL     1       9.473  16.714  17.285  0.00  0.00    +0.000 A 
ATOM     28  C   UNL     1       8.465  15.935  17.848  0.00  0.00    +0.000 A 
ATOM     29  C   UNL     1       8.724  14.609  18.212  0.00  0.00    +0.000 A 
ENDBRANCH  23  24
BRANCH  23  30
ATOM     30  C   UNL     1      10.990  12.480  19.804  0.00  0.00    +0.000 C 
ATOM     31  C   UNL     1      11.367  13.889  20.319  0.00  0.00    +0.000 C 
ATOM     32  C   UNL     1      10.071  11.831  20.857  0.00  0.00    +0.000 C 
ATOM     33  C   UNL     1      12.295  11.664  19.706  0.00  0.00    +0.000 C 
ENDBRANCH  23  30
ENDBRANCH  22  23
ENDBRANCH  21  22
ENDBRANCH  18  21
ENDBRANCH   1  18
TORSDOF 11
ENDMDL
MODEL 3
REMARK VINA RESULT:      -7.6      1.004      2.788
REMARK  Name = 
REMARK  16 active torsions:
REMARK  status: ('A' for Active; 'I' for Inactive)
REMARK    1  A    between atoms: C_1  and  C_2
REMARK    2  A    between atoms: C_2  and  C_3
REMARK    3  A    between atoms: C_2  and  C_4
REMARK    4  A    between atoms: C_2  and  N_15
REMARK    5  A    between atoms: C_4  and  C_5
REMARK    6  A    between atoms: N_15  and  C_16
REMARK    7  A    between atoms: C_16  and  C_17
REMARK    8  A    between atoms: C_17  and  O_18
REMARK    9  A    between atoms: C_17  and  C_19
REMARK   10  A    between atoms: C_19  and  O_20
REMARK   11  A    between atoms: O_20  and  C_21
REMARK   12  A    between atoms: C_21  and  C_22
REMARK   13  A    between atoms: C_21  and  C_28
REMARK   14  A    between atoms: C_28  and  C_29
REMARK   15  A    between atoms: C_28  and  C_30
REMARK   16  A    between atoms: C_28  and  C_31
REMARK                            x       y       z     vdW  Elec       q    Type
REMARK                         _______ _______ _______ _____ _____    ______ ____
ROOT
ATOM      1  C   UNL     1       1.558   7.021  20.713  0.00  0.00    +0.000 C 
ENDROOT
BRANCH   1   2
ATOM      2  N   UNL     1       1.517   8.444  20.361  0.00  0.00    +0.000 NA
ATOM      3  H   UNL     1       2.474   8.784  20.240  0.00  0.00    +0.000 HD
BRANCH   2   5
ATOM      4  C   UNL     1       1.622   9.352  22.587  0.00  0.00    +0.000 C 
ATOM      5  C   UNL     1       0.759   9.303  21.309  0.00  0.00    +0.000 C 
ATOM      6  C   UNL     1      -0.594   8.654  21.661  0.00  0.00    +0.000 C 
BRANCH   5   7
ATOM      7  C   UNL     1       0.573  10.734  20.698  0.00  0.00    +0.000 C 
BRANCH   7   8
ATOM      8  C   UNL     1      -0.663  10.972  19.859  0.00  0.00    +0.000 A 
ATOM      9  C   UNL     1      -1.651  11.873  20.268  0.00  0.00    +0.000 A 
ATOM     10  C   UNL     1      -2.782  12.090  19.476  0.00  0.00    +0.000 A 
ATOM     11  C   UNL     1      -2.937  11.426  18.248  0.00  0.00    +0.000 A 
ATOM     12  C   UNL     1      -4.043  11.656  17.415  0.00  0.00    +0.000 A 
ATOM     13  C   UNL     1      -4.157  11.006  16.184  0.00  0.00    +0.000 A 
ATOM     14  C   UNL     1      -3.175  10.109  15.775  0.00  0.00    +0.000 A 
ATOM     15  C   UNL     1      -2.080   9.853  16.601  0.00  0.00    +0.000 A 
ATOM     16  C   UNL     1      -1.947  10.508  17.835  0.00  0.00    +0.000 A 
ATOM     17  C   UNL     1      -0.837  10.274  18.657  0.00  0.00    +0.000 A 
ENDBRANCH   7   8
ENDBRANCH   5   7
ENDBRANCH   2   5
ENDBRANCH   1   2
BRANCH   1  18
ATOM     18  C   UNL     1       2.371   6.178  19.705  0.00  0.00    +0.000 C 
BRANCH  18  19
ATOM     19  O   UNL     1       1.533   5.189  19.089  0.00  0.00    +0.000 OA
ATOM     20  H   UNL     1       0.661   5.592  18.940  0.00  0.00    +0.000 HD
ENDBRANCH  18  19
BRANCH  18  21
ATOM     21  C   UNL     1       2.973   7.101  18.630  0.00  0.00    +0.000 C 
BRANCH  21  22
ATOM     22  O   UNL     1       3.593   6.308  17.611  0.00  0.00    +0.000 OA
BRANCH  22  23
ATOM     23  C   UNL     1       4.733   5.547  18.042  0.00  0.00    +0.000 C 
BRANCH  23  24
ATOM     24  C   UNL     1       4.354   4.090  18.284  0.00  0.00    +0.000 A 
ATOM     25  C   UNL     1       4.710   3.422  19.470  0.00  0.00    +0.000 A 
ATOM     26  C   UNL     1       4.394   2.077  19.657  0.00  0.00    +0.000 A 
ATOM     27  C   UNL     1       3.691   1.388  18.673  0.00  0.00    +0.000 A 
ATOM     28  C   UNL     1       3.311   2.038  17.502  0.00  0.00    +0.000 A 
ATOM     29  C   UNL     1       3.649   3.380  17.303  0.00  0.00    +0.000 A 
ENDBRANCH  23  24
BRANCH  23  30
ATOM     30  C   UNL     1       5.886   5.733  16.990  0.00  0.00    +0.000 C 
ATOM     31  C   UNL     1       6.694   7.008  17.329  0.00  0.00    +0.000 C 
ATOM     32  C   UNL     1       6.862   4.541  17.023  0.00  0.00    +0.000 C 
ATOM     33  C   UNL     1       5.347   5.900  15.554  0.00  0.00    +0.000 C 
ENDBRANCH  23  30
ENDBRANCH  22  23
ENDBRANCH  21  22
ENDBRANCH  18  21
ENDBRANCH   1  18
TORSDOF 11
ENDMDL
MODEL 4
REMARK VINA RESULT:      -7.6      1.756      2.967
REMARK  Name = 
REMARK  16 active torsions:
REMARK  status: ('A' for Active; 'I' for Inactive)
REMARK    1  A    between atoms: C_1  and  C_2
REMARK    2  A    between atoms: C_2  and  C_3
REMARK    3  A    between atoms: C_2  and  C_4
REMARK    4  A    between atoms: C_2  and  N_15
REMARK    5  A    between atoms: C_4  and  C_5
REMARK    6  A    between atoms: N_15  and  C_16
REMARK    7  A    between atoms: C_16  and  C_17
REMARK    8  A    between atoms: C_17  and  O_18
REMARK    9  A    between atoms: C_17  and  C_19
REMARK   10  A    between atoms: C_19  and  O_20
REMARK   11  A    between atoms: O_20  and  C_21
REMARK   12  A    between atoms: C_21  and  C_22
REMARK   13  A    between atoms: C_21  and  C_28
REMARK   14  A    between atoms: C_28  and  C_29
REMARK   15  A    between atoms: C_28  and  C_30
REMARK   16  A    between atoms: C_28  and  C_31
REMARK                            x       y       z     vdW  Elec       q    Type
REMARK                         _______ _______ _______ _____ _____    ______ ____
ROOT
ATOM      1  C   UNL     1       1.056   9.098  18.046  0.00  0.00    +0.000 C 
ENDROOT
BRANCH   1   2
ATOM      2  N   UNL     1       1.138  10.559  18.131  0.00  0.00    +0.000 NA
ATOM      3  H   UNL     1       2.105  10.827  18.323  0.00  0.00    +0.000 HD
BRANCH   2   5
ATOM      4  C   UNL     1       1.110  11.875  20.144  0.00  0.00    +0.000 C 
ATOM      5  C   UNL     1       0.204  11.184  19.105  0.00  0.00    +0.000 C 
ATOM      6  C   UNL     1      -0.626  10.103  19.826  0.00  0.00    +0.000 C 
BRANCH   5   7
ATOM      7  C   UNL     1      -0.711  12.223  18.373  0.00  0.00    +0.000 C 
BRANCH   7   8
ATOM      8  C   UNL     1      -2.188  11.909  18.295  0.00  0.00    +0.000 A 
ATOM      9  C   UNL     1      -2.715  11.177  17.225  0.00  0.00    +0.000 A 
ATOM     10  C   UNL     1      -4.082  10.887  17.172  0.00  0.00    +0.000 A 
ATOM     11  C   UNL     1      -4.945  11.304  18.199  0.00  0.00    +0.000 A 
ATOM     12  C   UNL     1      -6.313  10.990  18.191  0.00  0.00    +0.000 A 
ATOM     13  C   UNL     1      -7.143  11.389  19.241  0.00  0.00    +0.000 A 
ATOM     14  C   UNL     1      -6.621  12.118  20.305  0.00  0.00    +0.000 A 
ATOM     15  C   UNL     1      -5.268  12.456  20.318  0.00  0.00    +0.000 A 
ATOM     16  C   UNL     1      -4.420  12.051  19.276  0.00  0.00    +0.000 A 
ATOM     17  C   UNL     1      -3.055  12.366  19.296  0.00  0.00    +0.000 A 
ENDBRANCH   7   8
ENDBRANCH   5   7
ENDBRANCH   2   5
ENDBRANCH   1   2
BRANCH   1  18
ATOM     18  C   UNL     1       2.273   8.392  18.686  0.00  0.00    +0.000 C 
BRANCH  18  19
ATOM     19  O   UNL     1       1.995   8.057  20.054  0.00  0.00    +0.000 OA
ATOM     20  H   UNL     1       2.597   8.575  20.613  0.00  0.00    +0.000 HD
ENDBRANCH  18  19
BRANCH  18  21
ATOM     21  C   UNL     1       2.607   7.118  17.890  0.00  0.00    +0.000 C 
BRANCH  21  22
ATOM     22  O   UNL     1       2.445   5.971  18.732  0.00  0.00    +0.000 OA
BRANCH  22  23
ATOM     23  C   UNL     1       2.967   4.744  18.197  0.00  0.00    +0.000 C 
BRANCH  23  24
ATOM     24  C   UNL     1       4.486   4.800  18.090  0.00  0.00    +0.000 A 
ATOM     25  C   UNL     1       5.285   5.280  19.145  0.00  0.00    +0.000 A 
ATOM     26  C   UNL     1       6.670   5.366  19.015  0.00  0.00    +0.000 A 
ATOM     27  C   UNL     1       7.280   4.944  17.837  0.00  0.00    +0.000 A 
ATOM     28  C   UNL     1       6.510   4.446  16.790  0.00  0.00    +0.000 A 
ATOM     29  C   UNL     1       5.118   4.382  16.911  0.00  0.00    +0.000 A 
ENDBRANCH  23  24
BRANCH  23  30
ATOM     30  C   UNL     1       2.439   3.550  19.072  0.00  0.00    +0.000 C 
ATOM     31  C   UNL     1       2.065   4.068  20.482  0.00  0.00    +0.000 C 
ATOM     32  C   UNL     1       1.171   2.930  18.454  0.00  0.00    +0.000 C 
ATOM     33  C   UNL     1       3.499   2.446  19.256  0.00  0.00    +0.000 C 
ENDBRANCH  23  30
ENDBRANCH  22  23
ENDBRANCH  21  22
ENDBRANCH  18  21
ENDBRANCH   1  18
TORSDOF 11
ENDMDL
MODEL 5
REMARK VINA RESULT:      -7.5      2.227      4.357
REMARK  Name = 
REMARK  16 active torsions:
REMARK  status: ('A' for Active; 'I' for Inactive)
REMARK    1  A    between atoms: C_1  and  C_2
REMARK    2  A    between atoms: C_2  and  C_3
REMARK    3  A    between atoms: C_2  and  C_4
REMARK    4  A    between atoms: C_2  and  N_15
REMARK    5  A    between atoms: C_4  and  C_5
REMARK    6  A    between atoms: N_15  and  C_16
REMARK    7  A    between atoms: C_16  and  C_17
REMARK    8  A    between atoms: C_17  and  O_18
REMARK    9  A    between atoms: C_17  and  C_19
REMARK   10  A    between atoms: C_19  and  O_20
REMARK   11  A    between atoms: O_20  and  C_21
REMARK   12  A    between atoms: C_21  and  C_22
REMARK   13  A    between atoms: C_21  and  C_28
REMARK   14  A    between atoms: C_28  and  C_29
REMARK   15  A    between atoms: C_28  and  C_30
REMARK   16  A    between atoms: C_28  and  C_31
REMARK                            x       y       z     vdW  Elec       q    Type
REMARK                         _______ _______ _______ _____ _____    ______ ____
ROOT
ATOM      1  C   UNL     1       0.761   9.424  18.941  0.00  0.00    +0.000 C 
ENDROOT
BRANCH   1   2
ATOM      2  N   UNL     1       1.246   8.858  20.204  0.00  0.00    +0.000 NA
ATOM      3  H   UNL     1       1.117   7.845  20.184  0.00  0.00    +0.000 HD
BRANCH   2   5
ATOM      4  C   UNL     1       1.629   9.109  22.566  0.00  0.00    +0.000 C 
ATOM      5  C   UNL     1       0.645   9.451  21.428  0.00  0.00    +0.000 C 
ATOM      6  C   UNL     1      -0.710   8.787  21.741  0.00  0.00    +0.000 C 
BRANCH   5   7
ATOM      7  C   UNL     1       0.502  11.001  21.253  0.00  0.00    +0.000 C 
BRANCH   7   8
ATOM      8  C   UNL     1      -0.889  11.585  21.367  0.00  0.00    +0.000 A 
ATOM      9  C   UNL     1      -1.606  11.971  20.229  0.00  0.00    +0.000 A 
ATOM     10  C   UNL     1      -2.894  12.499  20.351  0.00  0.00    +0.000 A 
ATOM     11  C   UNL     1      -3.500  12.631  21.612  0.00  0.00    +0.000 A 
ATOM     12  C   UNL     1      -4.808  13.120  21.759  0.00  0.00    +0.000 A 
ATOM     13  C   UNL     1      -5.398  13.211  23.021  0.00  0.00    +0.000 A 
ATOM     14  C   UNL     1      -4.686  12.828  24.154  0.00  0.00    +0.000 A 
ATOM     15  C   UNL     1      -3.378  12.360  24.027  0.00  0.00    +0.000 A 
ATOM     16  C   UNL     1      -2.777  12.252  22.764  0.00  0.00    +0.000 A 
ATOM     17  C   UNL     1      -1.473  11.759  22.628  0.00  0.00    +0.000 A 
ENDBRANCH   7   8
ENDBRANCH   5   7
ENDBRANCH   2   5
ENDBRANCH   1   2
BRANCH   1  18
ATOM     18  C   UNL     1       1.719   9.156  17.758  0.00  0.00    +0.000 C 
BRANCH  18  19
ATOM     19  O   UNL     1       2.153  10.393  17.174  0.00  0.00    +0.000 OA
ATOM     20  H   UNL     1       1.367  10.848  16.827  0.00  0.00    +0.000 HD
ENDBRANCH  18  19
BRANCH  18  21
ATOM     21  C   UNL     1       2.936   8.354  18.253  0.00  0.00    +0.000 C 
BRANCH  21  22
ATOM     22  O   UNL     1       2.767   6.972  17.918  0.00  0.00    +0.000 OA
BRANCH  22  23
ATOM     23  C   UNL     1       3.498   6.052  18.745  0.00  0.00    +0.000 C 
BRANCH  23  24
ATOM     24  C   UNL     1       2.575   4.978  19.311  0.00  0.00    +0.000 A 
ATOM     25  C   UNL     1       2.497   4.723  20.692  0.00  0.00    +0.000 A 
ATOM     26  C   UNL     1       1.681   3.708  21.189  0.00  0.00    +0.000 A 
ATOM     27  C   UNL     1       0.908   2.952  20.313  0.00  0.00    +0.000 A 
ATOM     28  C   UNL     1       0.954   3.204  18.944  0.00  0.00    +0.000 A 
ATOM     29  C   UNL     1       1.791   4.206  18.443  0.00  0.00    +0.000 A 
ENDBRANCH  23  24
BRANCH  23  30
ATOM     30  C   UNL     1       4.701   5.477  17.914  0.00  0.00    +0.000 C 
ATOM     31  C   UNL     1       5.615   6.638  17.455  0.00  0.00    +0.000 C 
ATOM     32  C   UNL     1       5.557   4.521  18.767  0.00  0.00    +0.000 C 
ATOM     33  C   UNL     1       4.234   4.733  16.645  0.00  0.00    +0.000 C 
ENDBRANCH  23  30
ENDBRANCH  22  23
ENDBRANCH  21  22
ENDBRANCH  18  21
ENDBRANCH   1  18
TORSDOF 11
ENDMDL
MODEL 6
REMARK VINA RESULT:      -7.5      2.631      4.946
REMARK  Name = 
REMARK  16 active torsions:
REMARK  status: ('A' for Active; 'I' for Inactive)
REMARK    1  A    between atoms: C_1  and  C_2
REMARK    2  A    between atoms: C_2  and  C_3
REMARK    3  A    between atoms: C_2  and  C_4
REMARK    4  A    between atoms: C_2  and  N_15
REMARK    5  A    between atoms: C_4  and  C_5
REMARK    6  A    between atoms: N_15  and  C_16
REMARK    7  A    between atoms: C_16  and  C_17
REMARK    8  A    between atoms: C_17  and  O_18
REMARK    9  A    between atoms: C_17  and  C_19
REMARK   10  A    between atoms: C_19  and  O_20
REMARK   11  A    between atoms: O_20  and  C_21
REMARK   12  A    between atoms: C_21  and  C_22
REMARK   13  A    between atoms: C_21  and  C_28
REMARK   14  A    between atoms: C_28  and  C_29
REMARK   15  A    between atoms: C_28  and  C_30
REMARK   16  A    between atoms: C_28  and  C_31
REMARK                            x       y       z     vdW  Elec       q    Type
REMARK                         _______ _______ _______ _____ _____    ______ ____
ROOT
ATOM      1  C   UNL     1       0.359   9.995  18.962  0.00  0.00    +0.000 C 
ENDROOT
BRANCH   1   2
ATOM      2  N   UNL     1       1.120  11.075  19.598  0.00  0.00    +0.000 NA
ATOM      3  H   UNL     1       1.212  10.873  20.596  0.00  0.00    +0.000 HD
BRANCH   2   5
ATOM      4  C   UNL     1      -0.825  12.223  18.770  0.00  0.00    +0.000 C 
ATOM      5  C   UNL     1       0.578  12.441  19.375  0.00  0.00    +0.000 C 
ATOM      6  C   UNL     1       1.437  13.202  18.346  0.00  0.00    +0.000 C 
BRANCH   5   7
ATOM      7  C   UNL     1       0.492  13.209  20.737  0.00  0.00    +0.000 C 
BRANCH   7   8
ATOM      8  C   UNL     1      -0.697  12.913  21.624  0.00  0.00    +0.000 A 
ATOM      9  C   UNL     1      -0.734  11.767  22.424  0.00  0.00    +0.000 A 
ATOM     10  C   UNL     1      -1.836  11.513  23.246  0.00  0.00    +0.000 A 
ATOM     11  C   UNL     1      -2.914  12.413  23.300  0.00  0.00    +0.000 A 
ATOM     12  C   UNL     1      -4.014  12.203  24.147  0.00  0.00    +0.000 A 
ATOM     13  C   UNL     1      -5.057  13.129  24.206  0.00  0.00    +0.000 A 
ATOM     14  C   UNL     1      -5.021  14.271  23.410  0.00  0.00    +0.000 A 
ATOM     15  C   UNL     1      -3.947  14.484  22.547  0.00  0.00    +0.000 A 
ATOM     16  C   UNL     1      -2.886  13.567  22.487  0.00  0.00    +0.000 A 
ATOM     17  C   UNL     1      -1.791  13.788  21.641  0.00  0.00    +0.000 A 
ENDBRANCH   7   8
ENDBRANCH   5   7
ENDBRANCH   2   5
ENDBRANCH   1   2
BRANCH   1  18
ATOM     18  C   UNL     1       1.241   9.075  18.088  0.00  0.00    +0.000 C 
BRANCH  18  19
ATOM     19  O   UNL     1       2.124   9.857  17.270  0.00  0.00    +0.000 OA
ATOM     20  H   UNL     1       1.614  10.177  16.507  0.00  0.00    +0.000 HD
ENDBRANCH  18  19
BRANCH  18  21
ATOM     21  C   UNL     1       2.059   8.136  18.993  0.00  0.00    +0.000 C 
BRANCH  21  22
ATOM     22  O   UNL     1       2.657   7.106  18.197  0.00  0.00    +0.000 OA
BRANCH  22  23
ATOM     23  C   UNL     1       3.414   6.131  18.933  0.00  0.00    +0.000 C 
BRANCH  23  24
ATOM     24  C   UNL     1       2.525   4.979  19.384  0.00  0.00    +0.000 A 
ATOM     25  C   UNL     1       2.486   4.556  20.725  0.00  0.00    +0.000 A 
ATOM     26  C   UNL     1       1.701   3.471  21.113  0.00  0.00    +0.000 A 
ATOM     27  C   UNL     1       0.918   2.812  20.169  0.00  0.00    +0.000 A 
ATOM     28  C   UNL     1       0.926   3.230  18.840  0.00  0.00    +0.000 A 
ATOM     29  C   UNL     1       1.732   4.302  18.447  0.00  0.00    +0.000 A 
ENDBRANCH  23  24
BRANCH  23  30
ATOM     30  C   UNL     1       4.637   5.680  18.055  0.00  0.00    +0.000 C 
ATOM     31  C   UNL     1       5.160   6.885  17.237  0.00  0.00    +0.000 C 
ATOM     32  C   UNL     1       5.797   5.179  18.937  0.00  0.00    +0.000 C 
ATOM     33  C   UNL     1       4.258   4.574  17.049  0.00  0.00    +0.000 C 
ENDBRANCH  23  30
ENDBRANCH  22  23
ENDBRANCH  21  22
ENDBRANCH  18  21
ENDBRANCH   1  18
TORSDOF 11
ENDMDL
MODEL 7
REMARK VINA RESULT:      -7.5      2.464      9.647
REMARK  Name = 
REMARK  16 active torsions:
REMARK  status: ('A' for Active; 'I' for Inactive)
REMARK    1  A    between atoms: C_1  and  C_2
REMARK    2  A    between atoms: C_2  and  C_3
REMARK    3  A    between atoms: C_2  and  C_4
REMARK    4  A    between atoms: C_2  and  N_15
REMARK    5  A    between atoms: C_4  and  C_5
REMARK    6  A    between atoms: N_15  and  C_16
REMARK    7  A    between atoms: C_16  and  C_17
REMARK    8  A    between atoms: C_17  and  O_18
REMARK    9  A    between atoms: C_17  and  C_19
REMARK   10  A    between atoms: C_19  and  O_20
REMARK   11  A    between atoms: O_20  and  C_21
REMARK   12  A    between atoms: C_21  and  C_22
REMARK   13  A    between atoms: C_21  and  C_28
REMARK   14  A    between atoms: C_28  and  C_29
REMARK   15  A    between atoms: C_28  and  C_30
REMARK   16  A    between atoms: C_28  and  C_31
REMARK                            x       y       z     vdW  Elec       q    Type
REMARK                         _______ _______ _______ _____ _____    ______ ____
ROOT
ATOM      1  C   UNL     1       2.188   7.051  20.076  0.00  0.00    +0.000 C 
ENDROOT
BRANCH   1   2
ATOM      2  N   UNL     1       2.190   5.780  20.806  0.00  0.00    +0.000 NA
ATOM      3  H   UNL     1       3.019   5.741  21.402  0.00  0.00    +0.000 HD
BRANCH   2   5
ATOM      4  C   UNL     1       1.686   5.089  18.558  0.00  0.00    +0.000 C 
ATOM      5  C   UNL     1       2.085   4.566  19.953  0.00  0.00    +0.000 C 
ATOM      6  C   UNL     1       0.963   3.642  20.466  0.00  0.00    +0.000 C 
BRANCH   5   7
ATOM      7  C   UNL     1       3.466   3.829  19.906  0.00  0.00    +0.000 C 
BRANCH   7   8
ATOM      8  C   UNL     1       4.460   4.288  18.862  0.00  0.00    +0.000 A 
ATOM      9  C   UNL     1       5.473   5.199  19.181  0.00  0.00    +0.000 A 
ATOM     10  C   UNL     1       6.390   5.605  18.207  0.00  0.00    +0.000 A 
ATOM     11  C   UNL     1       6.325   5.092  16.901  0.00  0.00    +0.000 A 
ATOM     12  C   UNL     1       7.259   5.452  15.916  0.00  0.00    +0.000 A 
ATOM     13  C   UNL     1       7.191   4.903  14.634  0.00  0.00    +0.000 A 
ATOM     14  C   UNL     1       6.183   3.997  14.315  0.00  0.00    +0.000 A 
ATOM     15  C   UNL     1       5.236   3.645  15.276  0.00  0.00    +0.000 A 
ATOM     16  C   UNL     1       5.299   4.180  16.572  0.00  0.00    +0.000 A 
ATOM     17  C   UNL     1       4.365   3.810  17.549  0.00  0.00    +0.000 A 
ENDBRANCH   7   8
ENDBRANCH   5   7
ENDBRANCH   2   5
ENDBRANCH   1   2
BRANCH   1  18
ATOM     18  C   UNL     1       1.281   8.117  20.731  0.00  0.00    +0.000 C 
BRANCH  18  19
ATOM     19  O   UNL     1       1.872   8.600  21.946  0.00  0.00    +0.000 OA
ATOM     20  H   UNL     1       2.821   8.388  21.918  0.00  0.00    +0.000 HD
ENDBRANCH  18  19
BRANCH  18  21
ATOM     21  C   UNL     1       1.066   9.284  19.751  0.00  0.00    +0.000 C 
BRANCH  21  22
ATOM     22  O   UNL     1       1.069  10.521  20.472  0.00  0.00    +0.000 OA
BRANCH  22  23
ATOM     23  C   UNL     1       0.238  11.552  19.915  0.00  0.00    +0.000 C 
BRANCH  23  24
ATOM     24  C   UNL     1      -0.920  11.883  20.849  0.00  0.00    +0.000 A 
ATOM     25  C   UNL     1      -2.154  12.349  20.361  0.00  0.00    +0.000 A 
ATOM     26  C   UNL     1      -3.188  12.688  21.233  0.00  0.00    +0.000 A 
ATOM     27  C   UNL     1      -3.012  12.538  22.605  0.00  0.00    +0.000 A 
ATOM     28  C   UNL     1      -1.805  12.057  23.107  0.00  0.00    +0.000 A 
ATOM     29  C   UNL     1      -0.760  11.740  22.235  0.00  0.00    +0.000 A 
ENDBRANCH  23  24
BRANCH  23  30
ATOM     30  C   UNL     1       1.141  12.790  19.566  0.00  0.00    +0.000 C 
ATOM     31  C   UNL     1       0.246  13.994  19.188  0.00  0.00    +0.000 C 
ATOM     32  C   UNL     1       1.997  13.210  20.776  0.00  0.00    +0.000 C 
ATOM     33  C   UNL     1       2.071  12.516  18.366  0.00  0.00    +0.000 C 
ENDBRANCH  23  30
ENDBRANCH  22  23
ENDBRANCH  21  22
ENDBRANCH  18  21
ENDBRANCH   1  18
TORSDOF 11
ENDMDL
MODEL 8
REMARK VINA RESULT:      -7.4      3.042      4.068
REMARK  Name = 
REMARK  16 active torsions:
REMARK  status: ('A' for Active; 'I' for Inactive)
REMARK    1  A    between atoms: C_1  and  C_2
REMARK    2  A    between atoms: C_2  and  C_3
REMARK    3  A    between atoms: C_2  and  C_4
REMARK    4  A    between atoms: C_2  and  N_15
REMARK    5  A    between atoms: C_4  and  C_5
REMARK    6  A    between atoms: N_15  and  C_16
REMARK    7  A    between atoms: C_16  and  C_17
REMARK    8  A    between atoms: C_17  and  O_18
REMARK    9  A    between atoms: C_17  and  C_19
REMARK   10  A    between atoms: C_19  and  O_20
REMARK   11  A    between atoms: O_20  and  C_21
REMARK   12  A    between atoms: C_21  and  C_22
REMARK   13  A    between atoms: C_21  and  C_28
REMARK   14  A    between atoms: C_28  and  C_29
REMARK   15  A    between atoms: C_28  and  C_30
REMARK   16  A    between atoms: C_28  and  C_31
REMARK                            x       y       z     vdW  Elec       q    Type
REMARK                         _______ _______ _______ _____ _____    ______ ____
ROOT
ATOM      1  C   UNL     1       1.442   8.809  19.406  0.00  0.00    +0.000 C 
ENDROOT
BRANCH   1   2
ATOM      2  N   UNL     1       1.401  10.200  19.869  0.00  0.00    +0.000 NA
ATOM      3  H   UNL     1       2.166  10.353  20.528  0.00  0.00    +0.000 HD
BRANCH   2   5
ATOM      4  C   UNL     1      -0.302   9.500  21.417  0.00  0.00    +0.000 C 
ATOM      5  C   UNL     1       0.100  10.630  20.447  0.00  0.00    +0.000 C 
ATOM      6  C   UNL     1      -0.974  10.731  19.346  0.00  0.00    +0.000 C 
BRANCH   5   7
ATOM      7  C   UNL     1       0.279  11.988  21.207  0.00  0.00    +0.000 C 
BRANCH   7   8
ATOM      8  C   UNL     1       0.636  13.202  20.379  0.00  0.00    +0.000 A 
ATOM      9  C   UNL     1      -0.236  14.291  20.279  0.00  0.00    +0.000 A 
ATOM     10  C   UNL     1       0.114  15.410  19.517  0.00  0.00    +0.000 A 
ATOM     11  C   UNL     1       1.353  15.470  18.858  0.00  0.00    +0.000 A 
ATOM     12  C   UNL     1       1.746  16.599  18.120  0.00  0.00    +0.000 A 
ATOM     13  C   UNL     1       2.997  16.646  17.501  0.00  0.00    +0.000 A 
ATOM     14  C   UNL     1       3.866  15.563  17.599  0.00  0.00    +0.000 A 
ATOM     15  C   UNL     1       3.482  14.427  18.310  0.00  0.00    +0.000 A 
ATOM     16  C   UNL     1       2.233  14.370  18.947  0.00  0.00    +0.000 A 
ATOM     17  C   UNL     1       1.853  13.241  19.684  0.00  0.00    +0.000 A 
ENDBRANCH   7   8
ENDBRANCH   5   7
ENDBRANCH   2   5
ENDBRANCH   1   2
BRANCH   1  18
ATOM     18  C   UNL     1       1.775   8.689  17.902  0.00  0.00    +0.000 C 
BRANCH  18  19
ATOM     19  O   UNL     1       1.964   9.989  17.324  0.00  0.00    +0.000 OA
ATOM     20  H   UNL     1       1.092  10.320  17.050  0.00  0.00    +0.000 HD
ENDBRANCH  18  19
BRANCH  18  21
ATOM     21  C   UNL     1       3.050   7.845  17.723  0.00  0.00    +0.000 C 
BRANCH  21  22
ATOM     22  O   UNL     1       3.048   6.768  18.667  0.00  0.00    +0.000 OA
BRANCH  22  23
ATOM     23  C   UNL     1       3.208   5.459  18.097  0.00  0.00    +0.000 C 
BRANCH  23  24
ATOM     24  C   UNL     1       4.677   5.160  17.824  0.00  0.00    +0.000 A 
ATOM     25  C   UNL     1       5.686   5.511  18.740  0.00  0.00    +0.000 A 
ATOM     26  C   UNL     1       7.029   5.270  18.454  0.00  0.00    +0.000 A 
ATOM     27  C   UNL     1       7.381   4.646  17.261  0.00  0.00    +0.000 A 
ATOM     28  C   UNL     1       6.395   4.270  16.351  0.00  0.00    +0.000 A 
ATOM     29  C   UNL     1       5.050   4.534  16.626  0.00  0.00    +0.000 A 
ENDBRANCH  23  24
BRANCH  23  30
ATOM     30  C   UNL     1       2.516   4.413  19.044  0.00  0.00    +0.000 C 
ATOM     31  C   UNL     1       1.386   3.687  18.275  0.00  0.00    +0.000 C 
ATOM     32  C   UNL     1       3.519   3.342  19.514  0.00  0.00    +0.000 C 
ATOM     33  C   UNL     1       1.875   5.076  20.280  0.00  0.00    +0.000 C 
ENDBRANCH  23  30
ENDBRANCH  22  23
ENDBRANCH  21  22
ENDBRANCH  18  21
ENDBRANCH   1  18
TORSDOF 11
ENDMDL
MODEL 9
REMARK VINA RESULT:      -7.4      1.968      3.963
REMARK  Name = 
REMARK  16 active torsions:
REMARK  status: ('A' for Active; 'I' for Inactive)
REMARK    1  A    between atoms: C_1  and  C_2
REMARK    2  A    between atoms: C_2  and  C_3
REMARK    3  A    between atoms: C_2  and  C_4
REMARK    4  A    between atoms: C_2  and  N_15
REMARK    5  A    between atoms: C_4  and  C_5
REMARK    6  A    between atoms: N_15  and  C_16
REMARK    7  A    between atoms: C_16  and  C_17
REMARK    8  A    between atoms: C_17  and  O_18
REMARK    9  A    between atoms: C_17  and  C_19
REMARK   10  A    between atoms: C_19  and  O_20
REMARK   11  A    between atoms: O_20  and  C_21
REMARK   12  A    between atoms: C_21  and  C_22
REMARK   13  A    between atoms: C_21  and  C_28
REMARK   14  A    between atoms: C_28  and  C_29
REMARK   15  A    between atoms: C_28  and  C_30
REMARK   16  A    between atoms: C_28  and  C_31
REMARK                            x       y       z     vdW  Elec       q    Type
REMARK                         _______ _______ _______ _____ _____    ______ ____
ROOT
ATOM      1  C   UNL     1       1.096   9.651  19.353  0.00  0.00    +0.000 C 
ENDROOT
BRANCH   1   2
ATOM      2  N   UNL     1       0.380  10.812  18.815  0.00  0.00    +0.000 NA
ATOM      3  H   UNL     1       0.982  11.291  18.143  0.00  0.00    +0.000 HD
BRANCH   2   5
ATOM      4  C   UNL     1       1.105  12.507  20.362  0.00  0.00    +0.000 C 
ATOM      5  C   UNL     1      -0.138  11.758  19.839  0.00  0.00    +0.000 C 
ATOM      6  C   UNL     1      -0.772  10.987  21.014  0.00  0.00    +0.000 C 
BRANCH   5   7
ATOM      7  C   UNL     1      -1.158  12.748  19.180  0.00  0.00    +0.000 C 
BRANCH   7   8
ATOM      8  C   UNL     1      -2.594  12.289  19.069  0.00  0.00    +0.000 A 
ATOM      9  C   UNL     1      -3.015  11.484  18.005  0.00  0.00    +0.000 A 
ATOM     10  C   UNL     1      -4.344  11.059  17.921  0.00  0.00    +0.000 A 
ATOM     11  C   UNL     1      -5.274  11.413  18.913  0.00  0.00    +0.000 A 
ATOM     12  C   UNL     1      -6.605  10.966  18.875  0.00  0.00    +0.000 A 
ATOM     13  C   UNL     1      -7.501  11.306  19.890  0.00  0.00    +0.000 A 
ATOM     14  C   UNL     1      -7.085  12.107  20.950  0.00  0.00    +0.000 A 
ATOM     15  C   UNL     1      -5.772  12.577  20.991  0.00  0.00    +0.000 A 
ATOM     16  C   UNL     1      -4.858  12.233  19.984  0.00  0.00    +0.000 A 
ATOM     17  C   UNL     1      -3.531  12.681  20.034  0.00  0.00    +0.000 A 
ENDBRANCH   7   8
ENDBRANCH   5   7
ENDBRANCH   2   5
ENDBRANCH   1   2
BRANCH   1  18
ATOM     18  C   UNL     1       1.569   8.677  18.251  0.00  0.00    +0.000 C 
BRANCH  18  19
ATOM     19  O   UNL     1       2.330   9.377  17.255  0.00  0.00    +0.000 OA
ATOM     20  H   UNL     1       3.221   8.990  17.237  0.00  0.00    +0.000 HD
ENDBRANCH  18  19
BRANCH  18  21
ATOM     21  C   UNL     1       2.427   7.564  18.880  0.00  0.00    +0.000 C 
BRANCH  21  22
ATOM     22  O   UNL     1       3.103   6.839  17.847  0.00  0.00    +0.000 OA
BRANCH  22  23
ATOM     23  C   UNL     1       3.940   5.765  18.306  0.00  0.00    +0.000 C 
BRANCH  23  24
ATOM     24  C   UNL     1       3.104   4.551  18.695  0.00  0.00    +0.000 A 
ATOM     25  C   UNL     1       3.498   3.683  19.730  0.00  0.00    +0.000 A 
ATOM     26  C   UNL     1       2.744   2.553  20.044  0.00  0.00    +0.000 A 
ATOM     27  C   UNL     1       1.568   2.291  19.346  0.00  0.00    +0.000 A 
ATOM     28  C   UNL     1       1.150   3.150  18.334  0.00  0.00    +0.000 A 
ATOM     29  C   UNL     1       1.918   4.270  18.002  0.00  0.00    +0.000 A 
ENDBRANCH  23  24
BRANCH  23  30
ATOM     30  C   UNL     1       5.017   5.462  17.202  0.00  0.00    +0.000 C 
ATOM     31  C   UNL     1       5.016   6.598  16.152  0.00  0.00    +0.000 C 
ATOM     32  C   UNL     1       6.431   5.395  17.812  0.00  0.00    +0.000 C 
ATOM     33  C   UNL     1       4.732   4.145  16.452  0.00  0.00    +0.000 C 
ENDBRANCH  23  30
ENDBRANCH  22  23
ENDBRANCH  21  22
ENDBRANCH  18  21
ENDBRANCH   1  18
TORSDOF 11
ENDMDL
