MODEL 1
REMARK VINA RESULT:      -8.0      0.000      0.000
REMARK  Name = 
REMARK  1 active torsions:
REMARK  status: ('A' for Active; 'I' for Inactive)
REMARK    1  A    between atoms: C_7  and  C_8
REMARK                            x       y       z     vdW  Elec       q    Type
REMARK                         _______ _______ _______ _____ _____    ______ ____
ROOT
ATOM      1  C   UNL     1       5.405   4.146  16.327  0.00  0.00    +0.000 A 
ATOM      2  C   UNL     1       6.052   4.047  17.567  0.00  0.00    +0.000 A 
ATOM      3  N   UNL     1       5.477   3.804  18.769  0.00  0.00    +0.000 NA
ATOM      4  C   UNL     1       4.131   3.634  18.728  0.00  0.00    +0.000 A 
ATOM      5  C   UNL     1       3.402   3.711  17.546  0.00  0.00    +0.000 A 
ATOM      6  C   UNL     1       4.014   3.970  16.328  0.00  0.00    +0.000 A 
ATOM      7  N   UNL     1       2.088   3.482  17.864  0.00  0.00    +0.000 N 
ATOM      8  C   UNL     1       1.942   3.269  19.212  0.00  0.00    +0.000 A 
ATOM      9  C   UNL     1       0.804   3.003  19.965  0.00  0.00    +0.000 A 
ATOM     10  C   UNL     1       1.026   2.839  21.323  0.00  0.00    +0.000 A 
ATOM     11  N   UNL     1       2.234   2.918  21.924  0.00  0.00    +0.000 NA
ATOM     12  C   UNL     1       3.332   3.175  21.166  0.00  0.00    +0.000 A 
ATOM     13  C   UNL     1       3.216   3.360  19.784  0.00  0.00    +0.000 A 
ATOM     14  H   UNL     1       1.330   3.469  17.196  0.00  0.00    +0.000 HD
ENDROOT
BRANCH   1  21
ATOM     15  F   UNL     1       7.557   5.999  16.061  0.00  0.00    +0.000 F 
ATOM     16  C   UNL     1       7.184   5.306  14.972  0.00  0.00    +0.000 A 
ATOM     17  N   UNL     1       7.905   5.536  13.857  0.00  0.00    +0.000 NA
ATOM     18  C   UNL     1       7.566   4.832  12.763  0.00  0.00    +0.000 A 
ATOM     19  C   UNL     1       6.531   3.913  12.729  0.00  0.00    +0.000 A 
ATOM     20  C   UNL     1       5.802   3.703  13.892  0.00  0.00    +0.000 A 
ATOM     21  C   UNL     1       6.123   4.399  15.072  0.00  0.00    +0.000 A 
ENDBRANCH   1  21
TORSDOF 1
ENDMDL
MODEL 2
REMARK VINA RESULT:      -7.9      5.532      6.315
REMARK  Name = 
REMARK  1 active torsions:
REMARK  status: ('A' for Active; 'I' for Inactive)
REMARK    1  A    between atoms: C_7  and  C_8
REMARK                            x       y       z     vdW  Elec       q    Type
REMARK                         _______ _______ _______ _____ _____    ______ ____
ROOT
ATOM      1  C   UNL     1       2.639   7.330  18.471  0.00  0.00    +0.000 A 
ATOM      2  C   UNL     1       2.044   8.445  17.866  0.00  0.00    +0.000 A 
ATOM      3  N   UNL     1       1.250   9.369  18.461  0.00  0.00    +0.000 NA
ATOM      4  C   UNL     1       1.040   9.164  19.786  0.00  0.00    +0.000 A 
ATOM      5  C   UNL     1       1.591   8.088  20.474  0.00  0.00    +0.000 A 
ATOM      6  C   UNL     1       2.393   7.151  19.840  0.00  0.00    +0.000 A 
ATOM      7  N   UNL     1       1.188   8.195  21.781  0.00  0.00    +0.000 N 
ATOM      8  C   UNL     1       0.390   9.297  21.958  0.00  0.00    +0.000 A 
ATOM      9  C   UNL     1      -0.233   9.785  23.101  0.00  0.00    +0.000 A 
ATOM     10  C   UNL     1      -0.975  10.941  22.915  0.00  0.00    +0.000 A 
ATOM     11  N   UNL     1      -1.115  11.588  21.737  0.00  0.00    +0.000 NA
ATOM     12  C   UNL     1      -0.494  11.094  20.634  0.00  0.00    +0.000 A 
ATOM     13  C   UNL     1       0.278   9.930  20.714  0.00  0.00    +0.000 A 
ATOM     14  H   UNL     1       1.447   7.551  22.515  0.00  0.00    +0.000 HD
ENDROOT
BRANCH   1  21
ATOM     15  F   UNL     1       2.103   4.540  18.217  0.00  0.00    +0.000 F 
ATOM     16  C   UNL     1       3.204   5.027  17.621  0.00  0.00    +0.000 A 
ATOM     17  N   UNL     1       3.933   4.136  16.920  0.00  0.00    +0.000 NA
ATOM     18  C   UNL     1       5.024   4.609  16.292  0.00  0.00    +0.000 A 
ATOM     19  C   UNL     1       5.427   5.933  16.340  0.00  0.00    +0.000 A 
ATOM     20  C   UNL     1       4.659   6.825  17.076  0.00  0.00    +0.000 A 
ATOM     21  C   UNL     1       3.497   6.391  17.740  0.00  0.00    +0.000 A 
ENDBRANCH   1  21
TORSDOF 1
ENDMDL
MODEL 3
REMARK VINA RESULT:      -7.8      4.261      4.457
REMARK  Name = 
REMARK  1 active torsions:
REMARK  status: ('A' for Active; 'I' for Inactive)
REMARK    1  A    between atoms: C_7  and  C_8
REMARK                            x       y       z     vdW  Elec       q    Type
REMARK                         _______ _______ _______ _____ _____    ______ ____
ROOT
ATOM      1  C   UNL     1       4.221   6.340  17.650  0.00  0.00    +0.000 A 
ATOM      2  C   UNL     1       3.875   5.779  18.887  0.00  0.00    +0.000 A 
ATOM      3  N   UNL     1       2.995   6.276  19.789  0.00  0.00    +0.000 NA
ATOM      4  C   UNL     1       2.396   7.435  19.416  0.00  0.00    +0.000 A 
ATOM      5  C   UNL     1       2.672   8.065  18.207  0.00  0.00    +0.000 A 
ATOM      6  C   UNL     1       3.584   7.540  17.303  0.00  0.00    +0.000 A 
ATOM      7  N   UNL     1       1.892   9.192  18.150  0.00  0.00    +0.000 N 
ATOM      8  C   UNL     1       1.129   9.316  19.284  0.00  0.00    +0.000 A 
ATOM      9  C   UNL     1       0.210  10.292  19.650  0.00  0.00    +0.000 A 
ATOM     10  C   UNL     1      -0.387  10.100  20.886  0.00  0.00    +0.000 A 
ATOM     11  N   UNL     1      -0.133   9.062  21.714  0.00  0.00    +0.000 NA
ATOM     12  C   UNL     1       0.768   8.119  21.333  0.00  0.00    +0.000 A 
ATOM     13  C   UNL     1       1.427   8.221  20.104  0.00  0.00    +0.000 A 
ATOM     14  H   UNL     1       1.878   9.841  17.376  0.00  0.00    +0.000 HD
ENDROOT
BRANCH   1  21
ATOM     15  F   UNL     1       6.873   7.294  17.216  0.00  0.00    +0.000 F 
ATOM     16  C   UNL     1       6.481   6.197  16.547  0.00  0.00    +0.000 A 
ATOM     17  N   UNL     1       7.413   5.630  15.756  0.00  0.00    +0.000 NA
ATOM     18  C   UNL     1       7.050   4.514  15.099  0.00  0.00    +0.000 A 
ATOM     19  C   UNL     1       5.792   3.943  15.189  0.00  0.00    +0.000 A 
ATOM     20  C   UNL     1       4.852   4.554  16.007  0.00  0.00    +0.000 A 
ATOM     21  C   UNL     1       5.180   5.715  16.732  0.00  0.00    +0.000 A 
ENDBRANCH   1  21
TORSDOF 1
ENDMDL
MODEL 4
REMARK VINA RESULT:      -7.7      5.271      6.022
REMARK  Name = 
REMARK  1 active torsions:
REMARK  status: ('A' for Active; 'I' for Inactive)
REMARK    1  A    between atoms: C_7  and  C_8
REMARK                            x       y       z     vdW  Elec       q    Type
REMARK                         _______ _______ _______ _____ _____    ______ ____
ROOT
ATOM      1  C   UNL     1       2.709   7.031  18.473  0.00  0.00    +0.000 A 
ATOM      2  C   UNL     1       2.237   8.191  17.843  0.00  0.00    +0.000 A 
ATOM      3  N   UNL     1       1.506   9.184  18.405  0.00  0.00    +0.000 NA
ATOM      4  C   UNL     1       1.230   9.006  19.722  0.00  0.00    +0.000 A 
ATOM      5  C   UNL     1       1.658   7.890  20.433  0.00  0.00    +0.000 A 
ATOM      6  C   UNL     1       2.398   6.883  19.832  0.00  0.00    +0.000 A 
ATOM      7  N   UNL     1       1.218   8.039  21.724  0.00  0.00    +0.000 N 
ATOM      8  C   UNL     1       0.513   9.208  21.868  0.00  0.00    +0.000 A 
ATOM      9  C   UNL     1      -0.107   9.755  22.986  0.00  0.00    +0.000 A 
ATOM     10  C   UNL     1      -0.737  10.970  22.769  0.00  0.00    +0.000 A 
ATOM     11  N   UNL     1      -0.776  11.620  21.585  0.00  0.00    +0.000 NA
ATOM     12  C   UNL     1      -0.160  11.067  20.507  0.00  0.00    +0.000 A 
ATOM     13  C   UNL     1       0.503   9.841  20.619  0.00  0.00    +0.000 A 
ATOM     14  H   UNL     1       1.392   7.379  22.469  0.00  0.00    +0.000 HD
ENDROOT
BRANCH   1  21
ATOM     15  F   UNL     1       5.306   7.504  17.394  0.00  0.00    +0.000 F 
ATOM     16  C   UNL     1       4.786   6.272  17.268  0.00  0.00    +0.000 A 
ATOM     17  N   UNL     1       5.579   5.362  16.668  0.00  0.00    +0.000 NA
ATOM     18  C   UNL     1       5.088   4.115  16.556  0.00  0.00    +0.000 A 
ATOM     19  C   UNL     1       3.836   3.736  17.009  0.00  0.00    +0.000 A 
ATOM     20  C   UNL     1       3.041   4.698  17.618  0.00  0.00    +0.000 A 
ATOM     21  C   UNL     1       3.508   6.016  17.777  0.00  0.00    +0.000 A 
ENDBRANCH   1  21
TORSDOF 1
ENDMDL
MODEL 5
REMARK VINA RESULT:      -7.7      6.072      6.802
REMARK  Name = 
REMARK  1 active torsions:
REMARK  status: ('A' for Active; 'I' for Inactive)
REMARK    1  A    between atoms: C_7  and  C_8
REMARK                            x       y       z     vdW  Elec       q    Type
REMARK                         _______ _______ _______ _____ _____    ______ ____
ROOT
ATOM      1  C   UNL     1       2.543   7.208  18.544  0.00  0.00    +0.000 A 
ATOM      2  C   UNL     1       2.167   7.240  19.894  0.00  0.00    +0.000 A 
ATOM      3  N   UNL     1       1.477   8.221  20.524  0.00  0.00    +0.000 NA
ATOM      4  C   UNL     1       1.121   9.263  19.730  0.00  0.00    +0.000 A 
ATOM      5  C   UNL     1       1.447   9.319  18.379  0.00  0.00    +0.000 A 
ATOM      6  C   UNL     1       2.162   8.305  17.758  0.00  0.00    +0.000 A 
ATOM      7  N   UNL     1       0.928  10.490  17.886  0.00  0.00    +0.000 N 
ATOM      8  C   UNL     1       0.288  11.194  18.874  0.00  0.00    +0.000 A 
ATOM      9  C   UNL     1      -0.372  12.417  18.827  0.00  0.00    +0.000 A 
ATOM     10  C   UNL     1      -0.913  12.838  20.031  0.00  0.00    +0.000 A 
ATOM     11  N   UNL     1      -0.837  12.153  21.193  0.00  0.00    +0.000 NA
ATOM     12  C   UNL     1      -0.189  10.958  21.214  0.00  0.00    +0.000 A 
ATOM     13  C   UNL     1       0.394  10.444  20.051  0.00  0.00    +0.000 A 
ATOM     14  H   UNL     1       1.005  10.791  16.924  0.00  0.00    +0.000 HD
ENDROOT
BRANCH   1  21
ATOM     15  F   UNL     1       1.455   4.600  18.161  0.00  0.00    +0.000 F 
ATOM     16  C   UNL     1       2.719   4.820  17.762  0.00  0.00    +0.000 A 
ATOM     17  N   UNL     1       3.338   3.776  17.176  0.00  0.00    +0.000 NA
ATOM     18  C   UNL     1       4.595   3.984  16.744  0.00  0.00    +0.000 A 
ATOM     19  C   UNL     1       5.266   5.187  16.879  0.00  0.00    +0.000 A 
ATOM     20  C   UNL     1       4.604   6.242  17.493  0.00  0.00    +0.000 A 
ATOM     21  C   UNL     1       3.282   6.088  17.950  0.00  0.00    +0.000 A 
ENDBRANCH   1  21
TORSDOF 1
ENDMDL
MODEL 6
REMARK VINA RESULT:      -7.6      1.201      1.269
REMARK  Name = 
REMARK  1 active torsions:
REMARK  status: ('A' for Active; 'I' for Inactive)
REMARK    1  A    between atoms: C_7  and  C_8
REMARK                            x       y       z     vdW  Elec       q    Type
REMARK                         _______ _______ _______ _____ _____    ______ ____
ROOT
ATOM      1  C   UNL     1       5.138   4.535  15.842  0.00  0.00    +0.000 A 
ATOM      2  C   UNL     1       4.774   5.682  16.560  0.00  0.00    +0.000 A 
ATOM      3  N   UNL     1       4.018   5.734  17.684  0.00  0.00    +0.000 NA
ATOM      4  C   UNL     1       3.595   4.527  18.137  0.00  0.00    +0.000 A 
ATOM      5  C   UNL     1       3.908   3.334  17.495  0.00  0.00    +0.000 A 
ATOM      6  C   UNL     1       4.677   3.308  16.340  0.00  0.00    +0.000 A 
ATOM      7  N   UNL     1       3.336   2.320  18.220  0.00  0.00    +0.000 N 
ATOM      8  C   UNL     1       2.657   2.819  19.304  0.00  0.00    +0.000 A 
ATOM      9  C   UNL     1       1.937   2.163  20.296  0.00  0.00    +0.000 A 
ATOM     10  C   UNL     1       1.372   2.991  21.253  0.00  0.00    +0.000 A 
ATOM     11  N   UNL     1       1.482   4.338  21.272  0.00  0.00    +0.000 NA
ATOM     12  C   UNL     1       2.194   4.956  20.293  0.00  0.00    +0.000 A 
ATOM     13  C   UNL     1       2.802   4.211  19.277  0.00  0.00    +0.000 A 
ATOM     14  H   UNL     1       3.407   1.339  17.990  0.00  0.00    +0.000 HD
ENDROOT
BRANCH   1  21
ATOM     15  F   UNL     1       7.587   5.985  15.653  0.00  0.00    +0.000 F 
ATOM     16  C   UNL     1       7.180   5.292  14.577  0.00  0.00    +0.000 A 
ATOM     17  N   UNL     1       8.008   5.324  13.514  0.00  0.00    +0.000 NA
ATOM     18  C   UNL     1       7.634   4.614  12.435  0.00  0.00    +0.000 A 
ATOM     19  C   UNL     1       6.463   3.879  12.366  0.00  0.00    +0.000 A 
ATOM     20  C   UNL     1       5.628   3.870  13.475  0.00  0.00    +0.000 A 
ATOM     21  C   UNL     1       5.976   4.582  14.638  0.00  0.00    +0.000 A 
ENDBRANCH   1  21
TORSDOF 1
ENDMDL
MODEL 7
REMARK VINA RESULT:      -7.6      5.802      6.789
REMARK  Name = 
REMARK  1 active torsions:
REMARK  status: ('A' for Active; 'I' for Inactive)
REMARK    1  A    between atoms: C_7  and  C_8
REMARK                            x       y       z     vdW  Elec       q    Type
REMARK                         _______ _______ _______ _____ _____    ______ ____
ROOT
ATOM      1  C   UNL     1       2.362   6.685  18.955  0.00  0.00    +0.000 A 
ATOM      2  C   UNL     1       1.925   6.904  20.269  0.00  0.00    +0.000 A 
ATOM      3  N   UNL     1       1.425   8.054  20.780  0.00  0.00    +0.000 NA
ATOM      4  C   UNL     1       1.346   9.080  19.894  0.00  0.00    +0.000 A 
ATOM      5  C   UNL     1       1.752   8.958  18.570  0.00  0.00    +0.000 A 
ATOM      6  C   UNL     1       2.269   7.771  18.072  0.00  0.00    +0.000 A 
ATOM      7  N   UNL     1       1.525  10.167  17.964  0.00  0.00    +0.000 N 
ATOM      8  C   UNL     1       0.994  11.067  18.853  0.00  0.00    +0.000 A 
ATOM      9  C   UNL     1       0.614  12.393  18.677  0.00  0.00    +0.000 A 
ATOM     10  C   UNL     1       0.108  13.013  19.808  0.00  0.00    +0.000 A 
ATOM     11  N   UNL     1      -0.031  12.423  21.016  0.00  0.00    +0.000 NA
ATOM     12  C   UNL     1       0.344  11.125  21.163  0.00  0.00    +0.000 A 
ATOM     13  C   UNL     1       0.870  10.409  20.083  0.00  0.00    +0.000 A 
ATOM     14  H   UNL     1       1.719  10.367  16.992  0.00  0.00    +0.000 HD
ENDROOT
BRANCH   1  21
ATOM     15  F   UNL     1       4.944   5.665  19.607  0.00  0.00    +0.000 F 
ATOM     16  C   UNL     1       4.145   4.910  18.837  0.00  0.00    +0.000 A 
ATOM     17  N   UNL     1       4.642   3.709  18.479  0.00  0.00    +0.000 NA
ATOM     18  C   UNL     1       3.846   2.924  17.731  0.00  0.00    +0.000 A 
ATOM     19  C   UNL     1       2.577   3.289  17.315  0.00  0.00    +0.000 A 
ATOM     20  C   UNL     1       2.095   4.534  17.695  0.00  0.00    +0.000 A 
ATOM     21  C   UNL     1       2.877   5.391  18.492  0.00  0.00    +0.000 A 
ENDBRANCH   1  21
TORSDOF 1
ENDMDL
MODEL 8
REMARK VINA RESULT:      -7.6      5.917      6.595
REMARK  Name = 
REMARK  1 active torsions:
REMARK  status: ('A' for Active; 'I' for Inactive)
REMARK    1  A    between atoms: C_7  and  C_8
REMARK                            x       y       z     vdW  Elec       q    Type
REMARK                         _______ _______ _______ _____ _____    ______ ____
ROOT
ATOM      1  C   UNL     1       2.521   7.145  18.518  0.00  0.00    +0.000 A 
ATOM      2  C   UNL     1       2.173   7.176  19.875  0.00  0.00    +0.000 A 
ATOM      3  N   UNL     1       1.536   8.176  20.530  0.00  0.00    +0.000 NA
ATOM      4  C   UNL     1       1.205   9.240  19.755  0.00  0.00    +0.000 A 
ATOM      5  C   UNL     1       1.505   9.299  18.398  0.00  0.00    +0.000 A 
ATOM      6  C   UNL     1       2.167   8.265  17.752  0.00  0.00    +0.000 A 
ATOM      7  N   UNL     1       1.024  10.495  17.929  0.00  0.00    +0.000 N 
ATOM      8  C   UNL     1       0.432  11.212  18.938  0.00  0.00    +0.000 A 
ATOM      9  C   UNL     1      -0.180  12.461  18.917  0.00  0.00    +0.000 A 
ATOM     10  C   UNL     1      -0.679  12.888  20.137  0.00  0.00    +0.000 A 
ATOM     11  N   UNL     1      -0.607  12.187  21.290  0.00  0.00    +0.000 NA
ATOM     12  C   UNL     1      -0.007  10.968  21.285  0.00  0.00    +0.000 A 
ATOM     13  C   UNL     1       0.532  10.445  20.104  0.00  0.00    +0.000 A 
ATOM     14  H   UNL     1       1.093  10.804  16.969  0.00  0.00    +0.000 HD
ENDROOT
BRANCH   1  21
ATOM     15  F   UNL     1       5.158   7.251  17.438  0.00  0.00    +0.000 F 
ATOM     16  C   UNL     1       4.502   6.080  17.384  0.00  0.00    +0.000 A 
ATOM     17  N   UNL     1       5.187   5.049  16.851  0.00  0.00    +0.000 NA
ATOM     18  C   UNL     1       4.559   3.861  16.813  0.00  0.00    +0.000 A 
ATOM     19  C   UNL     1       3.270   3.657  17.276  0.00  0.00    +0.000 A 
ATOM     20  C   UNL     1       2.588   4.739  17.815  0.00  0.00    +0.000 A 
ATOM     21  C   UNL     1       3.202   6.003  17.896  0.00  0.00    +0.000 A 
ENDBRANCH   1  21
TORSDOF 1
ENDMDL
MODEL 9
REMARK VINA RESULT:      -7.4      5.242      5.716
REMARK  Name = 
REMARK  1 active torsions:
REMARK  status: ('A' for Active; 'I' for Inactive)
REMARK    1  A    between atoms: C_7  and  C_8
REMARK                            x       y       z     vdW  Elec       q    Type
REMARK                         _______ _______ _______ _____ _____    ______ ____
ROOT
ATOM      1  C   UNL     1       3.600   6.787  18.036  0.00  0.00    +0.000 A 
ATOM      2  C   UNL     1       3.053   6.512  19.297  0.00  0.00    +0.000 A 
ATOM      3  N   UNL     1       2.153   7.263  19.976  0.00  0.00    +0.000 NA
ATOM      4  C   UNL     1       1.755   8.389  19.331  0.00  0.00    +0.000 A 
ATOM      5  C   UNL     1       2.238   8.745  18.077  0.00  0.00    +0.000 A 
ATOM      6  C   UNL     1       3.166   7.963  17.405  0.00  0.00    +0.000 A 
ATOM      7  N   UNL     1       1.623   9.919  17.724  0.00  0.00    +0.000 N 
ATOM      8  C   UNL     1       0.765  10.337  18.710  0.00  0.00    +0.000 A 
ATOM      9  C   UNL     1      -0.053  11.459  18.777  0.00  0.00    +0.000 A 
ATOM     10  C   UNL     1      -0.799  11.570  19.940  0.00  0.00    +0.000 A 
ATOM     11  N   UNL     1      -0.773  10.687  20.962  0.00  0.00    +0.000 NA
ATOM     12  C   UNL     1       0.033   9.596  20.872  0.00  0.00    +0.000 A 
ATOM     13  C   UNL     1       0.828   9.391  19.740  0.00  0.00    +0.000 A 
ATOM     14  H   UNL     1       1.777  10.407  16.852  0.00  0.00    +0.000 HD
ENDROOT
BRANCH   1  21
ATOM     15  F   UNL     1       3.007   4.127  17.196  0.00  0.00    +0.000 F 
ATOM     16  C   UNL     1       4.242   4.602  16.961  0.00  0.00    +0.000 A 
ATOM     17  N   UNL     1       5.074   3.768  16.306  0.00  0.00    +0.000 NA
ATOM     18  C   UNL     1       6.306   4.234  16.036  0.00  0.00    +0.000 A 
ATOM     19  C   UNL     1       6.749   5.494  16.400  0.00  0.00    +0.000 A 
ATOM     20  C   UNL     1       5.871   6.327  17.079  0.00  0.00    +0.000 A 
ATOM     21  C   UNL     1       4.563   5.900  17.374  0.00  0.00    +0.000 A 
ENDBRANCH   1  21
TORSDOF 1
ENDMDL
