MODEL 1
REMARK VINA RESULT:      -6.9      0.000      0.000
REMARK  Name = 
REMARK  5 active torsions:
REMARK  status: ('A' for Active; 'I' for Inactive)
REMARK    1  A    between atoms: C_1  and  C_2
REMARK    2  A    between atoms: C_2  and  C_3
REMARK    3  A    between atoms: N_10  and  C_11
REMARK    4  A    between atoms: C_17  and  C_18
REMARK    5  A    between atoms: N_25  and  C_26
REMARK                            x       y       z     vdW  Elec       q    Type
REMARK                         _______ _______ _______ _____ _____    ______ ____
ROOT
ATOM      1  C   UNL     1      -0.818  17.659  21.362  0.00  0.00    +0.000 C 
ATOM      2  C   UNL     1      -0.137  16.280  21.285  0.00  0.00    +0.000 C 
ATOM      3  C   UNL     1       0.404  15.925  22.682  0.00  0.00    +0.000 C 
ATOM      4  C   UNL     1       0.988  16.321  20.250  0.00  0.00    +0.000 C 
ATOM      5  C   UNL     1       1.579  14.948  20.029  0.00  0.00    +0.000 C 
ATOM      6  O   UNL     1       2.769  14.810  19.760  0.00  0.00    +0.000 OA
ATOM      7  C   UNL     1       0.669  13.759  20.078  0.00  0.00    +0.000 C 
ATOM      8  C   UNL     1      -0.628  13.886  20.405  0.00  0.00    +0.000 C 
ATOM      9  C   UNL     1      -1.175  15.244  20.823  0.00  0.00    +0.000 C 
ATOM     10  N   UNL     1      -1.471  12.760  20.407  0.00  0.00    +0.000 N 
ATOM     11  C   UNL     1      -0.991  11.424  19.926  0.00  0.00    +0.000 C 
ATOM     12  N   UNL     1       0.437  11.333  19.576  0.00  0.00    +0.000 N 
ATOM     13  C   UNL     1       1.333  12.475  19.724  0.00  0.00    +0.000 C 
ENDROOT
BRANCH  11  14
ATOM     14  C   UNL     1      -1.823  11.012  18.697  0.00  0.00    +0.000 A 
ATOM     15  C   UNL     1      -2.623   9.854  18.734  0.00  0.00    +0.000 A 
ATOM     16  C   UNL     1      -3.278   9.410  17.588  0.00  0.00    +0.000 A 
ATOM     17  C   UNL     1      -3.151  10.132  16.412  0.00  0.00    +0.000 A 
ATOM     18  F   UNL     1      -3.759   9.692  15.301  0.00  0.00    +0.000 F 
ATOM     19  C   UNL     1      -2.398  11.298  16.359  0.00  0.00    +0.000 A 
ATOM     20  C   UNL     1      -1.731  11.741  17.497  0.00  0.00    +0.000 A 
ENDBRANCH  11  14
BRANCH  10  21
ATOM     21  C   UNL     1      -2.877  12.801  20.691  0.00  0.00    +0.000 A 
ATOM     22  C   UNL     1      -3.369  12.666  22.002  0.00  0.00    +0.000 A 
ATOM     23  C   UNL     1      -4.738  12.655  22.288  0.00  0.00    +0.000 A 
ATOM     24  C   UNL     1      -5.657  12.866  21.270  0.00  0.00    +0.000 A 
ATOM     25  C   UNL     1      -5.204  13.072  19.971  0.00  0.00    +0.000 A 
ATOM     26  C   UNL     1      -3.834  13.017  19.682  0.00  0.00    +0.000 A 
ENDBRANCH  10  21
BRANCH  12  27
ATOM     27  C   UNL     1       1.033  10.095  19.277  0.00  0.00    +0.000 A 
ATOM     28  C   UNL     1       1.163   9.087  20.252  0.00  0.00    +0.000 A 
ATOM     29  C   UNL     1       1.792   7.862  19.987  0.00  0.00    +0.000 A 
ATOM     30  C   UNL     1       2.309   7.603  18.726  0.00  0.00    +0.000 A 
ATOM     31  C   UNL     1       2.186   8.567  17.734  0.00  0.00    +0.000 A 
ATOM     32  C   UNL     1       1.556   9.789  18.008  0.00  0.00    +0.000 A 
ENDBRANCH  12  27
TORSDOF 3
ENDMDL
MODEL 2
REMARK VINA RESULT:      -6.9      8.522     11.657
REMARK  Name = 
REMARK  5 active torsions:
REMARK  status: ('A' for Active; 'I' for Inactive)
REMARK    1  A    between atoms: C_1  and  C_2
REMARK    2  A    between atoms: C_2  and  C_3
REMARK    3  A    between atoms: N_10  and  C_11
REMARK    4  A    between atoms: C_17  and  C_18
REMARK    5  A    between atoms: N_25  and  C_26
REMARK                            x       y       z     vdW  Elec       q    Type
REMARK                         _______ _______ _______ _____ _____    ______ ____
ROOT
ATOM      1  C   UNL     1      11.535  12.989  16.900  0.00  0.00    +0.000 C 
ATOM      2  C   UNL     1      11.097  12.527  18.301  0.00  0.00    +0.000 C 
ATOM      3  C   UNL     1      12.333  11.995  19.048  0.00  0.00    +0.000 C 
ATOM      4  C   UNL     1      10.020  11.449  18.172  0.00  0.00    +0.000 C 
ATOM      5  C   UNL     1       9.449  11.081  19.522  0.00  0.00    +0.000 C 
ATOM      6  O   UNL     1       9.071   9.937  19.756  0.00  0.00    +0.000 OA
ATOM      7  C   UNL     1       9.290  12.157  20.551  0.00  0.00    +0.000 C 
ATOM      8  C   UNL     1       9.730  13.408  20.328  0.00  0.00    +0.000 C 
ATOM      9  C   UNL     1      10.486  13.727  19.045  0.00  0.00    +0.000 C 
ATOM     10  N   UNL     1       9.534  14.411  21.295  0.00  0.00    +0.000 N 
ATOM     11  C   UNL     1       8.728  14.156  22.532  0.00  0.00    +0.000 C 
ATOM     12  N   UNL     1       8.264  12.772  22.734  0.00  0.00    +0.000 N 
ATOM     13  C   UNL     1       8.605  11.709  21.795  0.00  0.00    +0.000 C 
ENDROOT
BRANCH  11  14
ATOM     14  C   UNL     1       7.500  15.086  22.522  0.00  0.00    +0.000 A 
ATOM     15  C   UNL     1       7.384  16.122  23.468  0.00  0.00    +0.000 A 
ATOM     16  C   UNL     1       6.221  16.885  23.542  0.00  0.00    +0.000 A 
ATOM     17  C   UNL     1       5.184  16.627  22.660  0.00  0.00    +0.000 A 
ATOM     18  F   UNL     1       4.053  17.343  22.747  0.00  0.00    +0.000 F 
ATOM     19  C   UNL     1       5.288  15.635  21.694  0.00  0.00    +0.000 A 
ATOM     20  C   UNL     1       6.443  14.861  21.622  0.00  0.00    +0.000 A 
ENDBRANCH  11  14
BRANCH  10  21
ATOM     21  C   UNL     1       9.921  15.783  21.128  0.00  0.00    +0.000 A 
ATOM     22  C   UNL     1       9.273  16.625  20.206  0.00  0.00    +0.000 A 
ATOM     23  C   UNL     1       9.671  17.949  19.999  0.00  0.00    +0.000 A 
ATOM     24  C   UNL     1      10.681  18.496  20.777  0.00  0.00    +0.000 A 
ATOM     25  C   UNL     1      11.297  17.713  21.747  0.00  0.00    +0.000 A 
ATOM     26  C   UNL     1      10.937  16.368  21.905  0.00  0.00    +0.000 A 
ENDBRANCH  10  21
BRANCH  12  27
ATOM     27  C   UNL     1       7.649  12.382  23.935  0.00  0.00    +0.000 A 
ATOM     28  C   UNL     1       8.195  12.724  25.188  0.00  0.00    +0.000 A 
ATOM     29  C   UNL     1       7.621  12.310  26.398  0.00  0.00    +0.000 A 
ATOM     30  C   UNL     1       6.469  11.537  26.392  0.00  0.00    +0.000 A 
ATOM     31  C   UNL     1       5.891  11.192  25.178  0.00  0.00    +0.000 A 
ATOM     32  C   UNL     1       6.473  11.612  23.973  0.00  0.00    +0.000 A 
ENDBRANCH  12  27
TORSDOF 3
ENDMDL
MODEL 3
REMARK VINA RESULT:      -6.9      8.660     11.701
REMARK  Name = 
REMARK  5 active torsions:
REMARK  status: ('A' for Active; 'I' for Inactive)
REMARK    1  A    between atoms: C_1  and  C_2
REMARK    2  A    between atoms: C_2  and  C_3
REMARK    3  A    between atoms: N_10  and  C_11
REMARK    4  A    between atoms: C_17  and  C_18
REMARK    5  A    between atoms: N_25  and  C_26
REMARK                            x       y       z     vdW  Elec       q    Type
REMARK                         _______ _______ _______ _____ _____    ______ ____
ROOT
ATOM      1  C   UNL     1      11.521  13.044  16.812  0.00  0.00    +0.000 C 
ATOM      2  C   UNL     1      11.093  12.550  18.206  0.00  0.00    +0.000 C 
ATOM      3  C   UNL     1      12.332  11.986  18.925  0.00  0.00    +0.000 C 
ATOM      4  C   UNL     1      10.004  11.487  18.060  0.00  0.00    +0.000 C 
ATOM      5  C   UNL     1       9.443  11.090  19.406  0.00  0.00    +0.000 C 
ATOM      6  O   UNL     1       9.056   9.943  19.615  0.00  0.00    +0.000 OA
ATOM      7  C   UNL     1       9.307  12.141  20.465  0.00  0.00    +0.000 C 
ATOM      8  C   UNL     1       9.756  13.392  20.269  0.00  0.00    +0.000 C 
ATOM      9  C   UNL     1      10.502  13.736  18.986  0.00  0.00    +0.000 C 
ATOM     10  N   UNL     1       9.582  14.371  21.263  0.00  0.00    +0.000 N 
ATOM     11  C   UNL     1       8.786  14.092  22.503  0.00  0.00    +0.000 C 
ATOM     12  N   UNL     1       8.310  12.709  22.673  0.00  0.00    +0.000 N 
ATOM     13  C   UNL     1       8.630  11.667  21.703  0.00  0.00    +0.000 C 
ENDROOT
BRANCH  11  14
ATOM     14  C   UNL     1       7.568  15.035  22.529  0.00  0.00    +0.000 A 
ATOM     15  C   UNL     1       6.525  14.877  21.595  0.00  0.00    +0.000 A 
ATOM     16  C   UNL     1       5.485  15.801  21.535  0.00  0.00    +0.000 A 
ATOM     17  C   UNL     1       5.473  16.868  22.418  0.00  0.00    +0.000 A 
ATOM     18  F   UNL     1       4.486  17.773  22.344  0.00  0.00    +0.000 F 
ATOM     19  C   UNL     1       6.470  17.025  23.373  0.00  0.00    +0.000 A 
ATOM     20  C   UNL     1       7.519  16.113  23.431  0.00  0.00    +0.000 A 
ENDBRANCH  11  14
BRANCH  10  21
ATOM     21  C   UNL     1       9.980  15.743  21.128  0.00  0.00    +0.000 A 
ATOM     22  C   UNL     1       9.378  16.597  20.186  0.00  0.00    +0.000 A 
ATOM     23  C   UNL     1       9.790  17.922  20.010  0.00  0.00    +0.000 A 
ATOM     24  C   UNL     1      10.767  18.457  20.838  0.00  0.00    +0.000 A 
ATOM     25  C   UNL     1      11.335  17.662  21.828  0.00  0.00    +0.000 A 
ATOM     26  C   UNL     1      10.963  16.316  21.956  0.00  0.00    +0.000 A 
ENDBRANCH  10  21
BRANCH  12  27
ATOM     27  C   UNL     1       7.703  12.294  23.871  0.00  0.00    +0.000 A 
ATOM     28  C   UNL     1       6.526  11.520  23.870  0.00  0.00    +0.000 A 
ATOM     29  C   UNL     1       5.881  11.131  25.052  0.00  0.00    +0.000 A 
ATOM     30  C   UNL     1       6.401  11.502  26.283  0.00  0.00    +0.000 A 
ATOM     31  C   UNL     1       7.568  12.252  26.326  0.00  0.00    +0.000 A 
ATOM     32  C   UNL     1       8.206  12.637  25.138  0.00  0.00    +0.000 A 
ENDBRANCH  12  27
TORSDOF 3
ENDMDL
MODEL 4
REMARK VINA RESULT:      -6.7      0.202      1.220
REMARK  Name = 
REMARK  5 active torsions:
REMARK  status: ('A' for Active; 'I' for Inactive)
REMARK    1  A    between atoms: C_1  and  C_2
REMARK    2  A    between atoms: C_2  and  C_3
REMARK    3  A    between atoms: N_10  and  C_11
REMARK    4  A    between atoms: C_17  and  C_18
REMARK    5  A    between atoms: N_25  and  C_26
REMARK                            x       y       z     vdW  Elec       q    Type
REMARK                         _______ _______ _______ _____ _____    ______ ____
ROOT
ATOM      1  C   UNL     1      -0.728  17.556  21.275  0.00  0.00    +0.000 C 
ATOM      2  C   UNL     1      -0.066  16.167  21.237  0.00  0.00    +0.000 C 
ATOM      3  C   UNL     1       0.410  15.814  22.658  0.00  0.00    +0.000 C 
ATOM      4  C   UNL     1       1.102  16.182  20.249  0.00  0.00    +0.000 C 
ATOM      5  C   UNL     1       1.680  14.799  20.063  0.00  0.00    +0.000 C 
ATOM      6  O   UNL     1       2.878  14.640  19.846  0.00  0.00    +0.000 OA
ATOM      7  C   UNL     1       0.751  13.625  20.082  0.00  0.00    +0.000 C 
ATOM      8  C   UNL     1      -0.557  13.773  20.353  0.00  0.00    +0.000 C 
ATOM      9  C   UNL     1      -1.100  15.143  20.738  0.00  0.00    +0.000 C 
ATOM     10  N   UNL     1      -1.417  12.660  20.327  0.00  0.00    +0.000 N 
ATOM     11  C   UNL     1      -0.938  11.313  19.877  0.00  0.00    +0.000 C 
ATOM     12  N   UNL     1       0.502  11.198  19.587  0.00  0.00    +0.000 N 
ATOM     13  C   UNL     1       1.409  12.327  19.765  0.00  0.00    +0.000 C 
ENDROOT
BRANCH  11  14
ATOM     14  C   UNL     1      -1.724  10.906  18.616  0.00  0.00    +0.000 A 
ATOM     15  C   UNL     1      -1.608  11.657  17.431  0.00  0.00    +0.000 A 
ATOM     16  C   UNL     1      -2.409  11.368  16.329  0.00  0.00    +0.000 A 
ATOM     17  C   UNL     1      -3.310  10.318  16.403  0.00  0.00    +0.000 A 
ATOM     18  F   UNL     1      -4.101  10.055  15.352  0.00  0.00    +0.000 F 
ATOM     19  C   UNL     1      -3.417   9.539  17.547  0.00  0.00    +0.000 A 
ATOM     20  C   UNL     1      -2.628   9.830  18.656  0.00  0.00    +0.000 A 
ENDBRANCH  11  14
BRANCH  10  21
ATOM     21  C   UNL     1      -2.833  12.725  20.551  0.00  0.00    +0.000 A 
ATOM     22  C   UNL     1      -3.741  12.895  19.490  0.00  0.00    +0.000 A 
ATOM     23  C   UNL     1      -5.119  13.008  19.700  0.00  0.00    +0.000 A 
ATOM     24  C   UNL     1      -5.637  12.869  20.980  0.00  0.00    +0.000 A 
ATOM     25  C   UNL     1      -4.774  12.631  22.044  0.00  0.00    +0.000 A 
ATOM     26  C   UNL     1      -3.389  12.582  21.836  0.00  0.00    +0.000 A 
ENDBRANCH  10  21
BRANCH  12  27
ATOM     27  C   UNL     1       1.090   9.950  19.322  0.00  0.00    +0.000 A 
ATOM     28  C   UNL     1       1.210   8.966  20.323  0.00  0.00    +0.000 A 
ATOM     29  C   UNL     1       1.831   7.730  20.092  0.00  0.00    +0.000 A 
ATOM     30  C   UNL     1       2.351   7.436  18.840  0.00  0.00    +0.000 A 
ATOM     31  C   UNL     1       2.239   8.374  17.823  0.00  0.00    +0.000 A 
ATOM     32  C   UNL     1       1.616   9.607  18.064  0.00  0.00    +0.000 A 
ENDBRANCH  12  27
TORSDOF 3
ENDMDL
MODEL 5
REMARK VINA RESULT:      -6.6      3.627      7.855
REMARK  Name = 
REMARK  5 active torsions:
REMARK  status: ('A' for Active; 'I' for Inactive)
REMARK    1  A    between atoms: C_1  and  C_2
REMARK    2  A    between atoms: C_2  and  C_3
REMARK    3  A    between atoms: N_10  and  C_11
REMARK    4  A    between atoms: C_17  and  C_18
REMARK    5  A    between atoms: N_25  and  C_26
REMARK                            x       y       z     vdW  Elec       q    Type
REMARK                         _______ _______ _______ _____ _____    ______ ____
ROOT
ATOM      1  C   UNL     1      -2.563  10.471  15.709  0.00  0.00    +0.000 C 
ATOM      2  C   UNL     1      -3.474  10.654  16.936  0.00  0.00    +0.000 C 
ATOM      3  C   UNL     1      -3.741   9.270  17.556  0.00  0.00    +0.000 C 
ATOM      4  C   UNL     1      -4.777  11.332  16.511  0.00  0.00    +0.000 C 
ATOM      5  C   UNL     1      -5.633  11.673  17.708  0.00  0.00    +0.000 C 
ATOM      6  O   UNL     1      -6.858  11.647  17.634  0.00  0.00    +0.000 OA
ATOM      7  C   UNL     1      -4.958  12.109  18.971  0.00  0.00    +0.000 C 
ATOM      8  C   UNL     1      -3.619  12.110  19.084  0.00  0.00    +0.000 C 
ATOM      9  C   UNL     1      -2.763  11.574  17.943  0.00  0.00    +0.000 C 
ATOM     10  N   UNL     1      -3.007  12.560  20.267  0.00  0.00    +0.000 N 
ATOM     11  C   UNL     1      -3.809  13.167  21.379  0.00  0.00    +0.000 C 
ATOM     12  N   UNL     1      -5.272  13.148  21.211  0.00  0.00    +0.000 N 
ATOM     13  C   UNL     1      -5.898  12.539  20.043  0.00  0.00    +0.000 C 
ENDROOT
BRANCH  11  14
ATOM     14  C   UNL     1      -3.359  14.628  21.572  0.00  0.00    +0.000 A 
ATOM     15  C   UNL     1      -2.689  15.017  22.748  0.00  0.00    +0.000 A 
ATOM     16  C   UNL     1      -2.391  16.356  22.982  0.00  0.00    +0.000 A 
ATOM     17  C   UNL     1      -2.744  17.305  22.035  0.00  0.00    +0.000 A 
ATOM     18  F   UNL     1      -2.482  18.599  22.271  0.00  0.00    +0.000 F 
ATOM     19  C   UNL     1      -3.372  16.943  20.851  0.00  0.00    +0.000 A 
ATOM     20  C   UNL     1      -3.683  15.607  20.616  0.00  0.00    +0.000 A 
ENDBRANCH  11  14
BRANCH  10  21
ATOM     21  C   UNL     1      -1.588  12.647  20.464  0.00  0.00    +0.000 A 
ATOM     22  C   UNL     1      -0.904  11.755  21.310  0.00  0.00    +0.000 A 
ATOM     23  C   UNL     1       0.469  11.859  21.549  0.00  0.00    +0.000 A 
ATOM     24  C   UNL     1       1.217  12.814  20.874  0.00  0.00    +0.000 A 
ATOM     25  C   UNL     1       0.586  13.668  19.977  0.00  0.00    +0.000 A 
ATOM     26  C   UNL     1      -0.802  13.600  19.791  0.00  0.00    +0.000 A 
ENDBRANCH  10  21
BRANCH  12  27
ATOM     27  C   UNL     1      -6.127  13.533  22.258  0.00  0.00    +0.000 A 
ATOM     28  C   UNL     1      -6.287  12.736  23.409  0.00  0.00    +0.000 A 
ATOM     29  C   UNL     1      -7.165  13.081  24.446  0.00  0.00    +0.000 A 
ATOM     30  C   UNL     1      -7.914  14.246  24.366  0.00  0.00    +0.000 A 
ATOM     31  C   UNL     1      -7.773  15.065  23.254  0.00  0.00    +0.000 A 
ATOM     32  C   UNL     1      -6.892  14.713  22.222  0.00  0.00    +0.000 A 
ENDBRANCH  12  27
TORSDOF 3
ENDMDL
MODEL 6
REMARK VINA RESULT:      -6.6      6.658     10.646
REMARK  Name = 
REMARK  5 active torsions:
REMARK  status: ('A' for Active; 'I' for Inactive)
REMARK    1  A    between atoms: C_1  and  C_2
REMARK    2  A    between atoms: C_2  and  C_3
REMARK    3  A    between atoms: N_10  and  C_11
REMARK    4  A    between atoms: C_17  and  C_18
REMARK    5  A    between atoms: N_25  and  C_26
REMARK                            x       y       z     vdW  Elec       q    Type
REMARK                         _______ _______ _______ _____ _____    ______ ____
ROOT
ATOM      1  C   UNL     1       0.974   2.626  21.359  0.00  0.00    +0.000 C 
ATOM      2  C   UNL     1       1.627   2.624  19.965  0.00  0.00    +0.000 C 
ATOM      3  C   UNL     1       0.547   2.289  18.921  0.00  0.00    +0.000 C 
ATOM      4  C   UNL     1       2.765   1.604  19.933  0.00  0.00    +0.000 C 
ATOM      5  C   UNL     1       3.535   1.681  18.635  0.00  0.00    +0.000 C 
ATOM      6  O   UNL     1       4.034   0.676  18.137  0.00  0.00    +0.000 OA
ATOM      7  C   UNL     1       3.733   3.022  17.998  0.00  0.00    +0.000 C 
ATOM      8  C   UNL     1       3.165   4.129  18.508  0.00  0.00    +0.000 C 
ATOM      9  C   UNL     1       2.226   4.016  19.701  0.00  0.00    +0.000 C 
ATOM     10  N   UNL     1       3.398   5.382  17.914  0.00  0.00    +0.000 N 
ATOM     11  C   UNL     1       4.376   5.544  16.790  0.00  0.00    +0.000 C 
ATOM     12  N   UNL     1       4.977   4.306  16.266  0.00  0.00    +0.000 N 
ATOM     13  C   UNL     1       4.609   2.996  16.794  0.00  0.00    +0.000 C 
ENDROOT
BRANCH  11  14
ATOM     14  C   UNL     1       5.510   6.479  17.252  0.00  0.00    +0.000 A 
ATOM     15  C   UNL     1       5.621   7.779  16.722  0.00  0.00    +0.000 A 
ATOM     16  C   UNL     1       6.713   8.582  17.042  0.00  0.00    +0.000 A 
ATOM     17  C   UNL     1       7.682   8.096  17.906  0.00  0.00    +0.000 A 
ATOM     18  F   UNL     1       8.747   8.858  18.194  0.00  0.00    +0.000 F 
ATOM     19  C   UNL     1       7.576   6.832  18.471  0.00  0.00    +0.000 A 
ATOM     20  C   UNL     1       6.494   6.020  18.145  0.00  0.00    +0.000 A 
ENDBRANCH  11  14
BRANCH  10  21
ATOM     21  C   UNL     1       2.880   6.624  18.413  0.00  0.00    +0.000 A 
ATOM     22  C   UNL     1       2.603   7.705  17.556  0.00  0.00    +0.000 A 
ATOM     23  C   UNL     1       2.144   8.936  18.034  0.00  0.00    +0.000 A 
ATOM     24  C   UNL     1       1.866   9.092  19.385  0.00  0.00    +0.000 A 
ATOM     25  C   UNL     1       2.062   8.022  20.251  0.00  0.00    +0.000 A 
ATOM     26  C   UNL     1       2.583   6.812  19.775  0.00  0.00    +0.000 A 
ENDBRANCH  10  21
BRANCH  12  27
ATOM     27  C   UNL     1       5.774   4.320  15.108  0.00  0.00    +0.000 A 
ATOM     28  C   UNL     1       7.006   5.001  15.070  0.00  0.00    +0.000 A 
ATOM     29  C   UNL     1       7.796   5.063  13.914  0.00  0.00    +0.000 A 
ATOM     30  C   UNL     1       7.376   4.435  12.750  0.00  0.00    +0.000 A 
ATOM     31  C   UNL     1       6.175   3.741  12.752  0.00  0.00    +0.000 A 
ATOM     32  C   UNL     1       5.391   3.684  13.913  0.00  0.00    +0.000 A 
ENDBRANCH  12  27
TORSDOF 3
ENDMDL
MODEL 7
REMARK VINA RESULT:      -6.5      3.298      6.010
REMARK  Name = 
REMARK  5 active torsions:
REMARK  status: ('A' for Active; 'I' for Inactive)
REMARK    1  A    between atoms: C_1  and  C_2
REMARK    2  A    between atoms: C_2  and  C_3
REMARK    3  A    between atoms: N_10  and  C_11
REMARK    4  A    between atoms: C_17  and  C_18
REMARK    5  A    between atoms: N_25  and  C_26
REMARK                            x       y       z     vdW  Elec       q    Type
REMARK                         _______ _______ _______ _____ _____    ______ ____
ROOT
ATOM      1  C   UNL     1      -7.553  14.500  24.200  0.00  0.00    +0.000 C 
ATOM      2  C   UNL     1      -7.185  13.987  22.796  0.00  0.00    +0.000 C 
ATOM      3  C   UNL     1      -7.916  14.852  21.754  0.00  0.00    +0.000 C 
ATOM      4  C   UNL     1      -7.578  12.515  22.669  0.00  0.00    +0.000 C 
ATOM      5  C   UNL     1      -7.092  11.929  21.363  0.00  0.00    +0.000 C 
ATOM      6  O   UNL     1      -7.734  11.057  20.786  0.00  0.00    +0.000 OA
ATOM      7  C   UNL     1      -5.774  12.387  20.819  0.00  0.00    +0.000 C 
ATOM      8  C   UNL     1      -5.072  13.365  21.416  0.00  0.00    +0.000 C 
ATOM      9  C   UNL     1      -5.661  14.092  22.618  0.00  0.00    +0.000 C 
ATOM     10  N   UNL     1      -3.819  13.751  20.908  0.00  0.00    +0.000 N 
ATOM     11  C   UNL     1      -3.173  13.008  19.777  0.00  0.00    +0.000 C 
ATOM     12  N   UNL     1      -3.976  11.942  19.155  0.00  0.00    +0.000 N 
ATOM     13  C   UNL     1      -5.337  11.656  19.598  0.00  0.00    +0.000 C 
ENDROOT
BRANCH  11  14
ATOM     14  C   UNL     1      -1.853  12.395  20.280  0.00  0.00    +0.000 A 
ATOM     15  C   UNL     1      -0.636  12.703  19.643  0.00  0.00    +0.000 A 
ATOM     16  C   UNL     1       0.541  12.057  20.013  0.00  0.00    +0.000 A 
ATOM     17  C   UNL     1       0.506  11.117  21.032  0.00  0.00    +0.000 A 
ATOM     18  F   UNL     1       1.633  10.474  21.372  0.00  0.00    +0.000 F 
ATOM     19  C   UNL     1      -0.674  10.823  21.701  0.00  0.00    +0.000 A 
ATOM     20  C   UNL     1      -1.856  11.456  21.328  0.00  0.00    +0.000 A 
ENDBRANCH  11  14
BRANCH  10  21
ATOM     21  C   UNL     1      -2.975  14.747  21.503  0.00  0.00    +0.000 A 
ATOM     22  C   UNL     1      -2.427  14.577  22.788  0.00  0.00    +0.000 A 
ATOM     23  C   UNL     1      -1.643  15.560  23.400  0.00  0.00    +0.000 A 
ATOM     24  C   UNL     1      -1.312  16.713  22.702  0.00  0.00    +0.000 A 
ATOM     25  C   UNL     1      -1.779  16.883  21.403  0.00  0.00    +0.000 A 
ATOM     26  C   UNL     1      -2.617  15.923  20.820  0.00  0.00    +0.000 A 
ENDBRANCH  10  21
BRANCH  12  27
ATOM     27  C   UNL     1      -3.542  11.297  17.985  0.00  0.00    +0.000 A 
ATOM     28  C   UNL     1      -2.517  10.331  18.014  0.00  0.00    +0.000 A 
ATOM     29  C   UNL     1      -2.041   9.705  16.853  0.00  0.00    +0.000 A 
ATOM     30  C   UNL     1      -2.582  10.026  15.617  0.00  0.00    +0.000 A 
ATOM     31  C   UNL     1      -3.605  10.962  15.549  0.00  0.00    +0.000 A 
ATOM     32  C   UNL     1      -4.076  11.582  16.715  0.00  0.00    +0.000 A 
ENDBRANCH  12  27
TORSDOF 3
ENDMDL
MODEL 8
REMARK VINA RESULT:      -6.5      3.644      7.929
REMARK  Name = 
REMARK  5 active torsions:
REMARK  status: ('A' for Active; 'I' for Inactive)
REMARK    1  A    between atoms: C_1  and  C_2
REMARK    2  A    between atoms: C_2  and  C_3
REMARK    3  A    between atoms: N_10  and  C_11
REMARK    4  A    between atoms: C_17  and  C_18
REMARK    5  A    between atoms: N_25  and  C_26
REMARK                            x       y       z     vdW  Elec       q    Type
REMARK                         _______ _______ _______ _____ _____    ______ ____
ROOT
ATOM      1  C   UNL     1      -2.556  10.568  15.687  0.00  0.00    +0.000 C 
ATOM      2  C   UNL     1      -3.488  10.726  16.902  0.00  0.00    +0.000 C 
ATOM      3  C   UNL     1      -3.783   9.328  17.474  0.00  0.00    +0.000 C 
ATOM      4  C   UNL     1      -4.774  11.434  16.474  0.00  0.00    +0.000 C 
ATOM      5  C   UNL     1      -5.647  11.750  17.665  0.00  0.00    +0.000 C 
ATOM      6  O   UNL     1      -6.871  11.743  17.569  0.00  0.00    +0.000 OA
ATOM      7  C   UNL     1      -4.990  12.138  18.954  0.00  0.00    +0.000 C 
ATOM      8  C   UNL     1      -3.653  12.118  19.090  0.00  0.00    +0.000 C 
ATOM      9  C   UNL     1      -2.784  11.606  17.949  0.00  0.00    +0.000 C 
ATOM     10  N   UNL     1      -3.058  12.524  20.298  0.00  0.00    +0.000 N 
ATOM     11  C   UNL     1      -3.872  13.108  21.412  0.00  0.00    +0.000 C 
ATOM     12  N   UNL     1      -5.332  13.113  21.218  0.00  0.00    +0.000 N 
ATOM     13  C   UNL     1      -5.944  12.547  20.020  0.00  0.00    +0.000 C 
ENDROOT
BRANCH  11  14
ATOM     14  C   UNL     1      -3.407  14.555  21.658  0.00  0.00    +0.000 A 
ATOM     15  C   UNL     1      -2.747  14.898  22.854  0.00  0.00    +0.000 A 
ATOM     16  C   UNL     1      -2.436  16.225  23.135  0.00  0.00    +0.000 A 
ATOM     17  C   UNL     1      -2.766  17.208  22.216  0.00  0.00    +0.000 A 
ATOM     18  F   UNL     1      -2.492  18.491  22.496  0.00  0.00    +0.000 F 
ATOM     19  C   UNL     1      -3.384  16.892  21.013  0.00  0.00    +0.000 A 
ATOM     20  C   UNL     1      -3.709  15.569  20.731  0.00  0.00    +0.000 A 
ENDBRANCH  11  14
BRANCH  10  21
ATOM     21  C   UNL     1      -1.642  12.586  20.522  0.00  0.00    +0.000 A 
ATOM     22  C   UNL     1      -0.838  13.562  19.903  0.00  0.00    +0.000 A 
ATOM     23  C   UNL     1       0.549  13.603  20.075  0.00  0.00    +0.000 A 
ATOM     24  C   UNL     1       1.164  12.715  20.945  0.00  0.00    +0.000 A 
ATOM     25  C   UNL     1       0.392  11.781  21.628  0.00  0.00    +0.000 A 
ATOM     26  C   UNL     1      -0.989  11.703  21.402  0.00  0.00    +0.000 A 
ENDBRANCH  10  21
BRANCH  12  27
ATOM     27  C   UNL     1      -6.201  13.477  22.261  0.00  0.00    +0.000 A 
ATOM     28  C   UNL     1      -7.022  14.618  22.170  0.00  0.00    +0.000 A 
ATOM     29  C   UNL     1      -7.865  15.023  23.215  0.00  0.00    +0.000 A 
ATOM     30  C   UNL     1      -7.916  14.291  24.391  0.00  0.00    +0.000 A 
ATOM     31  C   UNL     1      -7.133  13.152  24.514  0.00  0.00    +0.000 A 
ATOM     32  C   UNL     1      -6.293  12.754  23.463  0.00  0.00    +0.000 A 
ENDBRANCH  12  27
TORSDOF 3
ENDMDL
MODEL 9
REMARK VINA RESULT:      -6.5      3.574      7.879
REMARK  Name = 
REMARK  5 active torsions:
REMARK  status: ('A' for Active; 'I' for Inactive)
REMARK    1  A    between atoms: C_1  and  C_2
REMARK    2  A    between atoms: C_2  and  C_3
REMARK    3  A    between atoms: N_10  and  C_11
REMARK    4  A    between atoms: C_17  and  C_18
REMARK    5  A    between atoms: N_25  and  C_26
REMARK                            x       y       z     vdW  Elec       q    Type
REMARK                         _______ _______ _______ _____ _____    ______ ____
ROOT
ATOM      1  C   UNL     1      -2.546  10.482  15.679  0.00  0.00    +0.000 C 
ATOM      2  C   UNL     1      -3.461  10.676  16.902  0.00  0.00    +0.000 C 
ATOM      3  C   UNL     1      -3.745   9.296  17.522  0.00  0.00    +0.000 C 
ATOM      4  C   UNL     1      -4.755  11.367  16.470  0.00  0.00    +0.000 C 
ATOM      5  C   UNL     1      -5.613  11.719  17.662  0.00  0.00    +0.000 C 
ATOM      6  O   UNL     1      -6.838  11.706  17.584  0.00  0.00    +0.000 OA
ATOM      7  C   UNL     1      -4.938  12.149  18.929  0.00  0.00    +0.000 C 
ATOM      8  C   UNL     1      -3.600  12.137  19.047  0.00  0.00    +0.000 C 
ATOM      9  C   UNL     1      -2.745  11.590  17.911  0.00  0.00    +0.000 C 
ATOM     10  N   UNL     1      -2.989  12.582  20.233  0.00  0.00    +0.000 N 
ATOM     11  C   UNL     1      -3.790  13.199  21.340  0.00  0.00    +0.000 C 
ATOM     12  N   UNL     1      -5.252  13.195  21.166  0.00  0.00    +0.000 N 
ATOM     13  C   UNL     1      -5.879  12.590  19.995  0.00  0.00    +0.000 C 
ENDROOT
BRANCH  11  14
ATOM     14  C   UNL     1      -3.325  14.655  21.533  0.00  0.00    +0.000 A 
ATOM     15  C   UNL     1      -3.583  15.622  20.542  0.00  0.00    +0.000 A 
ATOM     16  C   UNL     1      -3.058  16.907  20.654  0.00  0.00    +0.000 A 
ATOM     17  C   UNL     1      -2.293  17.232  21.763  0.00  0.00    +0.000 A 
ATOM     18  F   UNL     1      -1.765  18.461  21.860  0.00  0.00    +0.000 F 
ATOM     19  C   UNL     1      -2.056  16.308  22.772  0.00  0.00    +0.000 A 
ATOM     20  C   UNL     1      -2.567  15.018  22.660  0.00  0.00    +0.000 A 
ENDBRANCH  11  14
BRANCH  10  21
ATOM     21  C   UNL     1      -1.570  12.655  20.435  0.00  0.00    +0.000 A 
ATOM     22  C   UNL     1      -0.778  13.614  19.777  0.00  0.00    +0.000 A 
ATOM     23  C   UNL     1       0.611  13.664  19.927  0.00  0.00    +0.000 A 
ATOM     24  C   UNL     1       1.241  12.803  20.815  0.00  0.00    +0.000 A 
ATOM     25  C   UNL     1       0.481  11.888  21.536  0.00  0.00    +0.000 A 
ATOM     26  C   UNL     1      -0.903  11.800  21.332  0.00  0.00    +0.000 A 
ENDBRANCH  10  21
BRANCH  12  27
ATOM     27  C   UNL     1      -6.107  13.590  22.208  0.00  0.00    +0.000 A 
ATOM     28  C   UNL     1      -6.355  12.754  23.315  0.00  0.00    +0.000 A 
ATOM     29  C   UNL     1      -7.236  13.111  24.345  0.00  0.00    +0.000 A 
ATOM     30  C   UNL     1      -7.900  14.328  24.302  0.00  0.00    +0.000 A 
ATOM     31  C   UNL     1      -7.671  15.187  23.236  0.00  0.00    +0.000 A 
ATOM     32  C   UNL     1      -6.787  14.821  22.210  0.00  0.00    +0.000 A 
ENDBRANCH  12  27
TORSDOF 3
ENDMDL
