MODEL 1
REMARK VINA RESULT:      -8.8      0.000      0.000
REMARK  Name = 
REMARK  11 active torsions:
REMARK  status: ('A' for Active; 'I' for Inactive)
REMARK    1  A    between atoms: C_1  and  C_2
REMARK    2  A    between atoms: C_2  and  C_3
REMARK    3  A    between atoms: C_2  and  C_4
REMARK    4  A    between atoms: C_4  and  C_5
REMARK    5  A    between atoms: C_5  and  N_6
REMARK    6  A    between atoms: C_9  and  C_10
REMARK    7  A    between atoms: C_17  and  O_18
REMARK    8  A    between atoms: O_18  and  C_19
REMARK    9  A    between atoms: C_19  and  C_20
REMARK   10  A    between atoms: C_19  and  C_21
REMARK   11  A    between atoms: C_28  and  O_29
REMARK                            x       y       z     vdW  Elec       q    Type
REMARK                         _______ _______ _______ _____ _____    ______ ____
ROOT
ATOM      1  C   UNL     1       1.238   9.067  19.434  0.00  0.00    +0.000 C 
ATOM      2  N   UNL     1       1.266   9.659  20.594  0.00  0.00    +0.000 NA
ATOM      3  S   UNL     1       0.649  11.157  20.705  0.00  0.00    +0.000 S 
ATOM      4  O   UNL     1       0.055  11.296  22.025  0.00  0.00    +0.000 OA
ATOM      5  O   UNL     1       1.625  12.121  20.235  0.00  0.00    +0.000 OA
ATOM      6  C   UNL     1      -0.692  11.225  19.568  0.00  0.00    +0.000 A 
ATOM      7  C   UNL     1      -1.814  12.027  19.814  0.00  0.00    +0.000 A 
ATOM      8  C   UNL     1      -2.944  11.865  19.022  0.00  0.00    +0.000 A 
ATOM      9  C   UNL     1      -2.869  11.018  17.909  0.00  0.00    +0.000 A 
ATOM     10  C   UNL     1      -1.696  10.292  17.626  0.00  0.00    +0.000 A 
ATOM     11  C   UNL     1      -0.590  10.382  18.474  0.00  0.00    +0.000 A 
ATOM     12  N   UNL     1       0.515   9.542  18.348  0.00  0.00    +0.000 N 
ATOM     13  H   UNL     1       0.853   9.314  17.408  0.00  0.00    +0.000 HD
ENDROOT
BRANCH   1  17
ATOM     14  N   UNL     1       3.774   6.524  18.049  0.00  0.00    +0.000 N 
ATOM     15  C   UNL     1       2.948   7.632  18.117  0.00  0.00    +0.000 A 
ATOM     16  O   UNL     1       2.931   8.514  17.254  0.00  0.00    +0.000 OA
ATOM     17  C   UNL     1       2.030   7.773  19.289  0.00  0.00    +0.000 A 
ATOM     18  C   UNL     1       1.882   6.741  20.129  0.00  0.00    +0.000 A 
ATOM     19  C   UNL     1       2.655   5.493  19.937  0.00  0.00    +0.000 A 
ATOM     20  C   UNL     1       2.475   4.350  20.733  0.00  0.00    +0.000 A 
ATOM     21  C   UNL     1       3.238   3.204  20.510  0.00  0.00    +0.000 A 
ATOM     22  C   UNL     1       4.178   3.238  19.503  0.00  0.00    +0.000 A 
ATOM     23  N   UNL     1       4.380   4.314  18.717  0.00  0.00    +0.000 NA
ATOM     24  C   UNL     1       3.617   5.420  18.926  0.00  0.00    +0.000 A 
BRANCH  18  25
ATOM     25  O   UNL     1       1.011   6.715  21.203  0.00  0.00    +0.000 OA
ATOM     26  H   UNL     1       1.519   6.897  22.019  0.00  0.00    +0.000 HD
ENDBRANCH  18  25
BRANCH  14  27
ATOM     27  C   UNL     1       4.680   6.380  16.908  0.00  0.00    +0.000 C 
BRANCH  27  28
ATOM     28  C   UNL     1       6.013   7.117  17.091  0.00  0.00    +0.000 C 
BRANCH  28  30
ATOM     29  C   UNL     1       7.614   5.874  18.562  0.00  0.00    +0.000 C 
ATOM     30  C   UNL     1       7.218   6.160  17.114  0.00  0.00    +0.000 C 
ATOM     31  C   UNL     1       6.937   4.850  16.377  0.00  0.00    +0.000 C 
ENDBRANCH  28  30
ENDBRANCH  27  28
ENDBRANCH  14  27
ENDBRANCH   1  17
BRANCH   8  32
ATOM     32  O   UNL     1      -4.170  12.429  19.263  0.00  0.00    +0.000 OA
BRANCH  32  33
ATOM     33  C   UNL     1      -5.347  11.773  18.751  0.00  0.00    +0.000 C 
ATOM     34  C   UNL     1      -6.113  12.638  17.741  0.00  0.00    +0.000 C 
BRANCH  33  35
ATOM     35  C   UNL     1      -6.312  11.440  19.912  0.00  0.00    +0.000 C 
ATOM     36  N   UNL     1      -7.491  10.844  19.568  0.00  0.00    +0.000 N 
ATOM     37  O   UNL     1      -6.113  11.742  21.088  0.00  0.00    +0.000 OA
ATOM     38  H   UNL     1      -7.563  10.355  18.684  0.00  0.00    +0.000 HD
ATOM     39  H   UNL     1      -8.076  10.546  20.338  0.00  0.00    +0.000 HD
ENDBRANCH  33  35
ENDBRANCH  32  33
ENDBRANCH   8  32
TORSDOF 8
ENDMDL
MODEL 2
REMARK VINA RESULT:      -8.6      1.153      3.234
REMARK  Name = 
REMARK  11 active torsions:
REMARK  status: ('A' for Active; 'I' for Inactive)
REMARK    1  A    between atoms: C_1  and  C_2
REMARK    2  A    between atoms: C_2  and  C_3
REMARK    3  A    between atoms: C_2  and  C_4
REMARK    4  A    between atoms: C_4  and  C_5
REMARK    5  A    between atoms: C_5  and  N_6
REMARK    6  A    between atoms: C_9  and  C_10
REMARK    7  A    between atoms: C_17  and  O_18
REMARK    8  A    between atoms: O_18  and  C_19
REMARK    9  A    between atoms: C_19  and  C_20
REMARK   10  A    between atoms: C_19  and  C_21
REMARK   11  A    between atoms: C_28  and  O_29
REMARK                            x       y       z     vdW  Elec       q    Type
REMARK                         _______ _______ _______ _____ _____    ______ ____
ROOT
ATOM      1  C   UNL     1       0.794   9.553  19.154  0.00  0.00    +0.000 C 
ATOM      2  N   UNL     1       0.785  10.174  20.300  0.00  0.00    +0.000 NA
ATOM      3  S   UNL     1       0.016  11.600  20.393  0.00  0.00    +0.000 S 
ATOM      4  O   UNL     1      -0.560  11.709  21.725  0.00  0.00    +0.000 OA
ATOM      5  O   UNL     1       0.874  12.650  19.877  0.00  0.00    +0.000 OA
ATOM      6  C   UNL     1      -1.350  11.499  19.289  0.00  0.00    +0.000 A 
ATOM      7  C   UNL     1      -2.544  12.185  19.546  0.00  0.00    +0.000 A 
ATOM      8  C   UNL     1      -3.669  11.885  18.786  0.00  0.00    +0.000 A 
ATOM      9  C   UNL     1      -3.530  11.023  17.691  0.00  0.00    +0.000 A 
ATOM     10  C   UNL     1      -2.294  10.418  17.394  0.00  0.00    +0.000 A 
ATOM     11  C   UNL     1      -1.184  10.644  18.212  0.00  0.00    +0.000 A 
ATOM     12  N   UNL     1       0.000   9.923  18.077  0.00  0.00    +0.000 N 
ATOM     13  H   UNL     1       0.338   9.708  17.134  0.00  0.00    +0.000 HD
ENDROOT
BRANCH   1  17
ATOM     14  N   UNL     1       2.371   6.117  19.878  0.00  0.00    +0.000 N 
ATOM     15  C   UNL     1       1.643   7.279  20.063  0.00  0.00    +0.000 A 
ATOM     16  O   UNL     1       0.931   7.478  21.052  0.00  0.00    +0.000 OA
ATOM     17  C   UNL     1       1.715   8.347  19.019  0.00  0.00    +0.000 A 
ATOM     18  C   UNL     1       2.628   8.246  18.044  0.00  0.00    +0.000 A 
ATOM     19  C   UNL     1       3.519   7.066  17.964  0.00  0.00    +0.000 A 
ATOM     20  C   UNL     1       4.551   6.948  17.018  0.00  0.00    +0.000 A 
ATOM     21  C   UNL     1       5.355   5.810  16.985  0.00  0.00    +0.000 A 
ATOM     22  C   UNL     1       5.095   4.806  17.893  0.00  0.00    +0.000 A 
ATOM     23  N   UNL     1       4.116   4.882  18.816  0.00  0.00    +0.000 NA
ATOM     24  C   UNL     1       3.349   6.004  18.856  0.00  0.00    +0.000 A 
BRANCH  18  25
ATOM     25  O   UNL     1       2.849   9.197  17.066  0.00  0.00    +0.000 OA
ATOM     26  H   UNL     1       3.222   8.752  16.278  0.00  0.00    +0.000 HD
ENDBRANCH  18  25
BRANCH  14  27
ATOM     27  C   UNL     1       2.303   5.064  20.891  0.00  0.00    +0.000 C 
BRANCH  27  28
ATOM     28  C   UNL     1       1.110   4.116  20.707  0.00  0.00    +0.000 C 
BRANCH  28  30
ATOM     29  C   UNL     1       1.707   2.146  19.279  0.00  0.00    +0.000 C 
ATOM     30  C   UNL     1       1.527   2.635  20.716  0.00  0.00    +0.000 C 
ATOM     31  C   UNL     1       2.807   2.394  21.518  0.00  0.00    +0.000 C 
ENDBRANCH  28  30
ENDBRANCH  27  28
ENDBRANCH  14  27
ENDBRANCH   1  17
BRANCH   8  32
ATOM     32  O   UNL     1      -4.943  12.323  19.045  0.00  0.00    +0.000 OA
BRANCH  32  33
ATOM     33  C   UNL     1      -6.054  11.577  18.510  0.00  0.00    +0.000 C 
ATOM     34  C   UNL     1      -7.141  12.482  17.916  0.00  0.00    +0.000 C 
BRANCH  33  35
ATOM     35  C   UNL     1      -6.705  10.730  19.627  0.00  0.00    +0.000 C 
ATOM     36  N   UNL     1      -7.346   9.591  19.230  0.00  0.00    +0.000 N 
ATOM     37  O   UNL     1      -6.743  11.055  20.813  0.00  0.00    +0.000 OA
ATOM     38  H   UNL     1      -7.107   9.171  18.339  0.00  0.00    +0.000 HD
ATOM     39  H   UNL     1      -7.689   8.995  19.972  0.00  0.00    +0.000 HD
ENDBRANCH  33  35
ENDBRANCH  32  33
ENDBRANCH   8  32
TORSDOF 8
ENDMDL
MODEL 3
REMARK VINA RESULT:      -8.4      1.523      3.417
REMARK  Name = 
REMARK  11 active torsions:
REMARK  status: ('A' for Active; 'I' for Inactive)
REMARK    1  A    between atoms: C_1  and  C_2
REMARK    2  A    between atoms: C_2  and  C_3
REMARK    3  A    between atoms: C_2  and  C_4
REMARK    4  A    between atoms: C_4  and  C_5
REMARK    5  A    between atoms: C_5  and  N_6
REMARK    6  A    between atoms: C_9  and  C_10
REMARK    7  A    between atoms: C_17  and  O_18
REMARK    8  A    between atoms: O_18  and  C_19
REMARK    9  A    between atoms: C_19  and  C_20
REMARK   10  A    between atoms: C_19  and  C_21
REMARK   11  A    between atoms: C_28  and  O_29
REMARK                            x       y       z     vdW  Elec       q    Type
REMARK                         _______ _______ _______ _____ _____    ______ ____
ROOT
ATOM      1  C   UNL     1       0.668   9.961  19.686  0.00  0.00    +0.000 C 
ATOM      2  N   UNL     1       0.788  10.419  20.900  0.00  0.00    +0.000 NA
ATOM      3  S   UNL     1       0.119  11.858  21.245  0.00  0.00    +0.000 S 
ATOM      4  O   UNL     1      -0.344  11.814  22.623  0.00  0.00    +0.000 OA
ATOM      5  O   UNL     1       0.998  12.922  20.800  0.00  0.00    +0.000 OA
ATOM      6  C   UNL     1      -1.333  11.979  20.257  0.00  0.00    +0.000 A 
ATOM      7  C   UNL     1      -2.458  12.684  20.702  0.00  0.00    +0.000 A 
ATOM      8  C   UNL     1      -3.655  12.549  20.008  0.00  0.00    +0.000 A 
ATOM      9  C   UNL     1      -3.655  11.838  18.802  0.00  0.00    +0.000 A 
ATOM     10  C   UNL     1      -2.486  11.215  18.324  0.00  0.00    +0.000 A 
ATOM     11  C   UNL     1      -1.305  11.271  19.066  0.00  0.00    +0.000 A 
ATOM     12  N   UNL     1      -0.181  10.514  18.737  0.00  0.00    +0.000 N 
ATOM     13  H   UNL     1       0.068  10.412  17.749  0.00  0.00    +0.000 HD
ENDROOT
BRANCH   1  17
ATOM     14  N   UNL     1       2.133   6.405  19.857  0.00  0.00    +0.000 N 
ATOM     15  C   UNL     1       1.497   7.570  20.248  0.00  0.00    +0.000 A 
ATOM     16  O   UNL     1       0.923   7.693  21.334  0.00  0.00    +0.000 OA
ATOM     17  C   UNL     1       1.499   8.738  19.315  0.00  0.00    +0.000 A 
ATOM     18  C   UNL     1       2.279   8.702  18.227  0.00  0.00    +0.000 A 
ATOM     19  C   UNL     1       3.088   7.502  17.917  0.00  0.00    +0.000 A 
ATOM     20  C   UNL     1       3.988   7.441  16.840  0.00  0.00    +0.000 A 
ATOM     21  C   UNL     1       4.719   6.280  16.592  0.00  0.00    +0.000 A 
ATOM     22  C   UNL     1       4.517   5.198  17.421  0.00  0.00    +0.000 A 
ATOM     23  N   UNL     1       3.664   5.217  18.464  0.00  0.00    +0.000 NA
ATOM     24  C   UNL     1       2.971   6.360  18.714  0.00  0.00    +0.000 A 
BRANCH  18  25
ATOM     25  O   UNL     1       2.430   9.742  17.328  0.00  0.00    +0.000 OA
ATOM     26  H   UNL     1       3.340   9.711  16.968  0.00  0.00    +0.000 HD
ENDBRANCH  18  25
BRANCH  14  27
ATOM     27  C   UNL     1       2.131   5.255  20.761  0.00  0.00    +0.000 C 
BRANCH  27  28
ATOM     28  C   UNL     1       0.960   4.292  20.523  0.00  0.00    +0.000 C 
BRANCH  28  30
ATOM     29  C   UNL     1       1.592   2.200  19.300  0.00  0.00    +0.000 C 
ATOM     30  C   UNL     1       1.366   2.817  20.680  0.00  0.00    +0.000 C 
ATOM     31  C   UNL     1       2.617   2.645  21.543  0.00  0.00    +0.000 C 
ENDBRANCH  28  30
ENDBRANCH  27  28
ENDBRANCH  14  27
ENDBRANCH   1  17
BRANCH   8  32
ATOM     32  O   UNL     1      -4.874  13.013  20.430  0.00  0.00    +0.000 OA
BRANCH  32  33
ATOM     33  C   UNL     1      -6.068  12.413  19.889  0.00  0.00    +0.000 C 
ATOM     34  C   UNL     1      -7.084  13.455  19.404  0.00  0.00    +0.000 C 
BRANCH  33  35
ATOM     35  C   UNL     1      -6.759  11.549  20.970  0.00  0.00    +0.000 C 
ATOM     36  N   UNL     1      -6.790  12.068  22.232  0.00  0.00    +0.000 N 
ATOM     37  O   UNL     1      -7.204  10.418  20.775  0.00  0.00    +0.000 OA
ATOM     38  H   UNL     1      -6.685  13.067  22.362  0.00  0.00    +0.000 HD
ATOM     39  H   UNL     1      -7.323  11.542  22.913  0.00  0.00    +0.000 HD
ENDBRANCH  33  35
ENDBRANCH  32  33
ENDBRANCH   8  32
TORSDOF 8
ENDMDL
MODEL 4
REMARK VINA RESULT:      -8.3      2.522      4.387
REMARK  Name = 
REMARK  11 active torsions:
REMARK  status: ('A' for Active; 'I' for Inactive)
REMARK    1  A    between atoms: C_1  and  C_2
REMARK    2  A    between atoms: C_2  and  C_3
REMARK    3  A    between atoms: C_2  and  C_4
REMARK    4  A    between atoms: C_4  and  C_5
REMARK    5  A    between atoms: C_5  and  N_6
REMARK    6  A    between atoms: C_9  and  C_10
REMARK    7  A    between atoms: C_17  and  O_18
REMARK    8  A    between atoms: O_18  and  C_19
REMARK    9  A    between atoms: C_19  and  C_20
REMARK   10  A    between atoms: C_19  and  C_21
REMARK   11  A    between atoms: C_28  and  O_29
REMARK                            x       y       z     vdW  Elec       q    Type
REMARK                         _______ _______ _______ _____ _____    ______ ____
ROOT
ATOM      1  C   UNL     1       1.473   8.381  19.217  0.00  0.00    +0.000 C 
ATOM      2  N   UNL     1       1.460   9.500  18.551  0.00  0.00    +0.000 NA
ATOM      3  S   UNL     1       0.225  10.525  18.799  0.00  0.00    +0.000 S 
ATOM      4  O   UNL     1       0.737  11.880  18.668  0.00  0.00    +0.000 OA
ATOM      5  O   UNL     1      -0.925  10.098  18.025  0.00  0.00    +0.000 OA
ATOM      6  C   UNL     1      -0.233  10.349  20.490  0.00  0.00    +0.000 A 
ATOM      7  C   UNL     1      -0.746  11.429  21.220  0.00  0.00    +0.000 A 
ATOM      8  C   UNL     1      -0.861  11.314  22.600  0.00  0.00    +0.000 A 
ATOM      9  C   UNL     1      -0.607  10.071  23.194  0.00  0.00    +0.000 A 
ATOM     10  C   UNL     1      -0.183   8.970  22.425  0.00  0.00    +0.000 A 
ATOM     11  C   UNL     1       0.023   9.109  21.051  0.00  0.00    +0.000 A 
ATOM     12  N   UNL     1       0.624   8.113  20.283  0.00  0.00    +0.000 N 
ATOM     13  H   UNL     1       0.382   7.136  20.471  0.00  0.00    +0.000 HD
ENDROOT
BRANCH   1  17
ATOM     14  N   UNL     1       3.482   5.098  19.225  0.00  0.00    +0.000 N 
ATOM     15  C   UNL     1       2.660   6.120  19.663  0.00  0.00    +0.000 A 
ATOM     16  O   UNL     1       2.051   6.082  20.736  0.00  0.00    +0.000 OA
ATOM     17  C   UNL     1       2.496   7.331  18.801  0.00  0.00    +0.000 A 
ATOM     18  C   UNL     1       3.296   7.488  17.739  0.00  0.00    +0.000 A 
ATOM     19  C   UNL     1       4.293   6.453  17.384  0.00  0.00    +0.000 A 
ATOM     20  C   UNL     1       5.215   6.604  16.335  0.00  0.00    +0.000 A 
ATOM     21  C   UNL     1       6.128   5.592  16.043  0.00  0.00    +0.000 A 
ATOM     22  C   UNL     1       6.083   4.441  16.799  0.00  0.00    +0.000 A 
ATOM     23  N   UNL     1       5.215   4.257  17.814  0.00  0.00    +0.000 NA
ATOM     24  C   UNL     1       4.342   5.258  18.108  0.00  0.00    +0.000 A 
BRANCH  18  25
ATOM     25  O   UNL     1       3.299   8.594  16.908  0.00  0.00    +0.000 OA
ATOM     26  H   UNL     1       2.576   9.192  17.186  0.00  0.00    +0.000 HD
ENDBRANCH  18  25
BRANCH  14  27
ATOM     27  C   UNL     1       3.645   3.906  20.059  0.00  0.00    +0.000 C 
BRANCH  27  28
ATOM     28  C   UNL     1       3.012   2.646  19.453  0.00  0.00    +0.000 C 
BRANCH  28  30
ATOM     29  C   UNL     1       1.619   2.722  21.533  0.00  0.00    +0.000 C 
ATOM     30  C   UNL     1       1.633   2.330  20.055  0.00  0.00    +0.000 C 
ATOM     31  C   UNL     1       0.496   3.036  19.314  0.00  0.00    +0.000 C 
ENDBRANCH  28  30
ENDBRANCH  27  28
ENDBRANCH  14  27
ENDBRANCH   1  17
BRANCH   8  32
ATOM     32  O   UNL     1      -1.156  12.339  23.461  0.00  0.00    +0.000 OA
BRANCH  32  33
ATOM     33  C   UNL     1      -2.253  13.217  23.143  0.00  0.00    +0.000 C 
ATOM     34  C   UNL     1      -2.286  14.467  24.032  0.00  0.00    +0.000 C 
BRANCH  33  35
ATOM     35  C   UNL     1      -3.595  12.472  23.330  0.00  0.00    +0.000 C 
ATOM     36  N   UNL     1      -4.461  12.507  22.275  0.00  0.00    +0.000 N 
ATOM     37  O   UNL     1      -3.947  11.927  24.376  0.00  0.00    +0.000 OA
ATOM     38  H   UNL     1      -4.106  12.701  21.346  0.00  0.00    +0.000 HD
ATOM     39  H   UNL     1      -5.295  11.942  22.368  0.00  0.00    +0.000 HD
ENDBRANCH  33  35
ENDBRANCH  32  33
ENDBRANCH   8  32
TORSDOF 8
ENDMDL
MODEL 5
REMARK VINA RESULT:      -8.2      0.702      1.129
REMARK  Name = 
REMARK  11 active torsions:
REMARK  status: ('A' for Active; 'I' for Inactive)
REMARK    1  A    between atoms: C_1  and  C_2
REMARK    2  A    between atoms: C_2  and  C_3
REMARK    3  A    between atoms: C_2  and  C_4
REMARK    4  A    between atoms: C_4  and  C_5
REMARK    5  A    between atoms: C_5  and  N_6
REMARK    6  A    between atoms: C_9  and  C_10
REMARK    7  A    between atoms: C_17  and  O_18
REMARK    8  A    between atoms: O_18  and  C_19
REMARK    9  A    between atoms: C_19  and  C_20
REMARK   10  A    between atoms: C_19  and  C_21
REMARK   11  A    between atoms: C_28  and  O_29
REMARK                            x       y       z     vdW  Elec       q    Type
REMARK                         _______ _______ _______ _____ _____    ______ ____
ROOT
ATOM      1  C   UNL     1       1.353   8.855  19.305  0.00  0.00    +0.000 C 
ATOM      2  N   UNL     1       1.339   9.500  20.437  0.00  0.00    +0.000 NA
ATOM      3  S   UNL     1       0.707  10.996  20.458  0.00  0.00    +0.000 S 
ATOM      4  O   UNL     1       0.070  11.191  21.751  0.00  0.00    +0.000 OA
ATOM      5  O   UNL     1       1.691  11.947  19.975  0.00  0.00    +0.000 OA
ATOM      6  C   UNL     1      -0.597  11.000  19.276  0.00  0.00    +0.000 A 
ATOM      7  C   UNL     1      -1.731  11.802  19.449  0.00  0.00    +0.000 A 
ATOM      8  C   UNL     1      -2.834  11.593  18.630  0.00  0.00    +0.000 A 
ATOM      9  C   UNL     1      -2.717  10.696  17.561  0.00  0.00    +0.000 A 
ATOM     10  C   UNL     1      -1.530   9.969  17.349  0.00  0.00    +0.000 A 
ATOM     11  C   UNL     1      -0.453  10.107  18.227  0.00  0.00    +0.000 A 
ATOM     12  N   UNL     1       0.663   9.273  18.176  0.00  0.00    +0.000 N 
ATOM     13  H   UNL     1       1.032   9.004  17.259  0.00  0.00    +0.000 HD
ENDROOT
BRANCH   1  17
ATOM     14  N   UNL     1       4.010   6.307  18.178  0.00  0.00    +0.000 N 
ATOM     15  C   UNL     1       3.176   7.412  18.160  0.00  0.00    +0.000 A 
ATOM     16  O   UNL     1       3.232   8.284  17.288  0.00  0.00    +0.000 OA
ATOM     17  C   UNL     1       2.160   7.563  19.246  0.00  0.00    +0.000 A 
ATOM     18  C   UNL     1       1.942   6.541  20.083  0.00  0.00    +0.000 A 
ATOM     19  C   UNL     1       2.733   5.294  19.974  0.00  0.00    +0.000 A 
ATOM     20  C   UNL     1       2.489   4.160  20.766  0.00  0.00    +0.000 A 
ATOM     21  C   UNL     1       3.272   3.015  20.625  0.00  0.00    +0.000 A 
ATOM     22  C   UNL     1       4.296   3.041  19.703  0.00  0.00    +0.000 A 
ATOM     23  N   UNL     1       4.562   4.108  18.924  0.00  0.00    +0.000 NA
ATOM     24  C   UNL     1       3.780   5.213  19.052  0.00  0.00    +0.000 A 
BRANCH  18  25
ATOM     25  O   UNL     1       0.981   6.523  21.077  0.00  0.00    +0.000 OA
ATOM     26  H   UNL     1       1.006   5.650  21.518  0.00  0.00    +0.000 HD
ENDBRANCH  18  25
BRANCH  14  27
ATOM     27  C   UNL     1       5.011   6.153  17.123  0.00  0.00    +0.000 C 
BRANCH  27  28
ATOM     28  C   UNL     1       4.667   5.052  16.111  0.00  0.00    +0.000 C 
BRANCH  28  30
ATOM     29  C   UNL     1       6.118   4.280  14.221  0.00  0.00    +0.000 C 
ATOM     30  C   UNL     1       5.889   4.198  15.730  0.00  0.00    +0.000 C 
ATOM     31  C   UNL     1       7.154   4.622  16.478  0.00  0.00    +0.000 C 
ENDBRANCH  28  30
ENDBRANCH  27  28
ENDBRANCH  14  27
ENDBRANCH   1  17
BRANCH   8  32
ATOM     32  O   UNL     1      -4.072  12.157  18.805  0.00  0.00    +0.000 OA
BRANCH  32  33
ATOM     33  C   UNL     1      -5.208  11.547  18.160  0.00  0.00    +0.000 C 
ATOM     34  C   UNL     1      -5.924  12.504  17.198  0.00  0.00    +0.000 C 
BRANCH  33  35
ATOM     35  C   UNL     1      -6.235  11.093  19.222  0.00  0.00    +0.000 C 
ATOM     36  N   UNL     1      -7.158  10.171  18.818  0.00  0.00    +0.000 N 
ATOM     37  O   UNL     1      -6.312  11.558  20.358  0.00  0.00    +0.000 OA
ATOM     38  H   UNL     1      -6.961   9.591  18.011  0.00  0.00    +0.000 HD
ATOM     39  H   UNL     1      -7.768   9.810  19.540  0.00  0.00    +0.000 HD
ENDBRANCH  33  35
ENDBRANCH  32  33
ENDBRANCH   8  32
TORSDOF 8
ENDMDL
MODEL 6
REMARK VINA RESULT:      -8.2      1.646      3.509
REMARK  Name = 
REMARK  11 active torsions:
REMARK  status: ('A' for Active; 'I' for Inactive)
REMARK    1  A    between atoms: C_1  and  C_2
REMARK    2  A    between atoms: C_2  and  C_3
REMARK    3  A    between atoms: C_2  and  C_4
REMARK    4  A    between atoms: C_4  and  C_5
REMARK    5  A    between atoms: C_5  and  N_6
REMARK    6  A    between atoms: C_9  and  C_10
REMARK    7  A    between atoms: C_17  and  O_18
REMARK    8  A    between atoms: O_18  and  C_19
REMARK    9  A    between atoms: C_19  and  C_20
REMARK   10  A    between atoms: C_19  and  C_21
REMARK   11  A    between atoms: C_28  and  O_29
REMARK                            x       y       z     vdW  Elec       q    Type
REMARK                         _______ _______ _______ _____ _____    ______ ____
ROOT
ATOM      1  C   UNL     1       0.895   9.797  19.331  0.00  0.00    +0.000 C 
ATOM      2  N   UNL     1       1.091  10.432  20.452  0.00  0.00    +0.000 NA
ATOM      3  S   UNL     1       0.441  11.911  20.618  0.00  0.00    +0.000 S 
ATOM      4  O   UNL     1       0.068  12.078  22.014  0.00  0.00    +0.000 OA
ATOM      5  O   UNL     1       1.287  12.890  19.962  0.00  0.00    +0.000 OA
ATOM      6  C   UNL     1      -1.071  11.891  19.718  0.00  0.00    +0.000 A 
ATOM      7  C   UNL     1      -2.168  12.662  20.124  0.00  0.00    +0.000 A 
ATOM      8  C   UNL     1      -3.406  12.432  19.536  0.00  0.00    +0.000 A 
ATOM      9  C   UNL     1      -3.482  11.547  18.453  0.00  0.00    +0.000 A 
ATOM     10  C   UNL     1      -2.344  10.852  18.001  0.00  0.00    +0.000 A 
ATOM     11  C   UNL     1      -1.117  11.011  18.649  0.00  0.00    +0.000 A 
ATOM     12  N   UNL     1      -0.015  10.207  18.367  0.00  0.00    +0.000 N 
ATOM     13  H   UNL     1       0.171   9.955  17.391  0.00  0.00    +0.000 HD
ENDROOT
BRANCH   1  17
ATOM     14  N   UNL     1       2.229   6.222  19.839  0.00  0.00    +0.000 N 
ATOM     15  C   UNL     1       1.612   7.430  20.109  0.00  0.00    +0.000 A 
ATOM     16  O   UNL     1       0.983   7.648  21.148  0.00  0.00    +0.000 OA
ATOM     17  C   UNL     1       1.704   8.527  19.096  0.00  0.00    +0.000 A 
ATOM     18  C   UNL     1       2.542   8.389  18.061  0.00  0.00    +0.000 A 
ATOM     19  C   UNL     1       3.327   7.146  17.884  0.00  0.00    +0.000 A 
ATOM     20  C   UNL     1       4.283   6.982  16.868  0.00  0.00    +0.000 A 
ATOM     21  C   UNL     1       4.988   5.785  16.746  0.00  0.00    +0.000 A 
ATOM     22  C   UNL     1       4.705   4.773  17.637  0.00  0.00    +0.000 A 
ATOM     23  N   UNL     1       3.796   4.891  18.625  0.00  0.00    +0.000 NA
ATOM     24  C   UNL     1       3.128   6.069  18.752  0.00  0.00    +0.000 A 
BRANCH  18  25
ATOM     25  O   UNL     1       2.778   9.356  17.101  0.00  0.00    +0.000 OA
ATOM     26  H   UNL     1       2.089   9.282  16.410  0.00  0.00    +0.000 HD
ENDBRANCH  18  25
BRANCH  14  27
ATOM     27  C   UNL     1       2.140   5.141  20.821  0.00  0.00    +0.000 C 
BRANCH  27  28
ATOM     28  C   UNL     1       0.973   4.177  20.562  0.00  0.00    +0.000 C 
BRANCH  28  30
ATOM     29  C   UNL     1       1.641   2.110  19.314  0.00  0.00    +0.000 C 
ATOM     30  C   UNL     1       1.386   2.701  20.701  0.00  0.00    +0.000 C 
ATOM     31  C   UNL     1       2.621   2.521  21.585  0.00  0.00    +0.000 C 
ENDBRANCH  28  30
ENDBRANCH  27  28
ENDBRANCH  14  27
ENDBRANCH   1  17
BRANCH   8  32
ATOM     32  O   UNL     1      -4.598  12.962  19.961  0.00  0.00    +0.000 OA
BRANCH  32  33
ATOM     33  C   UNL     1      -5.285  12.329  21.058  0.00  0.00    +0.000 C 
ATOM     34  C   UNL     1      -6.803  12.266  20.846  0.00  0.00    +0.000 C 
BRANCH  33  35
ATOM     35  C   UNL     1      -5.026  13.114  22.365  0.00  0.00    +0.000 C 
ATOM     36  N   UNL     1      -4.621  12.381  23.443  0.00  0.00    +0.000 N 
ATOM     37  O   UNL     1      -5.231  14.320  22.503  0.00  0.00    +0.000 OA
ATOM     38  H   UNL     1      -4.196  11.473  23.295  0.00  0.00    +0.000 HD
ATOM     39  H   UNL     1      -4.365  12.910  24.266  0.00  0.00    +0.000 HD
ENDBRANCH  33  35
ENDBRANCH  32  33
ENDBRANCH   8  32
TORSDOF 8
ENDMDL
MODEL 7
REMARK VINA RESULT:      -8.2      1.209      1.297
REMARK  Name = 
REMARK  11 active torsions:
REMARK  status: ('A' for Active; 'I' for Inactive)
REMARK    1  A    between atoms: C_1  and  C_2
REMARK    2  A    between atoms: C_2  and  C_3
REMARK    3  A    between atoms: C_2  and  C_4
REMARK    4  A    between atoms: C_4  and  C_5
REMARK    5  A    between atoms: C_5  and  N_6
REMARK    6  A    between atoms: C_9  and  C_10
REMARK    7  A    between atoms: C_17  and  O_18
REMARK    8  A    between atoms: O_18  and  C_19
REMARK    9  A    between atoms: C_19  and  C_20
REMARK   10  A    between atoms: C_19  and  C_21
REMARK   11  A    between atoms: C_28  and  O_29
REMARK                            x       y       z     vdW  Elec       q    Type
REMARK                         _______ _______ _______ _____ _____    ______ ____
ROOT
ATOM      1  C   UNL     1       1.076   9.393  19.526  0.00  0.00    +0.000 C 
ATOM      2  N   UNL     1       1.200  10.016  20.664  0.00  0.00    +0.000 NA
ATOM      3  S   UNL     1       0.614  11.526  20.778  0.00  0.00    +0.000 S 
ATOM      4  O   UNL     1       0.122  11.711  22.134  0.00  0.00    +0.000 OA
ATOM      5  O   UNL     1       1.565  12.461  20.209  0.00  0.00    +0.000 OA
ATOM      6  C   UNL     1      -0.808  11.585  19.742  0.00  0.00    +0.000 A 
ATOM      7  C   UNL     1      -1.896  12.412  20.049  0.00  0.00    +0.000 A 
ATOM      8  C   UNL     1      -3.085  12.247  19.349  0.00  0.00    +0.000 A 
ATOM      9  C   UNL     1      -3.106  11.368  18.258  0.00  0.00    +0.000 A 
ATOM     10  C   UNL     1      -1.968  10.616  17.909  0.00  0.00    +0.000 A 
ATOM     11  C   UNL     1      -0.800  10.711  18.668  0.00  0.00    +0.000 A 
ATOM     12  N   UNL     1       0.280   9.850  18.484  0.00  0.00    +0.000 N 
ATOM     13  H   UNL     1       0.543   9.591  17.528  0.00  0.00    +0.000 HD
ENDROOT
BRANCH   1  17
ATOM     14  N   UNL     1       3.499   6.789  18.055  0.00  0.00    +0.000 N 
ATOM     15  C   UNL     1       2.698   7.913  18.148  0.00  0.00    +0.000 A 
ATOM     16  O   UNL     1       2.659   8.788  17.278  0.00  0.00    +0.000 OA
ATOM     17  C   UNL     1       1.836   8.083  19.359  0.00  0.00    +0.000 A 
ATOM     18  C   UNL     1       1.706   7.062  20.215  0.00  0.00    +0.000 A 
ATOM     19  C   UNL     1       2.447   5.798  20.001  0.00  0.00    +0.000 A 
ATOM     20  C   UNL     1       2.281   4.665  20.816  0.00  0.00    +0.000 A 
ATOM     21  C   UNL     1       3.012   3.503  20.571  0.00  0.00    +0.000 A 
ATOM     22  C   UNL     1       3.906   3.510  19.522  0.00  0.00    +0.000 A 
ATOM     23  N   UNL     1       4.092   4.574  18.717  0.00  0.00    +0.000 NA
ATOM     24  C   UNL     1       3.361   5.697  18.949  0.00  0.00    +0.000 A 
BRANCH  18  25
ATOM     25  O   UNL     1       0.884   7.062  21.327  0.00  0.00    +0.000 OA
ATOM     26  H   UNL     1       1.439   7.182  22.124  0.00  0.00    +0.000 HD
ENDBRANCH  18  25
BRANCH  14  27
ATOM     27  C   UNL     1       4.350   6.617  16.877  0.00  0.00    +0.000 C 
BRANCH  27  28
ATOM     28  C   UNL     1       5.840   6.852  17.160  0.00  0.00    +0.000 C 
BRANCH  28  30
ATOM     29  C   UNL     1       7.404   4.929  17.522  0.00  0.00    +0.000 C 
ATOM     30  C   UNL     1       6.742   5.816  16.467  0.00  0.00    +0.000 C 
ATOM     31  C   UNL     1       5.977   4.954  15.462  0.00  0.00    +0.000 C 
ENDBRANCH  28  30
ENDBRANCH  27  28
ENDBRANCH  14  27
ENDBRANCH   1  17
BRANCH   8  32
ATOM     32  O   UNL     1      -4.282  12.837  19.665  0.00  0.00    +0.000 OA
BRANCH  32  33
ATOM     33  C   UNL     1      -5.121  12.214  20.657  0.00  0.00    +0.000 C 
ATOM     34  C   UNL     1      -6.613  12.315  20.316  0.00  0.00    +0.000 C 
BRANCH  33  35
ATOM     35  C   UNL     1      -4.905  12.892  22.030  0.00  0.00    +0.000 C 
ATOM     36  N   UNL     1      -5.102  14.242  22.077  0.00  0.00    +0.000 N 
ATOM     37  O   UNL     1      -4.504  12.310  23.037  0.00  0.00    +0.000 OA
ATOM     38  H   UNL     1      -5.673  14.687  21.368  0.00  0.00    +0.000 HD
ATOM     39  H   UNL     1      -5.050  14.665  22.995  0.00  0.00    +0.000 HD
ENDBRANCH  33  35
ENDBRANCH  32  33
ENDBRANCH   8  32
TORSDOF 8
ENDMDL
MODEL 8
REMARK VINA RESULT:      -8.1      1.727      2.011
REMARK  Name = 
REMARK  11 active torsions:
REMARK  status: ('A' for Active; 'I' for Inactive)
REMARK    1  A    between atoms: C_1  and  C_2
REMARK    2  A    between atoms: C_2  and  C_3
REMARK    3  A    between atoms: C_2  and  C_4
REMARK    4  A    between atoms: C_4  and  C_5
REMARK    5  A    between atoms: C_5  and  N_6
REMARK    6  A    between atoms: C_9  and  C_10
REMARK    7  A    between atoms: C_17  and  O_18
REMARK    8  A    between atoms: O_18  and  C_19
REMARK    9  A    between atoms: C_19  and  C_20
REMARK   10  A    between atoms: C_19  and  C_21
REMARK   11  A    between atoms: C_28  and  O_29
REMARK                            x       y       z     vdW  Elec       q    Type
REMARK                         _______ _______ _______ _____ _____    ______ ____
ROOT
ATOM      1  C   UNL     1       1.721   7.844  19.937  0.00  0.00    +0.000 C 
ATOM      2  N   UNL     1       1.225   7.754  21.139  0.00  0.00    +0.000 NA
ATOM      3  S   UNL     1       0.815   9.126  21.904  0.00  0.00    +0.000 S 
ATOM      4  O   UNL     1      -0.346   8.843  22.733  0.00  0.00    +0.000 OA
ATOM      5  O   UNL     1       1.999   9.733  22.482  0.00  0.00    +0.000 OA
ATOM      6  C   UNL     1       0.254  10.238  20.660  0.00  0.00    +0.000 A 
ATOM      7  C   UNL     1      -0.736  11.191  20.931  0.00  0.00    +0.000 A 
ATOM      8  C   UNL     1      -1.319  11.875  19.871  0.00  0.00    +0.000 A 
ATOM      9  C   UNL     1      -0.788  11.701  18.586  0.00  0.00    +0.000 A 
ATOM     10  C   UNL     1       0.273  10.806  18.352  0.00  0.00    +0.000 A 
ATOM     11  C   UNL     1       0.798  10.047  19.401  0.00  0.00    +0.000 A 
ATOM     12  N   UNL     1       1.709   9.014  19.189  0.00  0.00    +0.000 N 
ATOM     13  H   UNL     1       2.447   9.146  18.492  0.00  0.00    +0.000 HD
ENDROOT
BRANCH   1  17
ATOM     14  N   UNL     1       3.952   5.603  17.742  0.00  0.00    +0.000 N 
ATOM     15  C   UNL     1       3.296   6.730  18.207  0.00  0.00    +0.000 A 
ATOM     16  O   UNL     1       3.478   7.857  17.738  0.00  0.00    +0.000 OA
ATOM     17  C   UNL     1       2.321   6.582  19.331  0.00  0.00    +0.000 A 
ATOM     18  C   UNL     1       1.956   5.354  19.720  0.00  0.00    +0.000 A 
ATOM     19  C   UNL     1       2.548   4.154  19.087  0.00  0.00    +0.000 A 
ATOM     20  C   UNL     1       2.139   2.845  19.393  0.00  0.00    +0.000 A 
ATOM     21  C   UNL     1       2.739   1.751  18.769  0.00  0.00    +0.000 A 
ATOM     22  C   UNL     1       3.749   1.995  17.864  0.00  0.00    +0.000 A 
ATOM     23  N   UNL     1       4.168   3.235  17.542  0.00  0.00    +0.000 NA
ATOM     24  C   UNL     1       3.564   4.298  18.138  0.00  0.00    +0.000 A 
BRANCH  18  25
ATOM     25  O   UNL     1       1.010   5.080  20.690  0.00  0.00    +0.000 OA
ATOM     26  H   UNL     1       0.524   5.906  20.891  0.00  0.00    +0.000 HD
ENDBRANCH  18  25
BRANCH  14  27
ATOM     27  C   UNL     1       4.912   5.739  16.646  0.00  0.00    +0.000 C 
BRANCH  27  28
ATOM     28  C   UNL     1       6.363   5.474  17.069  0.00  0.00    +0.000 C 
BRANCH  28  30
ATOM     29  C   UNL     1       7.796   5.773  19.102  0.00  0.00    +0.000 C 
ATOM     30  C   UNL     1       6.865   6.482  18.118  0.00  0.00    +0.000 C 
ATOM     31  C   UNL     1       7.580   7.676  17.485  0.00  0.00    +0.000 C 
ENDBRANCH  28  30
ENDBRANCH  27  28
ENDBRANCH  14  27
ENDBRANCH   1  17
BRANCH   8  32
ATOM     32  O   UNL     1      -2.423  12.683  19.958  0.00  0.00    +0.000 OA
BRANCH  32  33
ATOM     33  C   UNL     1      -3.719  12.071  20.107  0.00  0.00    +0.000 C 
ATOM     34  C   UNL     1      -4.511  12.039  18.793  0.00  0.00    +0.000 C 
BRANCH  33  35
ATOM     35  C   UNL     1      -4.557  12.856  21.142  0.00  0.00    +0.000 C 
ATOM     36  N   UNL     1      -4.635  14.207  20.959  0.00  0.00    +0.000 N 
ATOM     37  O   UNL     1      -5.080  12.355  22.136  0.00  0.00    +0.000 OA
ATOM     38  H   UNL     1      -4.456  14.596  20.041  0.00  0.00    +0.000 HD
ATOM     39  H   UNL     1      -5.259  14.702  21.584  0.00  0.00    +0.000 HD
ENDBRANCH  33  35
ENDBRANCH  32  33
ENDBRANCH   8  32
TORSDOF 8
ENDMDL
MODEL 9
REMARK VINA RESULT:      -8.1      1.395      1.520
REMARK  Name = 
REMARK  11 active torsions:
REMARK  status: ('A' for Active; 'I' for Inactive)
REMARK    1  A    between atoms: C_1  and  C_2
REMARK    2  A    between atoms: C_2  and  C_3
REMARK    3  A    between atoms: C_2  and  C_4
REMARK    4  A    between atoms: C_4  and  C_5
REMARK    5  A    between atoms: C_5  and  N_6
REMARK    6  A    between atoms: C_9  and  C_10
REMARK    7  A    between atoms: C_17  and  O_18
REMARK    8  A    between atoms: O_18  and  C_19
REMARK    9  A    between atoms: C_19  and  C_20
REMARK   10  A    between atoms: C_19  and  C_21
REMARK   11  A    between atoms: C_28  and  O_29
REMARK                            x       y       z     vdW  Elec       q    Type
REMARK                         _______ _______ _______ _____ _____    ______ ____
ROOT
ATOM      1  C   UNL     1       1.137   9.266  19.470  0.00  0.00    +0.000 C 
ATOM      2  N   UNL     1       1.254   9.892  20.607  0.00  0.00    +0.000 NA
ATOM      3  S   UNL     1       0.658  11.399  20.716  0.00  0.00    +0.000 S 
ATOM      4  O   UNL     1       0.161  11.584  22.071  0.00  0.00    +0.000 OA
ATOM      5  O   UNL     1       1.606  12.339  20.149  0.00  0.00    +0.000 OA
ATOM      6  C   UNL     1      -0.760  11.448  19.676  0.00  0.00    +0.000 A 
ATOM      7  C   UNL     1      -1.855  12.268  19.978  0.00  0.00    +0.000 A 
ATOM      8  C   UNL     1      -3.040  12.095  19.274  0.00  0.00    +0.000 A 
ATOM      9  C   UNL     1      -3.052  11.214  18.185  0.00  0.00    +0.000 A 
ATOM     10  C   UNL     1      -1.909  10.468  17.840  0.00  0.00    +0.000 A 
ATOM     11  C   UNL     1      -0.744  10.571  18.604  0.00  0.00    +0.000 A 
ATOM     12  N   UNL     1       0.343   9.717  18.424  0.00  0.00    +0.000 N 
ATOM     13  H   UNL     1       0.610   9.458  17.470  0.00  0.00    +0.000 HD
ENDROOT
BRANCH   1  17
ATOM     14  N   UNL     1       3.585   6.677  18.013  0.00  0.00    +0.000 N 
ATOM     15  C   UNL     1       2.776   7.796  18.102  0.00  0.00    +0.000 A 
ATOM     16  O   UNL     1       2.737   8.670  17.231  0.00  0.00    +0.000 OA
ATOM     17  C   UNL     1       1.907   7.961  19.308  0.00  0.00    +0.000 A 
ATOM     18  C   UNL     1       1.778   6.940  20.164  0.00  0.00    +0.000 A 
ATOM     19  C   UNL     1       2.527   5.680  19.954  0.00  0.00    +0.000 A 
ATOM     20  C   UNL     1       2.364   4.547  20.769  0.00  0.00    +0.000 A 
ATOM     21  C   UNL     1       3.103   3.389  20.528  0.00  0.00    +0.000 A 
ATOM     22  C   UNL     1       4.003   3.400  19.485  0.00  0.00    +0.000 A 
ATOM     23  N   UNL     1       4.187   4.466  18.680  0.00  0.00    +0.000 NA
ATOM     24  C   UNL     1       3.447   5.584  18.907  0.00  0.00    +0.000 A 
BRANCH  18  25
ATOM     25  O   UNL     1       0.950   6.936  21.271  0.00  0.00    +0.000 OA
ATOM     26  H   UNL     1       0.333   6.180  21.194  0.00  0.00    +0.000 HD
ENDBRANCH  18  25
BRANCH  14  27
ATOM     27  C   UNL     1       4.442   6.509  16.840  0.00  0.00    +0.000 C 
BRANCH  27  28
ATOM     28  C   UNL     1       5.927   6.773  17.126  0.00  0.00    +0.000 C 
BRANCH  28  30
ATOM     29  C   UNL     1       7.510   4.880  17.555  0.00  0.00    +0.000 C 
ATOM     30  C   UNL     1       6.849   5.730  16.471  0.00  0.00    +0.000 C 
ATOM     31  C   UNL     1       6.105   4.834  15.480  0.00  0.00    +0.000 C 
ENDBRANCH  28  30
ENDBRANCH  27  28
ENDBRANCH  14  27
ENDBRANCH   1  17
BRANCH   8  32
ATOM     32  O   UNL     1      -4.242  12.678  19.585  0.00  0.00    +0.000 OA
BRANCH  32  33
ATOM     33  C   UNL     1      -4.330  13.493  20.771  0.00  0.00    +0.000 C 
ATOM     34  C   UNL     1      -4.924  12.734  21.965  0.00  0.00    +0.000 C 
BRANCH  33  35
ATOM     35  C   UNL     1      -5.228  14.721  20.500  0.00  0.00    +0.000 C 
ATOM     36  N   UNL     1      -5.670  14.879  19.218  0.00  0.00    +0.000 N 
ATOM     37  O   UNL     1      -5.498  15.582  21.337  0.00  0.00    +0.000 OA
ATOM     38  H   UNL     1      -5.694  14.078  18.598  0.00  0.00    +0.000 HD
ATOM     39  H   UNL     1      -6.331  15.630  19.067  0.00  0.00    +0.000 HD
ENDBRANCH  33  35
ENDBRANCH  32  33
ENDBRANCH   8  32
TORSDOF 8
ENDMDL
