MODEL 1
REMARK VINA RESULT:      -7.5      0.000      0.000
REMARK  Name = 
REMARK  6 active torsions:
REMARK  status: ('A' for Active; 'I' for Inactive)
REMARK    1  A    between atoms: C_7  and  O_8
REMARK    2  A    between atoms: O_8  and  C_9
REMARK    3  A    between atoms: C_9  and  C_10
REMARK    4  A    between atoms: C_10  and  N_11
REMARK    5  A    between atoms: C_16  and  C_17
REMARK    6  A    between atoms: C_17  and  N_18
REMARK                            x       y       z     vdW  Elec       q    Type
REMARK                         _______ _______ _______ _____ _____    ______ ____
ROOT
ATOM      1  N   UNL     1       5.350   5.285  17.537  0.00  0.00    +0.000 NA
ATOM      2  C   UNL     1       5.917   4.668  18.747  0.00  0.00    +0.000 C 
ATOM      3  C   UNL     1       6.851   5.621  19.506  0.00  0.00    +0.000 C 
ATOM      4  C   UNL     1       7.894   6.276  18.608  0.00  0.00    +0.000 C 
ATOM      5  C   UNL     1       7.228   6.854  17.369  0.00  0.00    +0.000 C 
ATOM      6  C   UNL     1       6.400   5.794  16.618  0.00  0.00    +0.000 C 
ENDROOT
BRANCH   1   7
ATOM      7  C   UNL     1       4.338   4.410  16.905  0.00  0.00    +0.000 C 
BRANCH   7   8
ATOM      8  C   UNL     1       4.428   2.942  17.366  0.00  0.00    +0.000 C 
BRANCH   8   9
ATOM      9  O   UNL     1       3.134   2.385  17.610  0.00  0.00    +0.000 OA
BRANCH   9  16
ATOM     10  F   UNL     1       0.709   4.033  17.854  0.00  0.00    +0.000 F 
ATOM     11  C   UNL     1       1.392   3.585  18.919  0.00  0.00    +0.000 A 
ATOM     12  C   UNL     1       0.900   3.939  20.175  0.00  0.00    +0.000 A 
ATOM     13  C   UNL     1       1.550   3.498  21.323  0.00  0.00    +0.000 A 
ATOM     14  C   UNL     1       2.689   2.700  21.209  0.00  0.00    +0.000 A 
ATOM     15  C   UNL     1       3.180   2.350  19.945  0.00  0.00    +0.000 A 
ATOM     16  C   UNL     1       2.540   2.792  18.784  0.00  0.00    +0.000 A 
ENDBRANCH   9  16
ENDBRANCH   8   9
ENDBRANCH   7   8
ENDBRANCH   1   7
BRANCH   6  17
ATOM     17  C   UNL     1       7.269   4.691  15.965  0.00  0.00    +0.000 C 
BRANCH  17  18
ATOM     18  N   UNL     1       7.178   4.665  14.523  0.00  0.00    +0.000 N 
ATOM     19  C   UNL     1       6.376   3.888  13.750  0.00  0.00    +0.000 A 
ATOM     20  N   UNL     1       6.607   4.144  12.483  0.00  0.00    +0.000 NA
ATOM     21  C   UNL     1       7.585   5.097  12.538  0.00  0.00    +0.000 A 
ATOM     22  N   UNL     1       7.970   5.448  13.765  0.00  0.00    +0.000 NA
ENDBRANCH  17  18
ENDBRANCH   6  17
TORSDOF 6
ENDMDL
MODEL 2
REMARK VINA RESULT:      -7.4      1.177      1.557
REMARK  Name = 
REMARK  6 active torsions:
REMARK  status: ('A' for Active; 'I' for Inactive)
REMARK    1  A    between atoms: C_7  and  O_8
REMARK    2  A    between atoms: O_8  and  C_9
REMARK    3  A    between atoms: C_9  and  C_10
REMARK    4  A    between atoms: C_10  and  N_11
REMARK    5  A    between atoms: C_16  and  C_17
REMARK    6  A    between atoms: C_17  and  N_18
REMARK                            x       y       z     vdW  Elec       q    Type
REMARK                         _______ _______ _______ _____ _____    ______ ____
ROOT
ATOM      1  N   UNL     1       5.297   4.980  17.208  0.00  0.00    +0.000 NA
ATOM      2  C   UNL     1       5.901   4.405  18.420  0.00  0.00    +0.000 C 
ATOM      3  C   UNL     1       6.603   5.463  19.281  0.00  0.00    +0.000 C 
ATOM      4  C   UNL     1       7.557   6.346  18.484  0.00  0.00    +0.000 C 
ATOM      5  C   UNL     1       6.864   6.867  17.234  0.00  0.00    +0.000 C 
ATOM      6  C   UNL     1       6.284   5.722  16.382  0.00  0.00    +0.000 C 
ENDROOT
BRANCH   1   7
ATOM      7  C   UNL     1       4.496   3.977  16.472  0.00  0.00    +0.000 C 
BRANCH   7   8
ATOM      8  C   UNL     1       3.097   3.752  17.075  0.00  0.00    +0.000 C 
BRANCH   8   9
ATOM      9  O   UNL     1       3.027   2.528  17.810  0.00  0.00    +0.000 OA
BRANCH   9  16
ATOM     10  F   UNL     1       4.607   2.017  20.240  0.00  0.00    +0.000 F 
ATOM     11  C   UNL     1       3.324   2.409  20.278  0.00  0.00    +0.000 A 
ATOM     12  C   UNL     1       2.752   2.568  21.540  0.00  0.00    +0.000 A 
ATOM     13  C   UNL     1       1.430   2.985  21.654  0.00  0.00    +0.000 A 
ATOM     14  C   UNL     1       0.686   3.247  20.503  0.00  0.00    +0.000 A 
ATOM     15  C   UNL     1       1.265   3.084  19.238  0.00  0.00    +0.000 A 
ATOM     16  C   UNL     1       2.589   2.658  19.110  0.00  0.00    +0.000 A 
ENDBRANCH   9  16
ENDBRANCH   8   9
ENDBRANCH   7   8
ENDBRANCH   1   7
BRANCH   6  17
ATOM     17  C   UNL     1       7.373   4.832  15.734  0.00  0.00    +0.000 C 
BRANCH  17  18
ATOM     18  N   UNL     1       7.265   4.748  14.295  0.00  0.00    +0.000 N 
ATOM     19  C   UNL     1       6.507   3.891  13.563  0.00  0.00    +0.000 A 
ATOM     20  N   UNL     1       6.703   4.115  12.285  0.00  0.00    +0.000 NA
ATOM     21  C   UNL     1       7.616   5.133  12.290  0.00  0.00    +0.000 A 
ATOM     22  N   UNL     1       7.992   5.553  13.498  0.00  0.00    +0.000 NA
ENDBRANCH  17  18
ENDBRANCH   6  17
TORSDOF 6
ENDMDL
MODEL 3
REMARK VINA RESULT:      -7.3      3.344      6.182
REMARK  Name = 
REMARK  6 active torsions:
REMARK  status: ('A' for Active; 'I' for Inactive)
REMARK    1  A    between atoms: C_7  and  O_8
REMARK    2  A    between atoms: O_8  and  C_9
REMARK    3  A    between atoms: C_9  and  C_10
REMARK    4  A    between atoms: C_10  and  N_11
REMARK    5  A    between atoms: C_16  and  C_17
REMARK    6  A    between atoms: C_17  and  N_18
REMARK                            x       y       z     vdW  Elec       q    Type
REMARK                         _______ _______ _______ _____ _____    ______ ____
ROOT
ATOM      1  N   UNL     1       2.517   3.614  18.662  0.00  0.00    +0.000 NA
ATOM      2  C   UNL     1       3.478   2.928  19.540  0.00  0.00    +0.000 C 
ATOM      3  C   UNL     1       2.859   2.533  20.888  0.00  0.00    +0.000 C 
ATOM      4  C   UNL     1       2.124   3.683  21.568  0.00  0.00    +0.000 C 
ATOM      5  C   UNL     1       1.182   4.356  20.582  0.00  0.00    +0.000 C 
ATOM      6  C   UNL     1       1.917   4.810  19.307  0.00  0.00    +0.000 C 
ENDROOT
BRANCH   1   7
ATOM      7  C   UNL     1       3.083   3.849  17.315  0.00  0.00    +0.000 C 
BRANCH   7   8
ATOM      8  C   UNL     1       4.494   3.257  17.136  0.00  0.00    +0.000 C 
BRANCH   8   9
ATOM      9  O   UNL     1       5.289   4.044  16.246  0.00  0.00    +0.000 OA
BRANCH   9  16
ATOM     10  F   UNL     1       5.066   6.940  15.773  0.00  0.00    +0.000 F 
ATOM     11  C   UNL     1       5.949   6.411  16.633  0.00  0.00    +0.000 A 
ATOM     12  C   UNL     1       6.779   7.305  17.310  0.00  0.00    +0.000 A 
ATOM     13  C   UNL     1       7.710   6.827  18.226  0.00  0.00    +0.000 A 
ATOM     14  C   UNL     1       7.803   5.456  18.466  0.00  0.00    +0.000 A 
ATOM     15  C   UNL     1       6.969   4.563  17.783  0.00  0.00    +0.000 A 
ATOM     16  C   UNL     1       6.035   5.029  16.853  0.00  0.00    +0.000 A 
ENDBRANCH   9  16
ENDBRANCH   8   9
ENDBRANCH   7   8
ENDBRANCH   1   7
BRANCH   6  17
ATOM     17  C   UNL     1       2.915   5.969  19.558  0.00  0.00    +0.000 C 
BRANCH  17  18
ATOM     18  N   UNL     1       2.410   7.260  19.150  0.00  0.00    +0.000 N 
ATOM     19  C   UNL     1       1.695   8.149  19.889  0.00  0.00    +0.000 A 
ATOM     20  N   UNL     1       1.402   9.195  19.152  0.00  0.00    +0.000 NA
ATOM     21  C   UNL     1       1.964   8.885  17.945  0.00  0.00    +0.000 A 
ATOM     22  N   UNL     1       2.590   7.709  17.894  0.00  0.00    +0.000 NA
ENDBRANCH  17  18
ENDBRANCH   6  17
TORSDOF 6
ENDMDL
MODEL 4
REMARK VINA RESULT:      -7.2      1.014      1.214
REMARK  Name = 
REMARK  6 active torsions:
REMARK  status: ('A' for Active; 'I' for Inactive)
REMARK    1  A    between atoms: C_7  and  O_8
REMARK    2  A    between atoms: O_8  and  C_9
REMARK    3  A    between atoms: C_9  and  C_10
REMARK    4  A    between atoms: C_10  and  N_11
REMARK    5  A    between atoms: C_16  and  C_17
REMARK    6  A    between atoms: C_17  and  N_18
REMARK                            x       y       z     vdW  Elec       q    Type
REMARK                         _______ _______ _______ _____ _____    ______ ____
ROOT
ATOM      1  N   UNL     1       5.268   5.365  17.228  0.00  0.00    +0.000 NA
ATOM      2  C   UNL     1       5.626   4.606  18.437  0.00  0.00    +0.000 C 
ATOM      3  C   UNL     1       6.525   5.410  19.387  0.00  0.00    +0.000 C 
ATOM      4  C   UNL     1       7.722   6.041  18.685  0.00  0.00    +0.000 C 
ATOM      5  C   UNL     1       7.267   6.773  17.432  0.00  0.00    +0.000 C 
ATOM      6  C   UNL     1       6.463   5.853  16.493  0.00  0.00    +0.000 C 
ENDROOT
BRANCH   1   7
ATOM      7  C   UNL     1       4.281   4.636  16.401  0.00  0.00    +0.000 C 
BRANCH   7   8
ATOM      8  C   UNL     1       3.594   3.480  17.151  0.00  0.00    +0.000 C 
BRANCH   8   9
ATOM      9  O   UNL     1       2.305   3.859  17.640  0.00  0.00    +0.000 OA
BRANCH   9  16
ATOM     10  F   UNL     1       1.610   1.325  18.967  0.00  0.00    +0.000 F 
ATOM     11  C   UNL     1       1.780   2.474  19.640  0.00  0.00    +0.000 A 
ATOM     12  C   UNL     1       1.609   2.423  21.023  0.00  0.00    +0.000 A 
ATOM     13  C   UNL     1       1.782   3.573  21.785  0.00  0.00    +0.000 A 
ATOM     14  C   UNL     1       2.130   4.770  21.160  0.00  0.00    +0.000 A 
ATOM     15  C   UNL     1       2.299   4.816  19.771  0.00  0.00    +0.000 A 
ATOM     16  C   UNL     1       2.120   3.670  18.992  0.00  0.00    +0.000 A 
ENDBRANCH   9  16
ENDBRANCH   8   9
ENDBRANCH   7   8
ENDBRANCH   1   7
BRANCH   6  17
ATOM     17  C   UNL     1       7.321   4.734  15.853  0.00  0.00    +0.000 C 
BRANCH  17  18
ATOM     18  N   UNL     1       7.230   4.692  14.412  0.00  0.00    +0.000 N 
ATOM     19  C   UNL     1       6.464   3.871  13.647  0.00  0.00    +0.000 A 
ATOM     20  N   UNL     1       6.681   4.127  12.378  0.00  0.00    +0.000 NA
ATOM     21  C   UNL     1       7.615   5.126  12.422  0.00  0.00    +0.000 A 
ATOM     22  N   UNL     1       7.984   5.504  13.646  0.00  0.00    +0.000 NA
ENDBRANCH  17  18
ENDBRANCH   6  17
TORSDOF 6
ENDMDL
MODEL 5
REMARK VINA RESULT:      -7.1      3.857      5.511
REMARK  Name = 
REMARK  6 active torsions:
REMARK  status: ('A' for Active; 'I' for Inactive)
REMARK    1  A    between atoms: C_7  and  O_8
REMARK    2  A    between atoms: O_8  and  C_9
REMARK    3  A    between atoms: C_9  and  C_10
REMARK    4  A    between atoms: C_10  and  N_11
REMARK    5  A    between atoms: C_16  and  C_17
REMARK    6  A    between atoms: C_17  and  N_18
REMARK                            x       y       z     vdW  Elec       q    Type
REMARK                         _______ _______ _______ _____ _____    ______ ____
ROOT
ATOM      1  N   UNL     1       2.961   4.711  19.552  0.00  0.00    +0.000 NA
ATOM      2  C   UNL     1       1.640   4.450  18.958  0.00  0.00    +0.000 C 
ATOM      3  C   UNL     1       1.108   3.054  19.306  0.00  0.00    +0.000 C 
ATOM      4  C   UNL     1       2.124   1.946  19.049  0.00  0.00    +0.000 C 
ATOM      5  C   UNL     1       3.465   2.313  19.665  0.00  0.00    +0.000 C 
ATOM      6  C   UNL     1       3.965   3.684  19.172  0.00  0.00    +0.000 C 
ENDROOT
BRANCH   1   7
ATOM      7  C   UNL     1       3.388   6.111  19.335  0.00  0.00    +0.000 C 
BRANCH   7   8
ATOM      8  C   UNL     1       2.515   6.862  18.311  0.00  0.00    +0.000 C 
BRANCH   8   9
ATOM      9  O   UNL     1       2.649   8.279  18.439  0.00  0.00    +0.000 OA
BRANCH   9  16
ATOM     10  F   UNL     1       1.765   8.325  21.246  0.00  0.00    +0.000 F 
ATOM     11  C   UNL     1       1.095   8.948  20.264  0.00  0.00    +0.000 A 
ATOM     12  C   UNL     1      -0.063   9.632  20.630  0.00  0.00    +0.000 A 
ATOM     13  C   UNL     1      -0.800  10.312  19.666  0.00  0.00    +0.000 A 
ATOM     14  C   UNL     1      -0.371  10.308  18.338  0.00  0.00    +0.000 A 
ATOM     15  C   UNL     1       0.792   9.617  17.976  0.00  0.00    +0.000 A 
ATOM     16  C   UNL     1       1.537   8.924  18.933  0.00  0.00    +0.000 A 
ENDBRANCH   9  16
ENDBRANCH   8   9
ENDBRANCH   7   8
ENDBRANCH   1   7
BRANCH   6  17
ATOM     17  C   UNL     1       4.349   3.690  17.672  0.00  0.00    +0.000 C 
BRANCH  17  18
ATOM     18  N   UNL     1       5.701   4.138  17.426  0.00  0.00    +0.000 N 
ATOM     19  C   UNL     1       6.325   4.293  16.229  0.00  0.00    +0.000 A 
ATOM     20  N   UNL     1       7.559   4.694  16.428  0.00  0.00    +0.000 NA
ATOM     21  C   UNL     1       7.643   4.760  17.791  0.00  0.00    +0.000 A 
ATOM     22  N   UNL     1       6.531   4.426  18.446  0.00  0.00    +0.000 NA
ENDBRANCH  17  18
ENDBRANCH   6  17
TORSDOF 6
ENDMDL
MODEL 6
REMARK VINA RESULT:      -6.9      3.311      6.754
REMARK  Name = 
REMARK  6 active torsions:
REMARK  status: ('A' for Active; 'I' for Inactive)
REMARK    1  A    between atoms: C_7  and  O_8
REMARK    2  A    between atoms: O_8  and  C_9
REMARK    3  A    between atoms: C_9  and  C_10
REMARK    4  A    between atoms: C_10  and  N_11
REMARK    5  A    between atoms: C_16  and  C_17
REMARK    6  A    between atoms: C_17  and  N_18
REMARK                            x       y       z     vdW  Elec       q    Type
REMARK                         _______ _______ _______ _____ _____    ______ ____
ROOT
ATOM      1  N   UNL     1       5.601   6.119  18.263  0.00  0.00    +0.000 NA
ATOM      2  C   UNL     1       4.956   6.737  17.094  0.00  0.00    +0.000 C 
ATOM      3  C   UNL     1       3.625   7.413  17.451  0.00  0.00    +0.000 C 
ATOM      4  C   UNL     1       2.695   6.514  18.257  0.00  0.00    +0.000 C 
ATOM      5  C   UNL     1       3.451   5.891  19.421  0.00  0.00    +0.000 C 
ATOM      6  C   UNL     1       4.713   5.145  18.949  0.00  0.00    +0.000 C 
ENDROOT
BRANCH   1   7
ATOM      7  C   UNL     1       6.950   5.608  17.932  0.00  0.00    +0.000 C 
BRANCH   7   8
ATOM      8  C   UNL     1       6.975   4.729  16.667  0.00  0.00    +0.000 C 
BRANCH   8   9
ATOM      9  O   UNL     1       7.471   5.445  15.534  0.00  0.00    +0.000 OA
BRANCH   9  16
ATOM     10  F   UNL     1       8.908   5.846  12.997  0.00  0.00    +0.000 F 
ATOM     11  C   UNL     1       7.804   5.089  13.094  0.00  0.00    +0.000 A 
ATOM     12  C   UNL     1       7.351   4.486  11.921  0.00  0.00    +0.000 A 
ATOM     13  C   UNL     1       6.220   3.677  11.950  0.00  0.00    +0.000 A 
ATOM     14  C   UNL     1       5.549   3.470  13.156  0.00  0.00    +0.000 A 
ATOM     15  C   UNL     1       6.007   4.080  14.330  0.00  0.00    +0.000 A 
ATOM     16  C   UNL     1       7.138   4.901  14.313  0.00  0.00    +0.000 A 
ENDBRANCH   9  16
ENDBRANCH   8   9
ENDBRANCH   7   8
ENDBRANCH   1   7
BRANCH   6  17
ATOM     17  C   UNL     1       4.399   3.874  18.122  0.00  0.00    +0.000 C 
BRANCH  17  18
ATOM     18  N   UNL     1       3.217   3.174  18.571  0.00  0.00    +0.000 N 
ATOM     19  C   UNL     1       2.064   2.956  17.886  0.00  0.00    +0.000 A 
ATOM     20  N   UNL     1       1.219   2.303  18.648  0.00  0.00    +0.000 NA
ATOM     21  C   UNL     1       1.913   2.153  19.816  0.00  0.00    +0.000 A 
ATOM     22  N   UNL     1       3.141   2.672  19.819  0.00  0.00    +0.000 NA
ENDBRANCH  17  18
ENDBRANCH   6  17
TORSDOF 6
ENDMDL
MODEL 7
REMARK VINA RESULT:      -6.9      3.567      7.258
REMARK  Name = 
REMARK  6 active torsions:
REMARK  status: ('A' for Active; 'I' for Inactive)
REMARK    1  A    between atoms: C_7  and  O_8
REMARK    2  A    between atoms: O_8  and  C_9
REMARK    3  A    between atoms: C_9  and  C_10
REMARK    4  A    between atoms: C_10  and  N_11
REMARK    5  A    between atoms: C_16  and  C_17
REMARK    6  A    between atoms: C_17  and  N_18
REMARK                            x       y       z     vdW  Elec       q    Type
REMARK                         _______ _______ _______ _____ _____    ______ ____
ROOT
ATOM      1  N   UNL     1       4.002   4.858  17.193  0.00  0.00    +0.000 NA
ATOM      2  C   UNL     1       4.435   3.678  17.958  0.00  0.00    +0.000 C 
ATOM      3  C   UNL     1       3.314   2.641  18.114  0.00  0.00    +0.000 C 
ATOM      4  C   UNL     1       2.006   3.245  18.611  0.00  0.00    +0.000 C 
ATOM      5  C   UNL     1       1.654   4.476  17.790  0.00  0.00    +0.000 C 
ATOM      6  C   UNL     1       2.801   5.504  17.782  0.00  0.00    +0.000 C 
ENDROOT
BRANCH   1   7
ATOM      7  C   UNL     1       5.133   5.774  16.922  0.00  0.00    +0.000 C 
BRANCH   7   8
ATOM      8  C   UNL     1       6.466   5.040  16.678  0.00  0.00    +0.000 C 
BRANCH   8   9
ATOM      9  O   UNL     1       7.183   5.599  15.575  0.00  0.00    +0.000 OA
BRANCH   9  16
ATOM     10  F   UNL     1       8.774   5.957  13.125  0.00  0.00    +0.000 F 
ATOM     11  C   UNL     1       7.720   5.130  13.191  0.00  0.00    +0.000 A 
ATOM     12  C   UNL     1       7.396   4.430  12.029  0.00  0.00    +0.000 A 
ATOM     13  C   UNL     1       6.323   3.546  12.029  0.00  0.00    +0.000 A 
ATOM     14  C   UNL     1       5.580   3.360  13.195  0.00  0.00    +0.000 A 
ATOM     15  C   UNL     1       5.908   4.066  14.358  0.00  0.00    +0.000 A 
ATOM     16  C   UNL     1       6.979   4.964  14.370  0.00  0.00    +0.000 A 
ENDBRANCH   9  16
ENDBRANCH   8   9
ENDBRANCH   7   8
ENDBRANCH   1   7
BRANCH   6  17
ATOM     17  C   UNL     1       3.041   6.162  19.163  0.00  0.00    +0.000 C 
BRANCH  17  18
ATOM     18  N   UNL     1       2.278   7.373  19.363  0.00  0.00    +0.000 N 
ATOM     19  C   UNL     1       2.025   8.359  18.463  0.00  0.00    +0.000 A 
ATOM     20  N   UNL     1       1.316   9.304  19.037  0.00  0.00    +0.000 NA
ATOM     21  C   UNL     1       1.169   8.842  20.315  0.00  0.00    +0.000 A 
ATOM     22  N   UNL     1       1.743   7.664  20.564  0.00  0.00    +0.000 NA
ENDBRANCH  17  18
ENDBRANCH   6  17
TORSDOF 6
ENDMDL
MODEL 8
REMARK VINA RESULT:      -6.9      1.376      1.752
REMARK  Name = 
REMARK  6 active torsions:
REMARK  status: ('A' for Active; 'I' for Inactive)
REMARK    1  A    between atoms: C_7  and  O_8
REMARK    2  A    between atoms: O_8  and  C_9
REMARK    3  A    between atoms: C_9  and  C_10
REMARK    4  A    between atoms: C_10  and  N_11
REMARK    5  A    between atoms: C_16  and  C_17
REMARK    6  A    between atoms: C_17  and  N_18
REMARK                            x       y       z     vdW  Elec       q    Type
REMARK                         _______ _______ _______ _____ _____    ______ ____
ROOT
ATOM      1  N   UNL     1       5.232   6.349  17.673  0.00  0.00    +0.000 NA
ATOM      2  C   UNL     1       5.295   5.463  18.847  0.00  0.00    +0.000 C 
ATOM      3  C   UNL     1       6.677   5.475  19.514  0.00  0.00    +0.000 C 
ATOM      4  C   UNL     1       7.819   5.264  18.527  0.00  0.00    +0.000 C 
ATOM      5  C   UNL     1       7.656   6.192  17.333  0.00  0.00    +0.000 C 
ATOM      6  C   UNL     1       6.277   6.029  16.667  0.00  0.00    +0.000 C 
ENDROOT
BRANCH   1   7
ATOM      7  C   UNL     1       3.856   6.443  17.137  0.00  0.00    +0.000 C 
BRANCH   7   8
ATOM      8  C   UNL     1       2.776   6.488  18.234  0.00  0.00    +0.000 C 
BRANCH   8   9
ATOM      9  O   UNL     1       1.713   5.570  17.969  0.00  0.00    +0.000 OA
BRANCH   9  16
ATOM     10  F   UNL     1       2.438   2.874  17.038  0.00  0.00    +0.000 F 
ATOM     11  C   UNL     1       2.068   3.130  18.302  0.00  0.00    +0.000 A 
ATOM     12  C   UNL     1       2.037   2.046  19.179  0.00  0.00    +0.000 A 
ATOM     13  C   UNL     1       1.675   2.240  20.508  0.00  0.00    +0.000 A 
ATOM     14  C   UNL     1       1.350   3.521  20.955  0.00  0.00    +0.000 A 
ATOM     15  C   UNL     1       1.381   4.605  20.070  0.00  0.00    +0.000 A 
ATOM     16  C   UNL     1       1.735   4.423  18.731  0.00  0.00    +0.000 A 
ENDBRANCH   9  16
ENDBRANCH   8   9
ENDBRANCH   7   8
ENDBRANCH   1   7
BRANCH   6  17
ATOM     17  C   UNL     1       6.093   4.659  15.969  0.00  0.00    +0.000 C 
BRANCH  17  18
ATOM     18  N   UNL     1       6.577   4.639  14.607  0.00  0.00    +0.000 N 
ATOM     19  C   UNL     1       6.182   3.825  13.593  0.00  0.00    +0.000 A 
ATOM     20  N   UNL     1       6.878   4.101  12.515  0.00  0.00    +0.000 NA
ATOM     21  C   UNL     1       7.708   5.103  12.935  0.00  0.00    +0.000 A 
ATOM     22  N   UNL     1       7.563   5.465  14.210  0.00  0.00    +0.000 NA
ENDBRANCH  17  18
ENDBRANCH   6  17
TORSDOF 6
ENDMDL
MODEL 9
REMARK VINA RESULT:      -6.8      3.942      5.770
REMARK  Name = 
REMARK  6 active torsions:
REMARK  status: ('A' for Active; 'I' for Inactive)
REMARK    1  A    between atoms: C_7  and  O_8
REMARK    2  A    between atoms: O_8  and  C_9
REMARK    3  A    between atoms: C_9  and  C_10
REMARK    4  A    between atoms: C_10  and  N_11
REMARK    5  A    between atoms: C_16  and  C_17
REMARK    6  A    between atoms: C_17  and  N_18
REMARK                            x       y       z     vdW  Elec       q    Type
REMARK                         _______ _______ _______ _____ _____    ______ ____
ROOT
ATOM      1  N   UNL     1       2.645   5.157  18.620  0.00  0.00    +0.000 NA
ATOM      2  C   UNL     1       1.834   4.204  17.846  0.00  0.00    +0.000 C 
ATOM      3  C   UNL     1       1.079   3.215  18.744  0.00  0.00    +0.000 C 
ATOM      4  C   UNL     1       1.973   2.551  19.785  0.00  0.00    +0.000 C 
ATOM      5  C   UNL     1       2.798   3.602  20.511  0.00  0.00    +0.000 C 
ATOM      6  C   UNL     1       3.602   4.476  19.530  0.00  0.00    +0.000 C 
ENDROOT
BRANCH   1   7
ATOM      7  C   UNL     1       3.241   6.195  17.750  0.00  0.00    +0.000 C 
BRANCH   7   8
ATOM      8  C   UNL     1       2.772   7.622  18.095  0.00  0.00    +0.000 C 
BRANCH   8   9
ATOM      9  O   UNL     1       2.289   7.710  19.437  0.00  0.00    +0.000 OA
BRANCH   9  16
ATOM     10  F   UNL     1       1.058   8.411  22.017  0.00  0.00    +0.000 F 
ATOM     11  C   UNL     1       0.762   9.050  20.874  0.00  0.00    +0.000 A 
ATOM     12  C   UNL     1      -0.173  10.081  20.955  0.00  0.00    +0.000 A 
ATOM     13  C   UNL     1      -0.517  10.795  19.813  0.00  0.00    +0.000 A 
ATOM     14  C   UNL     1       0.081  10.478  18.593  0.00  0.00    +0.000 A 
ATOM     15  C   UNL     1       1.017   9.440  18.517  0.00  0.00    +0.000 A 
ATOM     16  C   UNL     1       1.366   8.709  19.656  0.00  0.00    +0.000 A 
ENDBRANCH   9  16
ENDBRANCH   8   9
ENDBRANCH   7   8
ENDBRANCH   1   7
BRANCH   6  17
ATOM     17  C   UNL     1       4.731   3.702  18.806  0.00  0.00    +0.000 C 
BRANCH  17  18
ATOM     18  N   UNL     1       5.928   4.486  18.605  0.00  0.00    +0.000 N 
ATOM     19  C   UNL     1       6.661   4.615  17.468  0.00  0.00    +0.000 A 
ATOM     20  N   UNL     1       7.691   5.395  17.698  0.00  0.00    +0.000 NA
ATOM     21  C   UNL     1       7.544   5.714  19.019  0.00  0.00    +0.000 A 
ATOM     22  N   UNL     1       6.480   5.179  19.619  0.00  0.00    +0.000 NA
ENDBRANCH  17  18
ENDBRANCH   6  17
TORSDOF 6
ENDMDL
