MODEL 1
REMARK VINA RESULT:      -7.7      0.000      0.000
REMARK  Name = 
REMARK  8 active torsions:
REMARK  status: ('A' for Active; 'I' for Inactive)
REMARK    1  A    between atoms: C_1  and  O_2
REMARK    2  A    between atoms: O_2  and  C_3
REMARK    3  A    between atoms: C_7  and  C_8
REMARK    4  A    between atoms: C_13  and  O_14
REMARK    5  A    between atoms: O_14  and  C_15
REMARK    6  A    between atoms: C_15  and  C_16
REMARK    7  A    between atoms: C_22  and  O_23
REMARK    8  A    between atoms: O_23  and  C_24
REMARK                            x       y       z     vdW  Elec       q    Type
REMARK                         _______ _______ _______ _____ _____    ______ ____
ROOT
ATOM      1  C   UNL     1       2.727   4.088  20.265  0.00  0.00    +0.000 A 
ATOM      2  C   UNL     1       2.239   5.291  20.765  0.00  0.00    +0.000 A 
ATOM      3  C   UNL     1       2.247   6.449  19.990  0.00  0.00    +0.000 A 
ATOM      4  O   UNL     1       1.668   7.525  20.621  0.00  0.00    +0.000 OA
ATOM      5  C   UNL     1       1.502   8.692  19.920  0.00  0.00    +0.000 A 
ATOM      6  C   UNL     1       0.780   9.766  20.671  0.00  0.00    +0.000 C 
ATOM      7  C   UNL     1       1.922   8.859  18.663  0.00  0.00    +0.000 A 
ATOM      8  C   UNL     1       2.589   7.749  17.957  0.00  0.00    +0.000 A 
ATOM      9  O   UNL     1       2.919   7.961  16.799  0.00  0.00    +0.000 OA
ATOM     10  C   UNL     1       2.778   6.466  18.693  0.00  0.00    +0.000 A 
ATOM     11  C   UNL     1       3.364   5.278  18.194  0.00  0.00    +0.000 A 
ATOM     12  C   UNL     1       3.317   4.078  18.984  0.00  0.00    +0.000 A 
ENDROOT
BRANCH   1  14
ATOM     13  C   UNL     1       1.399   2.578  21.541  0.00  0.00    +0.000 C 
ATOM     14  O   UNL     1       2.676   2.944  21.018  0.00  0.00    +0.000 OA
ENDBRANCH   1  14
BRANCH  12  15
ATOM     15  O   UNL     1       3.880   2.983  18.363  0.00  0.00    +0.000 OA
ATOM     16  C   UNL     1       3.064   1.893  17.963  0.00  0.00    +0.000 C 
ENDBRANCH  12  15
BRANCH  11  17
ATOM     17  O   UNL     1       3.935   5.078  16.951  0.00  0.00    +0.000 OA
BRANCH  17  18
ATOM     18  C   UNL     1       5.297   4.662  16.874  0.00  0.00    +0.000 C 
BRANCH  18  19
ATOM     19  C   UNL     1       6.298   5.663  17.419  0.00  0.00    +0.000 A 
ATOM     20  C   UNL     1       6.443   6.961  16.924  0.00  0.00    +0.000 A 
ATOM     21  C   UNL     1       7.382   7.832  17.490  0.00  0.00    +0.000 A 
ATOM     22  C   UNL     1       8.179   7.412  18.556  0.00  0.00    +0.000 A 
ATOM     23  C   UNL     1       8.033   6.127  19.071  0.00  0.00    +0.000 A 
ATOM     24  C   UNL     1       7.096   5.260  18.508  0.00  0.00    +0.000 A 
ENDBRANCH  18  19
ENDBRANCH  17  18
ENDBRANCH  11  17
TORSDOF 5
ENDMDL
MODEL 2
REMARK VINA RESULT:      -7.4      1.894      2.641
REMARK  Name = 
REMARK  8 active torsions:
REMARK  status: ('A' for Active; 'I' for Inactive)
REMARK    1  A    between atoms: C_1  and  O_2
REMARK    2  A    between atoms: O_2  and  C_3
REMARK    3  A    between atoms: C_7  and  C_8
REMARK    4  A    between atoms: C_13  and  O_14
REMARK    5  A    between atoms: O_14  and  C_15
REMARK    6  A    between atoms: C_15  and  C_16
REMARK    7  A    between atoms: C_22  and  O_23
REMARK    8  A    between atoms: O_23  and  C_24
REMARK                            x       y       z     vdW  Elec       q    Type
REMARK                         _______ _______ _______ _____ _____    ______ ____
ROOT
ATOM      1  C   UNL     1       2.888   4.107  20.475  0.00  0.00    +0.000 A 
ATOM      2  C   UNL     1       2.308   5.369  20.550  0.00  0.00    +0.000 A 
ATOM      3  C   UNL     1       2.592   6.349  19.600  0.00  0.00    +0.000 A 
ATOM      4  O   UNL     1       1.882   7.511  19.793  0.00  0.00    +0.000 OA
ATOM      5  C   UNL     1       1.979   8.508  18.857  0.00  0.00    +0.000 A 
ATOM      6  C   UNL     1       1.095   9.687  19.118  0.00  0.00    +0.000 C 
ATOM      7  C   UNL     1       2.772   8.434  17.785  0.00  0.00    +0.000 A 
ATOM      8  C   UNL     1       3.588   7.227  17.555  0.00  0.00    +0.000 A 
ATOM      9  O   UNL     1       4.266   7.214  16.539  0.00  0.00    +0.000 OA
ATOM     10  C   UNL     1       3.499   6.124  18.554  0.00  0.00    +0.000 A 
ATOM     11  C   UNL     1       4.172   4.879  18.509  0.00  0.00    +0.000 A 
ATOM     12  C   UNL     1       3.844   3.861  19.468  0.00  0.00    +0.000 A 
ENDROOT
BRANCH   1  14
ATOM     13  C   UNL     1       1.214   2.690  21.403  0.00  0.00    +0.000 C 
ATOM     14  O   UNL     1       2.570   3.136  21.388  0.00  0.00    +0.000 OA
ENDBRANCH   1  14
BRANCH  12  15
ATOM     15  O   UNL     1       4.536   2.682  19.283  0.00  0.00    +0.000 OA
ATOM     16  C   UNL     1       3.856   1.519  18.839  0.00  0.00    +0.000 C 
ENDBRANCH  12  15
BRANCH  11  17
ATOM     17  O   UNL     1       5.092   4.454  17.569  0.00  0.00    +0.000 OA
BRANCH  17  18
ATOM     18  C   UNL     1       4.623   3.995  16.302  0.00  0.00    +0.000 C 
BRANCH  18  19
ATOM     19  C   UNL     1       5.576   4.238  15.147  0.00  0.00    +0.000 A 
ATOM     20  C   UNL     1       6.705   5.057  15.235  0.00  0.00    +0.000 A 
ATOM     21  C   UNL     1       7.545   5.222  14.127  0.00  0.00    +0.000 A 
ATOM     22  C   UNL     1       7.265   4.567  12.926  0.00  0.00    +0.000 A 
ATOM     23  C   UNL     1       6.154   3.733  12.830  0.00  0.00    +0.000 A 
ATOM     24  C   UNL     1       5.318   3.568  13.935  0.00  0.00    +0.000 A 
ENDBRANCH  18  19
ENDBRANCH  17  18
ENDBRANCH  11  17
TORSDOF 5
ENDMDL
MODEL 3
REMARK VINA RESULT:      -7.3      1.781      5.257
REMARK  Name = 
REMARK  8 active torsions:
REMARK  status: ('A' for Active; 'I' for Inactive)
REMARK    1  A    between atoms: C_1  and  O_2
REMARK    2  A    between atoms: O_2  and  C_3
REMARK    3  A    between atoms: C_7  and  C_8
REMARK    4  A    between atoms: C_13  and  O_14
REMARK    5  A    between atoms: O_14  and  C_15
REMARK    6  A    between atoms: C_15  and  C_16
REMARK    7  A    between atoms: C_22  and  O_23
REMARK    8  A    between atoms: O_23  and  C_24
REMARK                            x       y       z     vdW  Elec       q    Type
REMARK                         _______ _______ _______ _____ _____    ______ ____
ROOT
ATOM      1  C   UNL     1       5.856   5.987  16.253  0.00  0.00    +0.000 A 
ATOM      2  C   UNL     1       4.815   6.907  16.209  0.00  0.00    +0.000 A 
ATOM      3  C   UNL     1       3.904   7.014  17.259  0.00  0.00    +0.000 A 
ATOM      4  O   UNL     1       2.983   8.019  17.075  0.00  0.00    +0.000 OA
ATOM      5  C   UNL     1       2.108   8.308  18.090  0.00  0.00    +0.000 A 
ATOM      6  C   UNL     1       1.213   9.477  17.819  0.00  0.00    +0.000 C 
ATOM      7  C   UNL     1       2.066   7.628  19.239  0.00  0.00    +0.000 A 
ATOM      8  C   UNL     1       3.003   6.512  19.467  0.00  0.00    +0.000 A 
ATOM      9  O   UNL     1       2.930   5.954  20.552  0.00  0.00    +0.000 OA
ATOM     10  C   UNL     1       3.970   6.179  18.383  0.00  0.00    +0.000 A 
ATOM     11  C   UNL     1       4.965   5.171  18.409  0.00  0.00    +0.000 A 
ATOM     12  C   UNL     1       5.924   5.094  17.342  0.00  0.00    +0.000 A 
ENDROOT
BRANCH   1  14
ATOM     13  C   UNL     1       6.670   4.799  14.356  0.00  0.00    +0.000 C 
ATOM     14  O   UNL     1       6.773   5.917  15.237  0.00  0.00    +0.000 OA
ENDBRANCH   1  14
BRANCH  12  15
ATOM     15  O   UNL     1       6.866   4.100  17.516  0.00  0.00    +0.000 OA
ATOM     16  C   UNL     1       8.162   4.423  17.996  0.00  0.00    +0.000 C 
ENDBRANCH  12  15
BRANCH  11  17
ATOM     17  O   UNL     1       5.206   4.254  19.415  0.00  0.00    +0.000 OA
BRANCH  17  18
ATOM     18  C   UNL     1       4.642   2.947  19.309  0.00  0.00    +0.000 C 
BRANCH  18  19
ATOM     19  C   UNL     1       3.168   2.863  19.657  0.00  0.00    +0.000 A 
ATOM     20  C   UNL     1       2.683   2.816  20.967  0.00  0.00    +0.000 A 
ATOM     21  C   UNL     1       1.306   2.751  21.207  0.00  0.00    +0.000 A 
ATOM     22  C   UNL     1       0.404   2.738  20.141  0.00  0.00    +0.000 A 
ATOM     23  C   UNL     1       0.872   2.802  18.832  0.00  0.00    +0.000 A 
ATOM     24  C   UNL     1       2.245   2.868  18.593  0.00  0.00    +0.000 A 
ENDBRANCH  18  19
ENDBRANCH  17  18
ENDBRANCH  11  17
TORSDOF 5
ENDMDL
MODEL 4
REMARK VINA RESULT:      -7.3      1.898      2.615
REMARK  Name = 
REMARK  8 active torsions:
REMARK  status: ('A' for Active; 'I' for Inactive)
REMARK    1  A    between atoms: C_1  and  O_2
REMARK    2  A    between atoms: O_2  and  C_3
REMARK    3  A    between atoms: C_7  and  C_8
REMARK    4  A    between atoms: C_13  and  O_14
REMARK    5  A    between atoms: O_14  and  C_15
REMARK    6  A    between atoms: C_15  and  C_16
REMARK    7  A    between atoms: C_22  and  O_23
REMARK    8  A    between atoms: O_23  and  C_24
REMARK                            x       y       z     vdW  Elec       q    Type
REMARK                         _______ _______ _______ _____ _____    ______ ____
ROOT
ATOM      1  C   UNL     1       2.896   3.799  20.288  0.00  0.00    +0.000 A 
ATOM      2  C   UNL     1       2.321   5.054  20.457  0.00  0.00    +0.000 A 
ATOM      3  C   UNL     1       2.608   6.101  19.583  0.00  0.00    +0.000 A 
ATOM      4  O   UNL     1       1.901   7.247  19.862  0.00  0.00    +0.000 OA
ATOM      5  C   UNL     1       2.001   8.311  19.003  0.00  0.00    +0.000 A 
ATOM      6  C   UNL     1       1.121   9.471  19.353  0.00  0.00    +0.000 C 
ATOM      7  C   UNL     1       2.793   8.315  17.928  0.00  0.00    +0.000 A 
ATOM      8  C   UNL     1       3.605   7.126  17.608  0.00  0.00    +0.000 A 
ATOM      9  O   UNL     1       4.282   7.186  16.593  0.00  0.00    +0.000 OA
ATOM     10  C   UNL     1       3.513   5.951  18.522  0.00  0.00    +0.000 A 
ATOM     11  C   UNL     1       4.182   4.711  18.384  0.00  0.00    +0.000 A 
ATOM     12  C   UNL     1       3.851   3.625  19.265  0.00  0.00    +0.000 A 
ENDROOT
BRANCH   1  14
ATOM     13  C   UNL     1       1.251   2.756  21.659  0.00  0.00    +0.000 C 
ATOM     14  O   UNL     1       2.576   2.763  21.126  0.00  0.00    +0.000 OA
ENDBRANCH   1  14
BRANCH  12  15
ATOM     15  O   UNL     1       4.539   2.461  18.991  0.00  0.00    +0.000 OA
ATOM     16  C   UNL     1       3.842   1.311  18.537  0.00  0.00    +0.000 C 
ENDBRANCH  12  15
BRANCH  11  17
ATOM     17  O   UNL     1       5.099   4.354  17.414  0.00  0.00    +0.000 OA
BRANCH  17  18
ATOM     18  C   UNL     1       4.626   3.926  16.137  0.00  0.00    +0.000 C 
BRANCH  18  19
ATOM     19  C   UNL     1       5.589   4.166  14.990  0.00  0.00    +0.000 A 
ATOM     20  C   UNL     1       5.437   3.600  13.722  0.00  0.00    +0.000 A 
ATOM     21  C   UNL     1       6.362   3.880  12.709  0.00  0.00    +0.000 A 
ATOM     22  C   UNL     1       7.442   4.731  12.957  0.00  0.00    +0.000 A 
ATOM     23  C   UNL     1       7.595   5.315  14.210  0.00  0.00    +0.000 A 
ATOM     24  C   UNL     1       6.672   5.037  15.219  0.00  0.00    +0.000 A 
ENDBRANCH  18  19
ENDBRANCH  17  18
ENDBRANCH  11  17
TORSDOF 5
ENDMDL
MODEL 5
REMARK VINA RESULT:      -7.3      1.966      5.620
REMARK  Name = 
REMARK  8 active torsions:
REMARK  status: ('A' for Active; 'I' for Inactive)
REMARK    1  A    between atoms: C_1  and  O_2
REMARK    2  A    between atoms: O_2  and  C_3
REMARK    3  A    between atoms: C_7  and  C_8
REMARK    4  A    between atoms: C_13  and  O_14
REMARK    5  A    between atoms: O_14  and  C_15
REMARK    6  A    between atoms: C_15  and  C_16
REMARK    7  A    between atoms: C_22  and  O_23
REMARK    8  A    between atoms: O_23  and  C_24
REMARK                            x       y       z     vdW  Elec       q    Type
REMARK                         _______ _______ _______ _____ _____    ______ ____
ROOT
ATOM      1  C   UNL     1       2.650   3.178  18.526  0.00  0.00    +0.000 A 
ATOM      2  C   UNL     1       3.397   3.017  17.364  0.00  0.00    +0.000 A 
ATOM      3  C   UNL     1       4.124   4.076  16.823  0.00  0.00    +0.000 A 
ATOM      4  O   UNL     1       4.853   3.719  15.712  0.00  0.00    +0.000 OA
ATOM      5  C   UNL     1       5.705   4.638  15.158  0.00  0.00    +0.000 A 
ATOM      6  C   UNL     1       6.515   4.117  14.013  0.00  0.00    +0.000 C 
ATOM      7  C   UNL     1       5.831   5.890  15.609  0.00  0.00    +0.000 A 
ATOM      8  C   UNL     1       5.038   6.335  16.771  0.00  0.00    +0.000 A 
ATOM      9  O   UNL     1       5.225   7.481  17.150  0.00  0.00    +0.000 OA
ATOM     10  C   UNL     1       4.106   5.355  17.397  0.00  0.00    +0.000 A 
ATOM     11  C   UNL     1       3.281   5.568  18.528  0.00  0.00    +0.000 A 
ATOM     12  C   UNL     1       2.566   4.462  19.103  0.00  0.00    +0.000 A 
ENDROOT
BRANCH   1  14
ATOM     13  C   UNL     1       0.566   2.068  18.841  0.00  0.00    +0.000 C 
ATOM     14  O   UNL     1       1.974   2.121  19.076  0.00  0.00    +0.000 OA
ENDBRANCH   1  14
BRANCH  12  15
ATOM     15  O   UNL     1       1.840   4.797  20.227  0.00  0.00    +0.000 OA
ATOM     16  C   UNL     1       2.180   4.239  21.487  0.00  0.00    +0.000 C 
ENDBRANCH  12  15
BRANCH  11  17
ATOM     17  O   UNL     1       3.123   6.739  19.245  0.00  0.00    +0.000 OA
BRANCH  17  18
ATOM     18  C   UNL     1       2.284   7.766  18.716  0.00  0.00    +0.000 C 
BRANCH  18  19
ATOM     19  C   UNL     1       1.480   8.525  19.754  0.00  0.00    +0.000 A 
ATOM     20  C   UNL     1       1.352   8.117  21.085  0.00  0.00    +0.000 A 
ATOM     21  C   UNL     1       0.602   8.881  21.987  0.00  0.00    +0.000 A 
ATOM     22  C   UNL     1      -0.021  10.058  21.568  0.00  0.00    +0.000 A 
ATOM     23  C   UNL     1       0.114  10.485  20.250  0.00  0.00    +0.000 A 
ATOM     24  C   UNL     1       0.862   9.725  19.351  0.00  0.00    +0.000 A 
ENDBRANCH  18  19
ENDBRANCH  17  18
ENDBRANCH  11  17
TORSDOF 5
ENDMDL
MODEL 6
REMARK VINA RESULT:      -7.2      1.518      2.360
REMARK  Name = 
REMARK  8 active torsions:
REMARK  status: ('A' for Active; 'I' for Inactive)
REMARK    1  A    between atoms: C_1  and  O_2
REMARK    2  A    between atoms: O_2  and  C_3
REMARK    3  A    between atoms: C_7  and  C_8
REMARK    4  A    between atoms: C_13  and  O_14
REMARK    5  A    between atoms: O_14  and  C_15
REMARK    6  A    between atoms: C_15  and  C_16
REMARK    7  A    between atoms: C_22  and  O_23
REMARK    8  A    between atoms: O_23  and  C_24
REMARK                            x       y       z     vdW  Elec       q    Type
REMARK                         _______ _______ _______ _____ _____    ______ ____
ROOT
ATOM      1  C   UNL     1       2.645   4.210  20.385  0.00  0.00    +0.000 A 
ATOM      2  C   UNL     1       2.100   5.345  20.975  0.00  0.00    +0.000 A 
ATOM      3  C   UNL     1       2.032   6.554  20.284  0.00  0.00    +0.000 A 
ATOM      4  O   UNL     1       1.404   7.549  20.997  0.00  0.00    +0.000 OA
ATOM      5  C   UNL     1       1.164   8.750  20.384  0.00  0.00    +0.000 A 
ATOM      6  C   UNL     1       0.395   9.727  21.218  0.00  0.00    +0.000 C 
ATOM      7  C   UNL     1       1.555   9.030  19.137  0.00  0.00    +0.000 A 
ATOM      8  C   UNL     1       2.271   8.012  18.346  0.00  0.00    +0.000 A 
ATOM      9  O   UNL     1       2.571   8.323  17.203  0.00  0.00    +0.000 OA
ATOM     10  C   UNL     1       2.541   6.693  18.986  0.00  0.00    +0.000 A 
ATOM     11  C   UNL     1       3.185   5.577  18.397  0.00  0.00    +0.000 A 
ATOM     12  C   UNL     1       3.215   4.324  19.099  0.00  0.00    +0.000 A 
ENDROOT
BRANCH   1  14
ATOM     13  C   UNL     1       1.434   2.569  21.614  0.00  0.00    +0.000 C 
ATOM     14  O   UNL     1       2.669   3.015  21.054  0.00  0.00    +0.000 OA
ENDBRANCH   1  14
BRANCH  12  15
ATOM     15  O   UNL     1       3.829   3.309  18.394  0.00  0.00    +0.000 OA
ATOM     16  C   UNL     1       3.053   2.258  17.840  0.00  0.00    +0.000 C 
ENDBRANCH  12  15
BRANCH  11  17
ATOM     17  O   UNL     1       3.746   5.499  17.136  0.00  0.00    +0.000 OA
BRANCH  17  18
ATOM     18  C   UNL     1       5.166   5.558  17.006  0.00  0.00    +0.000 C 
BRANCH  18  19
ATOM     19  C   UNL     1       5.705   5.034  15.689  0.00  0.00    +0.000 A 
ATOM     20  C   UNL     1       4.981   4.198  14.835  0.00  0.00    +0.000 A 
ATOM     21  C   UNL     1       5.544   3.766  13.628  0.00  0.00    +0.000 A 
ATOM     22  C   UNL     1       6.830   4.169  13.265  0.00  0.00    +0.000 A 
ATOM     23  C   UNL     1       7.555   5.016  14.099  0.00  0.00    +0.000 A 
ATOM     24  C   UNL     1       6.994   5.448  15.300  0.00  0.00    +0.000 A 
ENDBRANCH  18  19
ENDBRANCH  17  18
ENDBRANCH  11  17
TORSDOF 5
ENDMDL
MODEL 7
REMARK VINA RESULT:      -7.2      1.264      1.846
REMARK  Name = 
REMARK  8 active torsions:
REMARK  status: ('A' for Active; 'I' for Inactive)
REMARK    1  A    between atoms: C_1  and  O_2
REMARK    2  A    between atoms: O_2  and  C_3
REMARK    3  A    between atoms: C_7  and  C_8
REMARK    4  A    between atoms: C_13  and  O_14
REMARK    5  A    between atoms: O_14  and  C_15
REMARK    6  A    between atoms: C_15  and  C_16
REMARK    7  A    between atoms: C_22  and  O_23
REMARK    8  A    between atoms: O_23  and  C_24
REMARK                            x       y       z     vdW  Elec       q    Type
REMARK                         _______ _______ _______ _____ _____    ______ ____
ROOT
ATOM      1  C   UNL     1       2.138   5.186  20.522  0.00  0.00    +0.000 A 
ATOM      2  C   UNL     1       1.591   6.320  21.114  0.00  0.00    +0.000 A 
ATOM      3  C   UNL     1       1.529   7.532  20.427  0.00  0.00    +0.000 A 
ATOM      4  O   UNL     1       0.900   8.525  21.140  0.00  0.00    +0.000 OA
ATOM      5  C   UNL     1       0.665   9.730  20.530  0.00  0.00    +0.000 A 
ATOM      6  C   UNL     1      -0.105  10.705  21.364  0.00  0.00    +0.000 C 
ATOM      7  C   UNL     1       1.063  10.013  19.287  0.00  0.00    +0.000 A 
ATOM      8  C   UNL     1       1.781   8.996  18.495  0.00  0.00    +0.000 A 
ATOM      9  O   UNL     1       2.087   9.311  17.355  0.00  0.00    +0.000 OA
ATOM     10  C   UNL     1       2.045   7.675  19.131  0.00  0.00    +0.000 A 
ATOM     11  C   UNL     1       2.689   6.560  18.542  0.00  0.00    +0.000 A 
ATOM     12  C   UNL     1       2.714   5.304  19.240  0.00  0.00    +0.000 A 
ENDROOT
BRANCH   1  14
ATOM     13  C   UNL     1       1.083   3.087  20.913  0.00  0.00    +0.000 C 
ATOM     14  O   UNL     1       2.156   3.989  21.187  0.00  0.00    +0.000 OA
ENDBRANCH   1  14
BRANCH  12  15
ATOM     15  O   UNL     1       3.329   4.290  18.534  0.00  0.00    +0.000 OA
ATOM     16  C   UNL     1       4.347   3.513  19.145  0.00  0.00    +0.000 C 
ENDBRANCH  12  15
BRANCH  11  17
ATOM     17  O   UNL     1       3.257   6.485  17.283  0.00  0.00    +0.000 OA
BRANCH  17  18
ATOM     18  C   UNL     1       4.513   7.120  17.053  0.00  0.00    +0.000 C 
BRANCH  18  19
ATOM     19  C   UNL     1       5.722   6.223  17.245  0.00  0.00    +0.000 A 
ATOM     20  C   UNL     1       6.584   6.311  18.342  0.00  0.00    +0.000 A 
ATOM     21  C   UNL     1       7.672   5.438  18.455  0.00  0.00    +0.000 A 
ATOM     22  C   UNL     1       7.904   4.469  17.477  0.00  0.00    +0.000 A 
ATOM     23  C   UNL     1       7.043   4.359  16.389  0.00  0.00    +0.000 A 
ATOM     24  C   UNL     1       5.957   5.228  16.276  0.00  0.00    +0.000 A 
ENDBRANCH  18  19
ENDBRANCH  17  18
ENDBRANCH  11  17
TORSDOF 5
ENDMDL
MODEL 8
REMARK VINA RESULT:      -7.0      1.537      2.364
REMARK  Name = 
REMARK  8 active torsions:
REMARK  status: ('A' for Active; 'I' for Inactive)
REMARK    1  A    between atoms: C_1  and  O_2
REMARK    2  A    between atoms: O_2  and  C_3
REMARK    3  A    between atoms: C_7  and  C_8
REMARK    4  A    between atoms: C_13  and  O_14
REMARK    5  A    between atoms: O_14  and  C_15
REMARK    6  A    between atoms: C_15  and  C_16
REMARK    7  A    between atoms: C_22  and  O_23
REMARK    8  A    between atoms: O_23  and  C_24
REMARK                            x       y       z     vdW  Elec       q    Type
REMARK                         _______ _______ _______ _____ _____    ______ ____
ROOT
ATOM      1  C   UNL     1       2.291   4.004  20.084  0.00  0.00    +0.000 A 
ATOM      2  C   UNL     1       1.803   5.115  20.765  0.00  0.00    +0.000 A 
ATOM      3  C   UNL     1       1.879   6.391  20.210  0.00  0.00    +0.000 A 
ATOM      4  O   UNL     1       1.291   7.357  20.992  0.00  0.00    +0.000 OA
ATOM      5  C   UNL     1       1.190   8.633  20.503  0.00  0.00    +0.000 A 
ATOM      6  C   UNL     1       0.452   9.580  21.396  0.00  0.00    +0.000 C 
ATOM      7  C   UNL     1       1.681   9.006  19.318  0.00  0.00    +0.000 A 
ATOM      8  C   UNL     1       2.360   8.018  18.460  0.00  0.00    +0.000 A 
ATOM      9  O   UNL     1       2.758   8.420  17.376  0.00  0.00    +0.000 OA
ATOM     10  C   UNL     1       2.480   6.620  18.964  0.00  0.00    +0.000 A 
ATOM     11  C   UNL     1       3.066   5.520  18.292  0.00  0.00    +0.000 A 
ATOM     12  C   UNL     1       2.949   4.202  18.853  0.00  0.00    +0.000 A 
ENDROOT
BRANCH   1  14
ATOM     13  C   UNL     1       1.634   2.660  21.937  0.00  0.00    +0.000 C 
ATOM     14  O   UNL     1       2.173   2.748  20.618  0.00  0.00    +0.000 OA
ENDBRANCH   1  14
BRANCH  12  15
ATOM     15  O   UNL     1       3.521   3.217  18.075  0.00  0.00    +0.000 OA
ATOM     16  C   UNL     1       2.705   2.231  17.462  0.00  0.00    +0.000 C 
ENDBRANCH  12  15
BRANCH  11  17
ATOM     17  O   UNL     1       3.699   5.525  17.063  0.00  0.00    +0.000 OA
BRANCH  17  18
ATOM     18  C   UNL     1       5.120   5.638  17.017  0.00  0.00    +0.000 C 
BRANCH  18  19
ATOM     19  C   UNL     1       5.752   5.172  15.719  0.00  0.00    +0.000 A 
ATOM     20  C   UNL     1       7.075   5.445  15.361  0.00  0.00    +0.000 A 
ATOM     21  C   UNL     1       7.590   4.968  14.150  0.00  0.00    +0.000 A 
ATOM     22  C   UNL     1       6.789   4.213  13.291  0.00  0.00    +0.000 A 
ATOM     23  C   UNL     1       5.475   3.919  13.644  0.00  0.00    +0.000 A 
ATOM     24  C   UNL     1       4.962   4.393  14.852  0.00  0.00    +0.000 A 
ENDBRANCH  18  19
ENDBRANCH  17  18
ENDBRANCH  11  17
TORSDOF 5
ENDMDL
MODEL 9
REMARK VINA RESULT:      -6.9      2.297      4.910
REMARK  Name = 
REMARK  8 active torsions:
REMARK  status: ('A' for Active; 'I' for Inactive)
REMARK    1  A    between atoms: C_1  and  O_2
REMARK    2  A    between atoms: O_2  and  C_3
REMARK    3  A    between atoms: C_7  and  C_8
REMARK    4  A    between atoms: C_13  and  O_14
REMARK    5  A    between atoms: O_14  and  C_15
REMARK    6  A    between atoms: C_15  and  C_16
REMARK    7  A    between atoms: C_22  and  O_23
REMARK    8  A    between atoms: O_23  and  C_24
REMARK                            x       y       z     vdW  Elec       q    Type
REMARK                         _______ _______ _______ _____ _____    ______ ____
ROOT
ATOM      1  C   UNL     1       3.253   7.102  18.177  0.00  0.00    +0.000 A 
ATOM      2  C   UNL     1       2.450   6.386  19.057  0.00  0.00    +0.000 A 
ATOM      3  C   UNL     1       2.698   5.040  19.325  0.00  0.00    +0.000 A 
ATOM      4  O   UNL     1       1.846   4.511  20.266  0.00  0.00    +0.000 OA
ATOM      5  C   UNL     1       2.061   3.232  20.708  0.00  0.00    +0.000 A 
ATOM      6  C   UNL     1       1.134   2.790  21.797  0.00  0.00    +0.000 C 
ATOM      7  C   UNL     1       3.031   2.445  20.234  0.00  0.00    +0.000 A 
ATOM      8  C   UNL     1       3.944   2.950  19.191  0.00  0.00    +0.000 A 
ATOM      9  O   UNL     1       4.827   2.188  18.825  0.00  0.00    +0.000 OA
ATOM     10  C   UNL     1       3.736   4.340  18.695  0.00  0.00    +0.000 A 
ATOM     11  C   UNL     1       4.511   5.022  17.726  0.00  0.00    +0.000 A 
ATOM     12  C   UNL     1       4.275   6.419  17.485  0.00  0.00    +0.000 A 
ENDROOT
BRANCH   1  14
ATOM     13  C   UNL     1       1.691   8.900  18.126  0.00  0.00    +0.000 C 
ATOM     14  O   UNL     1       3.030   8.436  17.952  0.00  0.00    +0.000 OA
ENDBRANCH   1  14
BRANCH  12  15
ATOM     15  O   UNL     1       5.129   6.972  16.553  0.00  0.00    +0.000 OA
ATOM     16  C   UNL     1       6.349   7.566  16.970  0.00  0.00    +0.000 C 
ENDBRANCH  12  15
BRANCH  11  17
ATOM     17  O   UNL     1       5.576   4.525  16.998  0.00  0.00    +0.000 OA
BRANCH  17  18
ATOM     18  C   UNL     1       5.314   3.692  15.870  0.00  0.00    +0.000 C 
BRANCH  18  19
ATOM     19  C   UNL     1       6.084   4.061  14.616  0.00  0.00    +0.000 A 
ATOM     20  C   UNL     1       7.142   4.974  14.599  0.00  0.00    +0.000 A 
ATOM     21  C   UNL     1       7.813   5.252  13.402  0.00  0.00    +0.000 A 
ATOM     22  C   UNL     1       7.434   4.619  12.217  0.00  0.00    +0.000 A 
ATOM     23  C   UNL     1       6.393   3.695  12.224  0.00  0.00    +0.000 A 
ATOM     24  C   UNL     1       5.726   3.416  13.416  0.00  0.00    +0.000 A 
ENDBRANCH  18  19
ENDBRANCH  17  18
ENDBRANCH  11  17
TORSDOF 5
ENDMDL
