MODEL 1
REMARK VINA RESULT:      -7.4      0.000      0.000
REMARK  Name = 
REMARK  5 active torsions:
REMARK  status: ('A' for Active; 'I' for Inactive)
REMARK    1  A    between atoms: C_2  and  C_3
REMARK    2  A    between atoms: C_3  and  O_4
REMARK    3  A    between atoms: O_4  and  C_5
REMARK    4  A    between atoms: C_8  and  N_9
REMARK    5  A    between atoms: N_14  and  C_15
REMARK                            x       y       z     vdW  Elec       q    Type
REMARK                         _______ _______ _______ _____ _____    ______ ____
ROOT
ATOM      1  O   UNL     1       1.134   4.807  19.403  0.00  0.00    +0.000 OA
ATOM      2  C   UNL     1       2.192   5.076  19.976  0.00  0.00    +0.000 C 
ATOM      3  N   UNL     1       2.781   6.319  20.005  0.00  0.00    +0.000 N 
ATOM      4  H   UNL     1       3.759   6.376  20.290  0.00  0.00    +0.000 HD
ENDROOT
BRANCH   3   5
ATOM      5  C   UNL     1       2.187   7.515  19.543  0.00  0.00    +0.000 A 
ATOM      6  C   UNL     1       2.268   7.971  18.208  0.00  0.00    +0.000 A 
ATOM      7  C   UNL     1       1.645   9.153  17.736  0.00  0.00    +0.000 A 
ATOM      8  C   UNL     1       0.881   9.997  18.554  0.00  0.00    +0.000 A 
ATOM      9  C   UNL     1       0.762   9.602  19.907  0.00  0.00    +0.000 A 
ATOM     10  N   UNL     1       0.089  10.267  20.858  0.00  0.00    +0.000 NA
ATOM     11  S   UNL     1       0.271   9.397  22.259  0.00  0.00    +0.000 S 
ATOM     12  N   UNL     1       1.190   8.117  21.724  0.00  0.00    +0.000 NA
ATOM     13  C   UNL     1       1.415   8.336  20.415  0.00  0.00    +0.000 A 
ENDBRANCH   3   5
BRANCH   2  14
ATOM     14  C   UNL     1       2.908   3.975  20.754  0.00  0.00    +0.000 C 
BRANCH  14  15
ATOM     15  O   UNL     1       3.572   2.971  20.000  0.00  0.00    +0.000 OA
BRANCH  15  16
ATOM     16  C   UNL     1       4.250   3.463  18.907  0.00  0.00    +0.000 A 
ATOM     17  C   UNL     1       5.442   4.138  19.182  0.00  0.00    +0.000 A 
ATOM     18  C   UNL     1       6.193   4.708  18.145  0.00  0.00    +0.000 A 
ATOM     19  C   UNL     1       5.750   4.583  16.822  0.00  0.00    +0.000 A 
ATOM     20  C   UNL     1       4.579   3.879  16.533  0.00  0.00    +0.000 A 
ATOM     21  C   UNL     1       3.837   3.316  17.576  0.00  0.00    +0.000 A 
BRANCH  19  22
ATOM     22  N   UNL     1       6.513   5.197  15.727  0.00  0.00    +0.000 N 
ATOM     23  O   UNL     1       7.679   4.813  15.552  0.00  0.00    +0.000 OA
ATOM     24  O   UNL     1       5.950   6.062  15.046  0.00  0.00    +0.000 OA
ENDBRANCH  19  22
ENDBRANCH  15  16
ENDBRANCH  14  15
ENDBRANCH   2  14
TORSDOF 5
ENDMDL
MODEL 2
REMARK VINA RESULT:      -7.4      1.011      1.106
REMARK  Name = 
REMARK  5 active torsions:
REMARK  status: ('A' for Active; 'I' for Inactive)
REMARK    1  A    between atoms: C_2  and  C_3
REMARK    2  A    between atoms: C_3  and  O_4
REMARK    3  A    between atoms: O_4  and  C_5
REMARK    4  A    between atoms: C_8  and  N_9
REMARK    5  A    between atoms: N_14  and  C_15
REMARK                            x       y       z     vdW  Elec       q    Type
REMARK                         _______ _______ _______ _____ _____    ______ ____
ROOT
ATOM      1  O   UNL     1       1.839   5.266  18.035  0.00  0.00    +0.000 OA
ATOM      2  C   UNL     1       2.572   5.414  19.014  0.00  0.00    +0.000 C 
ATOM      3  N   UNL     1       2.847   6.618  19.621  0.00  0.00    +0.000 N 
ATOM      4  H   UNL     1       3.643   6.661  20.256  0.00  0.00    +0.000 HD
ENDROOT
BRANCH   3   5
ATOM      5  C   UNL     1       2.199   7.841  19.337  0.00  0.00    +0.000 A 
ATOM      6  C   UNL     1       2.274   8.503  18.091  0.00  0.00    +0.000 A 
ATOM      7  C   UNL     1       1.598   9.712  17.794  0.00  0.00    +0.000 A 
ATOM      8  C   UNL     1       0.781  10.381  18.716  0.00  0.00    +0.000 A 
ATOM      9  C   UNL     1       0.663   9.775  19.988  0.00  0.00    +0.000 A 
ATOM     10  N   UNL     1      -0.056  10.250  21.016  0.00  0.00    +0.000 NA
ATOM     11  S   UNL     1       0.150   9.183  22.270  0.00  0.00    +0.000 S 
ATOM     12  N   UNL     1       1.141   8.048  21.563  0.00  0.00    +0.000 NA
ATOM     13  C   UNL     1       1.373   8.478  20.309  0.00  0.00    +0.000 A 
ENDBRANCH   3   5
BRANCH   2  14
ATOM     14  C   UNL     1       3.210   4.181  19.650  0.00  0.00    +0.000 C 
BRANCH  14  15
ATOM     15  O   UNL     1       4.627   4.098  19.630  0.00  0.00    +0.000 OA
BRANCH  15  16
ATOM     16  C   UNL     1       5.165   4.185  18.366  0.00  0.00    +0.000 A 
ATOM     17  C   UNL     1       6.356   4.910  18.258  0.00  0.00    +0.000 A 
ATOM     18  C   UNL     1       6.969   5.090  17.011  0.00  0.00    +0.000 A 
ATOM     19  C   UNL     1       6.391   4.523  15.868  0.00  0.00    +0.000 A 
ATOM     20  C   UNL     1       5.221   3.765  15.970  0.00  0.00    +0.000 A 
ATOM     21  C   UNL     1       4.617   3.594  17.219  0.00  0.00    +0.000 A 
BRANCH  19  22
ATOM     22  N   UNL     1       7.009   4.723  14.550  0.00  0.00    +0.000 N 
ATOM     23  O   UNL     1       7.912   5.567  14.461  0.00  0.00    +0.000 OA
ATOM     24  O   UNL     1       6.591   4.041  13.608  0.00  0.00    +0.000 OA
ENDBRANCH  19  22
ENDBRANCH  15  16
ENDBRANCH  14  15
ENDBRANCH   2  14
TORSDOF 5
ENDMDL
MODEL 3
REMARK VINA RESULT:      -7.3      6.498      8.293
REMARK  Name = 
REMARK  5 active torsions:
REMARK  status: ('A' for Active; 'I' for Inactive)
REMARK    1  A    between atoms: C_2  and  C_3
REMARK    2  A    between atoms: C_3  and  O_4
REMARK    3  A    between atoms: O_4  and  C_5
REMARK    4  A    between atoms: C_8  and  N_9
REMARK    5  A    between atoms: N_14  and  C_15
REMARK                            x       y       z     vdW  Elec       q    Type
REMARK                         _______ _______ _______ _____ _____    ______ ____
ROOT
ATOM      1  O   UNL     1       8.212   6.898  18.722  0.00  0.00    +0.000 OA
ATOM      2  C   UNL     1       7.819   7.742  17.915  0.00  0.00    +0.000 C 
ATOM      3  N   UNL     1       6.961   7.495  16.868  0.00  0.00    +0.000 N 
ATOM      4  H   UNL     1       6.897   8.194  16.129  0.00  0.00    +0.000 HD
ENDROOT
BRANCH   3   5
ATOM      5  C   UNL     1       6.255   6.289  16.658  0.00  0.00    +0.000 A 
ATOM      6  C   UNL     1       6.779   5.181  15.954  0.00  0.00    +0.000 A 
ATOM      7  C   UNL     1       6.086   3.959  15.771  0.00  0.00    +0.000 A 
ATOM      8  C   UNL     1       4.799   3.724  16.274  0.00  0.00    +0.000 A 
ATOM      9  C   UNL     1       4.211   4.795  16.987  0.00  0.00    +0.000 A 
ATOM     10  N   UNL     1       2.989   4.786  17.540  0.00  0.00    +0.000 NA
ATOM     11  S   UNL     1       2.778   6.276  18.240  0.00  0.00    +0.000 S 
ATOM     12  N   UNL     1       4.239   6.998  17.901  0.00  0.00    +0.000 NA
ATOM     13  C   UNL     1       4.949   6.098  17.195  0.00  0.00    +0.000 A 
ENDBRANCH   3   5
BRANCH   2  14
ATOM     14  C   UNL     1       8.271   9.190  18.084  0.00  0.00    +0.000 C 
BRANCH  14  15
ATOM     15  O   UNL     1       9.159   9.474  19.156  0.00  0.00    +0.000 OA
BRANCH  15  16
ATOM     16  C   UNL     1       9.547  10.793  19.214  0.00  0.00    +0.000 A 
ATOM     17  C   UNL     1       9.574  11.475  17.993  0.00  0.00    +0.000 A 
ATOM     18  C   UNL     1       9.988  12.813  17.934  0.00  0.00    +0.000 A 
ATOM     19  C   UNL     1      10.360  13.473  19.112  0.00  0.00    +0.000 A 
ATOM     20  C   UNL     1      10.302  12.812  20.342  0.00  0.00    +0.000 A 
ATOM     21  C   UNL     1       9.890  11.477  20.388  0.00  0.00    +0.000 A 
BRANCH  19  22
ATOM     22  N   UNL     1      10.819  14.868  19.063  0.00  0.00    +0.000 N 
ATOM     23  O   UNL     1      10.889  15.412  17.952  0.00  0.00    +0.000 OA
ATOM     24  O   UNL     1      11.113  15.416  20.132  0.00  0.00    +0.000 OA
ENDBRANCH  19  22
ENDBRANCH  15  16
ENDBRANCH  14  15
ENDBRANCH   2  14
TORSDOF 5
ENDMDL
MODEL 4
REMARK VINA RESULT:      -7.3      3.602      5.342
REMARK  Name = 
REMARK  5 active torsions:
REMARK  status: ('A' for Active; 'I' for Inactive)
REMARK    1  A    between atoms: C_2  and  C_3
REMARK    2  A    between atoms: C_3  and  O_4
REMARK    3  A    between atoms: O_4  and  C_5
REMARK    4  A    between atoms: C_8  and  N_9
REMARK    5  A    between atoms: N_14  and  C_15
REMARK                            x       y       z     vdW  Elec       q    Type
REMARK                         _______ _______ _______ _____ _____    ______ ____
ROOT
ATOM      1  O   UNL     1       6.307   5.357  18.631  0.00  0.00    +0.000 OA
ATOM      2  C   UNL     1       5.691   5.833  17.676  0.00  0.00    +0.000 C 
ATOM      3  N   UNL     1       4.321   5.845  17.546  0.00  0.00    +0.000 N 
ATOM      4  H   UNL     1       3.931   6.036  16.624  0.00  0.00    +0.000 HD
ENDROOT
BRANCH   3   5
ATOM      5  C   UNL     1       3.402   5.480  18.556  0.00  0.00    +0.000 A 
ATOM      6  C   UNL     1       2.810   6.399  19.452  0.00  0.00    +0.000 A 
ATOM      7  C   UNL     1       1.863   6.040  20.444  0.00  0.00    +0.000 A 
ATOM      8  C   UNL     1       1.417   4.726  20.638  0.00  0.00    +0.000 A 
ATOM      9  C   UNL     1       1.973   3.752  19.776  0.00  0.00    +0.000 A 
ATOM     10  N   UNL     1       1.694   2.440  19.798  0.00  0.00    +0.000 NA
ATOM     11  S   UNL     1       2.613   1.743  18.605  0.00  0.00    +0.000 S 
ATOM     12  N   UNL     1       3.391   3.076  17.981  0.00  0.00    +0.000 NA
ATOM     13  C   UNL     1       2.976   4.130  18.709  0.00  0.00    +0.000 A 
ENDBRANCH   3   5
BRANCH   2  14
ATOM     14  C   UNL     1       6.477   6.504  16.553  0.00  0.00    +0.000 C 
BRANCH  14  15
ATOM     15  O   UNL     1       7.467   5.726  15.897  0.00  0.00    +0.000 OA
BRANCH  15  16
ATOM     16  C   UNL     1       6.989   5.032  14.808  0.00  0.00    +0.000 A 
ATOM     17  C   UNL     1       5.805   4.317  15.013  0.00  0.00    +0.000 A 
ATOM     18  C   UNL     1       5.251   3.547  13.981  0.00  0.00    +0.000 A 
ATOM     19  C   UNL     1       5.882   3.510  12.731  0.00  0.00    +0.000 A 
ATOM     20  C   UNL     1       7.046   4.250  12.505  0.00  0.00    +0.000 A 
ATOM     21  C   UNL     1       7.591   5.013  13.542  0.00  0.00    +0.000 A 
BRANCH  19  22
ATOM     22  N   UNL     1       5.326   2.689  11.647  0.00  0.00    +0.000 N 
ATOM     23  O   UNL     1       6.004   1.734  11.243  0.00  0.00    +0.000 OA
ATOM     24  O   UNL     1       4.216   3.001  11.199  0.00  0.00    +0.000 OA
ENDBRANCH  19  22
ENDBRANCH  15  16
ENDBRANCH  14  15
ENDBRANCH   2  14
TORSDOF 5
ENDMDL
MODEL 5
REMARK VINA RESULT:      -7.3      6.948      8.898
REMARK  Name = 
REMARK  5 active torsions:
REMARK  status: ('A' for Active; 'I' for Inactive)
REMARK    1  A    between atoms: C_2  and  C_3
REMARK    2  A    between atoms: C_3  and  O_4
REMARK    3  A    between atoms: O_4  and  C_5
REMARK    4  A    between atoms: C_8  and  N_9
REMARK    5  A    between atoms: N_14  and  C_15
REMARK                            x       y       z     vdW  Elec       q    Type
REMARK                         _______ _______ _______ _____ _____    ______ ____
ROOT
ATOM      1  O   UNL     1       8.343   7.003  18.672  0.00  0.00    +0.000 OA
ATOM      2  C   UNL     1       7.838   7.870  17.958  0.00  0.00    +0.000 C 
ATOM      3  N   UNL     1       6.793   7.666  17.086  0.00  0.00    +0.000 N 
ATOM      4  H   UNL     1       6.618   8.376  16.376  0.00  0.00    +0.000 HD
ENDROOT
BRANCH   3   5
ATOM      5  C   UNL     1       6.019   6.486  17.002  0.00  0.00    +0.000 A 
ATOM      6  C   UNL     1       4.983   6.157  17.905  0.00  0.00    +0.000 A 
ATOM      7  C   UNL     1       4.183   4.992  17.803  0.00  0.00    +0.000 A 
ATOM      8  C   UNL     1       4.344   4.038  16.788  0.00  0.00    +0.000 A 
ATOM      9  C   UNL     1       5.368   4.303  15.850  0.00  0.00    +0.000 A 
ATOM     10  N   UNL     1       5.696   3.520  14.811  0.00  0.00    +0.000 NA
ATOM     11  S   UNL     1       6.960   4.268  14.038  0.00  0.00    +0.000 S 
ATOM     12  N   UNL     1       7.137   5.638  14.966  0.00  0.00    +0.000 NA
ATOM     13  C   UNL     1       6.218   5.550  15.947  0.00  0.00    +0.000 A 
ENDBRANCH   3   5
BRANCH   2  14
ATOM     14  C   UNL     1       8.364   9.300  18.050  0.00  0.00    +0.000 C 
BRANCH  14  15
ATOM     15  O   UNL     1       9.249   9.600  19.119  0.00  0.00    +0.000 OA
BRANCH  15  16
ATOM     16  C   UNL     1       9.767  10.874  19.063  0.00  0.00    +0.000 A 
ATOM     17  C   UNL     1       9.845  11.556  20.281  0.00  0.00    +0.000 A 
ATOM     18  C   UNL     1      10.324  12.872  20.331  0.00  0.00    +0.000 A 
ATOM     19  C   UNL     1      10.744  13.500  19.152  0.00  0.00    +0.000 A 
ATOM     20  C   UNL     1      10.706  12.815  17.934  0.00  0.00    +0.000 A 
ATOM     21  C   UNL     1      10.223  11.503  17.896  0.00  0.00    +0.000 A 
BRANCH  19  22
ATOM     22  N   UNL     1      11.226  14.887  19.185  0.00  0.00    +0.000 N 
ATOM     23  O   UNL     1      12.153  15.156  19.962  0.00  0.00    +0.000 OA
ATOM     24  O   UNL     1      10.676  15.706  18.439  0.00  0.00    +0.000 OA
ENDBRANCH  19  22
ENDBRANCH  15  16
ENDBRANCH  14  15
ENDBRANCH   2  14
TORSDOF 5
ENDMDL
MODEL 6
REMARK VINA RESULT:      -7.3      6.470      8.175
REMARK  Name = 
REMARK  5 active torsions:
REMARK  status: ('A' for Active; 'I' for Inactive)
REMARK    1  A    between atoms: C_2  and  C_3
REMARK    2  A    between atoms: C_3  and  O_4
REMARK    3  A    between atoms: O_4  and  C_5
REMARK    4  A    between atoms: C_8  and  N_9
REMARK    5  A    between atoms: N_14  and  C_15
REMARK                            x       y       z     vdW  Elec       q    Type
REMARK                         _______ _______ _______ _____ _____    ______ ____
ROOT
ATOM      1  O   UNL     1       8.119   6.940  18.654  0.00  0.00    +0.000 OA
ATOM      2  C   UNL     1       7.738   7.718  17.778  0.00  0.00    +0.000 C 
ATOM      3  N   UNL     1       6.854   7.404  16.771  0.00  0.00    +0.000 N 
ATOM      4  H   UNL     1       6.798   8.033  15.971  0.00  0.00    +0.000 HD
ENDROOT
BRANCH   3   5
ATOM      5  C   UNL     1       6.108   6.206  16.685  0.00  0.00    +0.000 A 
ATOM      6  C   UNL     1       6.581   5.025  16.070  0.00  0.00    +0.000 A 
ATOM      7  C   UNL     1       5.848   3.814  16.012  0.00  0.00    +0.000 A 
ATOM      8  C   UNL     1       4.567   3.665  16.562  0.00  0.00    +0.000 A 
ATOM      9  C   UNL     1       4.030   4.813  17.191  0.00  0.00    +0.000 A 
ATOM     10  N   UNL     1       2.822   4.891  17.769  0.00  0.00    +0.000 NA
ATOM     11  S   UNL     1       2.673   6.443  18.340  0.00  0.00    +0.000 S 
ATOM     12  N   UNL     1       4.145   7.085  17.906  0.00  0.00    +0.000 NA
ATOM     13  C   UNL     1       4.811   6.105  17.266  0.00  0.00    +0.000 A 
ENDBRANCH   3   5
BRANCH   2  14
ATOM     14  C   UNL     1       8.237   9.160  17.805  0.00  0.00    +0.000 C 
BRANCH  14  15
ATOM     15  O   UNL     1       8.793   9.634  19.024  0.00  0.00    +0.000 OA
BRANCH  15  16
ATOM     16  C   UNL     1       9.387  10.871  18.913  0.00  0.00    +0.000 A 
ATOM     17  C   UNL     1      10.429  11.130  19.808  0.00  0.00    +0.000 A 
ATOM     18  C   UNL     1      11.079  12.371  19.804  0.00  0.00    +0.000 A 
ATOM     19  C   UNL     1      10.690  13.352  18.883  0.00  0.00    +0.000 A 
ATOM     20  C   UNL     1       9.674  13.091  17.960  0.00  0.00    +0.000 A 
ATOM     21  C   UNL     1       9.031  11.850  17.974  0.00  0.00    +0.000 A 
BRANCH  19  22
ATOM     22  N   UNL     1      11.345  14.667  18.884  0.00  0.00    +0.000 N 
ATOM     23  O   UNL     1      12.333  14.818  19.616  0.00  0.00    +0.000 OA
ATOM     24  O   UNL     1      10.870  15.547  18.156  0.00  0.00    +0.000 OA
ENDBRANCH  19  22
ENDBRANCH  15  16
ENDBRANCH  14  15
ENDBRANCH   2  14
TORSDOF 5
ENDMDL
MODEL 7
REMARK VINA RESULT:      -7.3      6.866      8.879
REMARK  Name = 
REMARK  5 active torsions:
REMARK  status: ('A' for Active; 'I' for Inactive)
REMARK    1  A    between atoms: C_2  and  C_3
REMARK    2  A    between atoms: C_3  and  O_4
REMARK    3  A    between atoms: O_4  and  C_5
REMARK    4  A    between atoms: C_8  and  N_9
REMARK    5  A    between atoms: N_14  and  C_15
REMARK                            x       y       z     vdW  Elec       q    Type
REMARK                         _______ _______ _______ _____ _____    ______ ____
ROOT
ATOM      1  O   UNL     1       8.280   6.913  18.719  0.00  0.00    +0.000 OA
ATOM      2  C   UNL     1       7.812   7.778  17.977  0.00  0.00    +0.000 C 
ATOM      3  N   UNL     1       6.805   7.575  17.062  0.00  0.00    +0.000 N 
ATOM      4  H   UNL     1       6.666   8.281  16.341  0.00  0.00    +0.000 HD
ENDROOT
BRANCH   3   5
ATOM      5  C   UNL     1       6.027   6.399  16.953  0.00  0.00    +0.000 A 
ATOM      6  C   UNL     1       5.003   6.044  17.859  0.00  0.00    +0.000 A 
ATOM      7  C   UNL     1       4.200   4.884  17.732  0.00  0.00    +0.000 A 
ATOM      8  C   UNL     1       4.344   3.962  16.686  0.00  0.00    +0.000 A 
ATOM      9  C   UNL     1       5.357   4.254  15.742  0.00  0.00    +0.000 A 
ATOM     10  N   UNL     1       5.669   3.503  14.675  0.00  0.00    +0.000 NA
ATOM     11  S   UNL     1       6.924   4.273  13.909  0.00  0.00    +0.000 S 
ATOM     12  N   UNL     1       7.116   5.613  14.876  0.00  0.00    +0.000 NA
ATOM     13  C   UNL     1       6.210   5.497  15.866  0.00  0.00    +0.000 A 
ENDBRANCH   3   5
BRANCH   2  14
ATOM     14  C   UNL     1       8.343   9.205  18.083  0.00  0.00    +0.000 C 
BRANCH  14  15
ATOM     15  O   UNL     1       9.285   9.475  19.112  0.00  0.00    +0.000 OA
BRANCH  15  16
ATOM     16  C   UNL     1       9.671  10.795  19.171  0.00  0.00    +0.000 A 
ATOM     17  C   UNL     1      10.150  11.345  17.977  0.00  0.00    +0.000 A 
ATOM     18  C   UNL     1      10.603  12.670  17.935  0.00  0.00    +0.000 A 
ATOM     19  C   UNL     1      10.557  13.453  19.096  0.00  0.00    +0.000 A 
ATOM     20  C   UNL     1      10.047  12.925  20.285  0.00  0.00    +0.000 A 
ATOM     21  C   UNL     1       9.600  11.601  20.316  0.00  0.00    +0.000 A 
BRANCH  19  22
ATOM     22  N   UNL     1      11.051  14.837  19.073  0.00  0.00    +0.000 N 
ATOM     23  O   UNL     1      11.846  15.179  19.960  0.00  0.00    +0.000 OA
ATOM     24  O   UNL     1      10.642  15.580  18.173  0.00  0.00    +0.000 OA
ENDBRANCH  19  22
ENDBRANCH  15  16
ENDBRANCH  14  15
ENDBRANCH   2  14
TORSDOF 5
ENDMDL
MODEL 8
REMARK VINA RESULT:      -7.2      1.340      1.767
REMARK  Name = 
REMARK  5 active torsions:
REMARK  status: ('A' for Active; 'I' for Inactive)
REMARK    1  A    between atoms: C_2  and  C_3
REMARK    2  A    between atoms: C_3  and  O_4
REMARK    3  A    between atoms: O_4  and  C_5
REMARK    4  A    between atoms: C_8  and  N_9
REMARK    5  A    between atoms: N_14  and  C_15
REMARK                            x       y       z     vdW  Elec       q    Type
REMARK                         _______ _______ _______ _____ _____    ______ ____
ROOT
ATOM      1  O   UNL     1       2.185   5.837  17.934  0.00  0.00    +0.000 OA
ATOM      2  C   UNL     1       2.764   6.002  19.009  0.00  0.00    +0.000 C 
ATOM      3  N   UNL     1       2.719   7.153  19.762  0.00  0.00    +0.000 N 
ATOM      4  H   UNL     1       3.418   7.272  20.495  0.00  0.00    +0.000 HD
ENDROOT
BRANCH   3   5
ATOM      5  C   UNL     1       1.867   8.254  19.520  0.00  0.00    +0.000 A 
ATOM      6  C   UNL     1       1.688   8.848  18.250  0.00  0.00    +0.000 A 
ATOM      7  C   UNL     1       0.808   9.930  17.998  0.00  0.00    +0.000 A 
ATOM      8  C   UNL     1       0.023  10.527  18.994  0.00  0.00    +0.000 A 
ATOM      9  C   UNL     1       0.156   9.984  20.293  0.00  0.00    +0.000 A 
ATOM     10  N   UNL     1      -0.492  10.411  21.387  0.00  0.00    +0.000 NA
ATOM     11  S   UNL     1       0.025   9.456  22.643  0.00  0.00    +0.000 S 
ATOM     12  N   UNL     1       1.077   8.435  21.856  0.00  0.00    +0.000 NA
ATOM     13  C   UNL     1       1.084   8.822  20.566  0.00  0.00    +0.000 A 
ENDBRANCH   3   5
BRANCH   2  14
ATOM     14  C   UNL     1       3.571   4.848  19.597  0.00  0.00    +0.000 C 
BRANCH  14  15
ATOM     15  O   UNL     1       4.987   4.960  19.565  0.00  0.00    +0.000 OA
BRANCH  15  16
ATOM     16  C   UNL     1       5.505   5.021  18.291  0.00  0.00    +0.000 A 
ATOM     17  C   UNL     1       5.146   3.975  17.436  0.00  0.00    +0.000 A 
ATOM     18  C   UNL     1       5.647   3.921  16.129  0.00  0.00    +0.000 A 
ATOM     19  C   UNL     1       6.500   4.934  15.673  0.00  0.00    +0.000 A 
ATOM     20  C   UNL     1       6.836   6.003  16.507  0.00  0.00    +0.000 A 
ATOM     21  C   UNL     1       6.332   6.045  17.811  0.00  0.00    +0.000 A 
BRANCH  19  22
ATOM     22  N   UNL     1       7.052   4.878  14.312  0.00  0.00    +0.000 N 
ATOM     23  O   UNL     1       8.051   5.570  14.068  0.00  0.00    +0.000 OA
ATOM     24  O   UNL     1       6.487   4.147  13.491  0.00  0.00    +0.000 OA
ENDBRANCH  19  22
ENDBRANCH  15  16
ENDBRANCH  14  15
ENDBRANCH   2  14
TORSDOF 5
ENDMDL
MODEL 9
REMARK VINA RESULT:      -7.2      6.648      7.903
REMARK  Name = 
REMARK  5 active torsions:
REMARK  status: ('A' for Active; 'I' for Inactive)
REMARK    1  A    between atoms: C_2  and  C_3
REMARK    2  A    between atoms: C_3  and  O_4
REMARK    3  A    between atoms: O_4  and  C_5
REMARK    4  A    between atoms: C_8  and  N_9
REMARK    5  A    between atoms: N_14  and  C_15
REMARK                            x       y       z     vdW  Elec       q    Type
REMARK                         _______ _______ _______ _____ _____    ______ ____
ROOT
ATOM      1  O   UNL     1       7.953  10.371  17.723  0.00  0.00    +0.000 OA
ATOM      2  C   UNL     1       8.540   9.522  18.397  0.00  0.00    +0.000 C 
ATOM      3  N   UNL     1       9.445   9.795  19.397  0.00  0.00    +0.000 N 
ATOM      4  H   UNL     1      10.046   9.036  19.717  0.00  0.00    +0.000 HD
ENDROOT
BRANCH   3   5
ATOM      5  C   UNL     1       9.710  11.077  19.931  0.00  0.00    +0.000 A 
ATOM      6  C   UNL     1       9.152  11.559  21.136  0.00  0.00    +0.000 A 
ATOM      7  C   UNL     1       9.441  12.830  21.691  0.00  0.00    +0.000 A 
ATOM      8  C   UNL     1      10.318  13.746  21.093  0.00  0.00    +0.000 A 
ATOM      9  C   UNL     1      10.911  13.329  19.878  0.00  0.00    +0.000 A 
ATOM     10  N   UNL     1      11.766  14.051  19.139  0.00  0.00    +0.000 NA
ATOM     11  S   UNL     1      12.150  13.120  17.820  0.00  0.00    +0.000 S 
ATOM     12  N   UNL     1      11.272  11.743  18.134  0.00  0.00    +0.000 NA
ATOM     13  C   UNL     1      10.614  11.969  19.287  0.00  0.00    +0.000 A 
ENDBRANCH   3   5
BRANCH   2  14
ATOM     14  C   UNL     1       8.234   8.047  18.154  0.00  0.00    +0.000 C 
BRANCH  14  15
ATOM     15  O   UNL     1       7.420   7.727  17.035  0.00  0.00    +0.000 OA
BRANCH  15  16
ATOM     16  C   UNL     1       6.612   6.630  17.239  0.00  0.00    +0.000 A 
ATOM     17  C   UNL     1       5.287   6.762  16.815  0.00  0.00    +0.000 A 
ATOM     18  C   UNL     1       4.371   5.719  17.006  0.00  0.00    +0.000 A 
ATOM     19  C   UNL     1       4.796   4.529  17.612  0.00  0.00    +0.000 A 
ATOM     20  C   UNL     1       6.127   4.373  18.006  0.00  0.00    +0.000 A 
ATOM     21  C   UNL     1       7.031   5.422  17.812  0.00  0.00    +0.000 A 
BRANCH  19  22
ATOM     22  N   UNL     1       3.841   3.436  17.841  0.00  0.00    +0.000 N 
ATOM     23  O   UNL     1       2.861   3.360  17.087  0.00  0.00    +0.000 OA
ATOM     24  O   UNL     1       4.070   2.658  18.775  0.00  0.00    +0.000 OA
ENDBRANCH  19  22
ENDBRANCH  15  16
ENDBRANCH  14  15
ENDBRANCH   2  14
TORSDOF 5
ENDMDL
