MODEL 1
REMARK VINA RESULT:      -7.8      0.000      0.000
REMARK  Name = 
REMARK  9 active torsions:
REMARK  status: ('A' for Active; 'I' for Inactive)
REMARK    1  A    between atoms: C_1  and  N_2
REMARK    2  A    between atoms: N_2  and  C_3
REMARK    3  A    between atoms: N_2  and  S_22
REMARK    4  A    between atoms: C_3  and  C_4
REMARK    5  A    between atoms: C_4  and  N_5
REMARK    6  A    between atoms: N_5  and  C_6
REMARK    7  A    between atoms: C_8  and  C_9
REMARK    8  A    between atoms: N_20  and  C_21
REMARK    9  A    between atoms: S_22  and  C_23
REMARK                            x       y       z     vdW  Elec       q    Type
REMARK                         _______ _______ _______ _____ _____    ______ ____
ROOT
ATOM      1  C   UNL     1       4.851   4.647  19.480  0.00  0.00    +0.000 A 
ATOM      2  N   UNL     1       4.288   5.868  19.345  0.00  0.00    +0.000 NA
ATOM      3  C   UNL     1       2.960   5.975  19.094  0.00  0.00    +0.000 A 
ATOM      4  N   UNL     1       2.099   4.956  18.914  0.00  0.00    +0.000 NA
ATOM      5  C   UNL     1       2.696   3.763  19.034  0.00  0.00    +0.000 A 
ATOM      6  C   UNL     1       4.026   3.528  19.321  0.00  0.00    +0.000 A 
ATOM      7  C   UNL     1       4.124   2.120  19.352  0.00  0.00    +0.000 A 
ATOM      8  N   UNL     1       2.969   1.508  19.072  0.00  0.00    +0.000 NA
ATOM      9  N   UNL     1       2.112   2.535  18.902  0.00  0.00    +0.000 N 
ATOM     10  C   UNL     1       0.725   2.279  18.611  0.00  0.00    +0.000 C 
ENDROOT
BRANCH   3  11
ATOM     11  C   UNL     1       2.396   7.330  19.013  0.00  0.00    +0.000 A 
ATOM     12  C   UNL     1       2.489   8.122  17.858  0.00  0.00    +0.000 A 
ATOM     13  C   UNL     1       1.947   9.405  17.833  0.00  0.00    +0.000 A 
ATOM     14  C   UNL     1       1.321   9.876  18.974  0.00  0.00    +0.000 A 
ATOM     15  N   UNL     1       1.202   9.159  20.109  0.00  0.00    +0.000 NA
ATOM     16  C   UNL     1       1.740   7.913  20.099  0.00  0.00    +0.000 A 
ENDBRANCH   3  11
BRANCH   1  17
ATOM     17  N   UNL     1       6.217   4.639  19.747  0.00  0.00    +0.000 N 
ATOM     18  H   UNL     1       6.325   4.611  20.759  0.00  0.00    +0.000 HD
BRANCH  17  19
ATOM     19  C   UNL     1       7.057   5.593  19.033  0.00  0.00    +0.000 C 
BRANCH  19  20
ATOM     20  C   UNL     1       7.490   5.040  17.671  0.00  0.00    +0.000 C 
BRANCH  20  22
ATOM     21  C   UNL     1       7.221   7.432  16.973  0.00  0.00    +0.000 C 
ATOM     22  N   UNL     1       7.351   6.018  16.547  0.00  0.00    +0.000 NA
BRANCH  22  23
ATOM     23  S   UNL     1       6.321   5.542  15.279  0.00  0.00    +0.000 S 
ATOM     24  C   UNL     1       5.645   4.013  15.923  0.00  0.00    +0.000 C 
ATOM     25  O   UNL     1       5.226   6.491  15.202  0.00  0.00    +0.000 OA
ATOM     26  O   UNL     1       7.148   5.248  14.133  0.00  0.00    +0.000 OA
ENDBRANCH  22  23
ENDBRANCH  20  22
ENDBRANCH  19  20
ENDBRANCH  17  19
ENDBRANCH   1  17
TORSDOF 6
ENDMDL
MODEL 2
REMARK VINA RESULT:      -7.5      0.939      1.303
REMARK  Name = 
REMARK  9 active torsions:
REMARK  status: ('A' for Active; 'I' for Inactive)
REMARK    1  A    between atoms: C_1  and  N_2
REMARK    2  A    between atoms: N_2  and  C_3
REMARK    3  A    between atoms: N_2  and  S_22
REMARK    4  A    between atoms: C_3  and  C_4
REMARK    5  A    between atoms: C_4  and  N_5
REMARK    6  A    between atoms: N_5  and  C_6
REMARK    7  A    between atoms: C_8  and  C_9
REMARK    8  A    between atoms: N_20  and  C_21
REMARK    9  A    between atoms: S_22  and  C_23
REMARK                            x       y       z     vdW  Elec       q    Type
REMARK                         _______ _______ _______ _____ _____    ______ ____
ROOT
ATOM      1  C   UNL     1       4.749   4.587  19.472  0.00  0.00    +0.000 A 
ATOM      2  N   UNL     1       4.231   5.824  19.301  0.00  0.00    +0.000 NA
ATOM      3  C   UNL     1       2.911   5.970  19.030  0.00  0.00    +0.000 A 
ATOM      4  N   UNL     1       2.018   4.977  18.863  0.00  0.00    +0.000 NA
ATOM      5  C   UNL     1       2.571   3.768  19.019  0.00  0.00    +0.000 A 
ATOM      6  C   UNL     1       3.888   3.494  19.329  0.00  0.00    +0.000 A 
ATOM      7  C   UNL     1       3.937   2.085  19.393  0.00  0.00    +0.000 A 
ATOM      8  N   UNL     1       2.765   1.506  19.112  0.00  0.00    +0.000 NA
ATOM      9  N   UNL     1       1.946   2.558  18.907  0.00  0.00    +0.000 N 
ATOM     10  C   UNL     1       0.555   2.343  18.604  0.00  0.00    +0.000 C 
ENDROOT
BRANCH   3  11
ATOM     11  C   UNL     1       2.396   7.342  18.910  0.00  0.00    +0.000 A 
ATOM     12  C   UNL     1       1.701   7.984  19.946  0.00  0.00    +0.000 A 
ATOM     13  C   UNL     1       1.222   9.282  19.780  0.00  0.00    +0.000 A 
ATOM     14  C   UNL     1       1.448   9.916  18.571  0.00  0.00    +0.000 A 
ATOM     15  N   UNL     1       2.110   9.348  17.543  0.00  0.00    +0.000 NA
ATOM     16  C   UNL     1       2.564   8.084  17.739  0.00  0.00    +0.000 A 
ENDBRANCH   3  11
BRANCH   1  17
ATOM     17  N   UNL     1       6.111   4.539  19.757  0.00  0.00    +0.000 N 
ATOM     18  H   UNL     1       6.203   4.292  20.741  0.00  0.00    +0.000 HD
BRANCH  17  19
ATOM     19  C   UNL     1       6.946   5.636  19.284  0.00  0.00    +0.000 C 
BRANCH  19  20
ATOM     20  C   UNL     1       7.800   5.206  18.085  0.00  0.00    +0.000 C 
BRANCH  20  22
ATOM     21  C   UNL     1       7.121   7.407  17.097  0.00  0.00    +0.000 C 
ATOM     22  N   UNL     1       7.558   6.012  16.848  0.00  0.00    +0.000 NA
BRANCH  22  23
ATOM     23  S   UNL     1       6.741   5.207  15.592  0.00  0.00    +0.000 S 
ATOM     24  C   UNL     1       5.234   6.168  15.472  0.00  0.00    +0.000 C 
ATOM     25  O   UNL     1       7.479   5.419  14.360  0.00  0.00    +0.000 OA
ATOM     26  O   UNL     1       6.420   3.880  16.061  0.00  0.00    +0.000 OA
ENDBRANCH  22  23
ENDBRANCH  20  22
ENDBRANCH  19  20
ENDBRANCH  17  19
ENDBRANCH   1  17
TORSDOF 6
ENDMDL
MODEL 3
REMARK VINA RESULT:      -7.5      3.181      5.354
REMARK  Name = 
REMARK  9 active torsions:
REMARK  status: ('A' for Active; 'I' for Inactive)
REMARK    1  A    between atoms: C_1  and  N_2
REMARK    2  A    between atoms: N_2  and  C_3
REMARK    3  A    between atoms: N_2  and  S_22
REMARK    4  A    between atoms: C_3  and  C_4
REMARK    5  A    between atoms: C_4  and  N_5
REMARK    6  A    between atoms: N_5  and  C_6
REMARK    7  A    between atoms: C_8  and  C_9
REMARK    8  A    between atoms: N_20  and  C_21
REMARK    9  A    between atoms: S_22  and  C_23
REMARK                            x       y       z     vdW  Elec       q    Type
REMARK                         _______ _______ _______ _____ _____    ______ ____
ROOT
ATOM      1  C   UNL     1       4.031   4.729  17.109  0.00  0.00    +0.000 A 
ATOM      2  N   UNL     1       3.143   5.609  17.621  0.00  0.00    +0.000 NA
ATOM      3  C   UNL     1       3.551   6.854  17.968  0.00  0.00    +0.000 A 
ATOM      4  N   UNL     1       4.809   7.328  17.897  0.00  0.00    +0.000 NA
ATOM      5  C   UNL     1       5.664   6.422  17.406  0.00  0.00    +0.000 A 
ATOM      6  C   UNL     1       5.363   5.142  16.987  0.00  0.00    +0.000 A 
ATOM      7  C   UNL     1       6.601   4.626  16.547  0.00  0.00    +0.000 A 
ATOM      8  N   UNL     1       7.612   5.486  16.706  0.00  0.00    +0.000 NA
ATOM      9  N   UNL     1       7.008   6.580  17.214  0.00  0.00    +0.000 N 
ATOM     10  C   UNL     1       7.775   7.764  17.499  0.00  0.00    +0.000 C 
ENDROOT
BRANCH   3  11
ATOM     11  C   UNL     1       2.528   7.784  18.468  0.00  0.00    +0.000 A 
ATOM     12  C   UNL     1       1.943   8.772  17.662  0.00  0.00    +0.000 A 
ATOM     13  C   UNL     1       0.985   9.638  18.185  0.00  0.00    +0.000 A 
ATOM     14  C   UNL     1       0.629   9.498  19.515  0.00  0.00    +0.000 A 
ATOM     15  N   UNL     1       1.156   8.566  20.334  0.00  0.00    +0.000 NA
ATOM     16  C   UNL     1       2.086   7.739  19.792  0.00  0.00    +0.000 A 
ENDBRANCH   3  11
BRANCH   1  17
ATOM     17  N   UNL     1       3.516   3.480  16.771  0.00  0.00    +0.000 N 
ATOM     18  H   UNL     1       3.451   3.446  15.756  0.00  0.00    +0.000 HD
BRANCH  17  19
ATOM     19  C   UNL     1       2.355   2.999  17.510  0.00  0.00    +0.000 C 
BRANCH  19  20
ATOM     20  C   UNL     1       2.776   2.226  18.765  0.00  0.00    +0.000 C 
BRANCH  20  22
ATOM     21  C   UNL     1       0.438   2.794  19.463  0.00  0.00    +0.000 C 
ATOM     22  N   UNL     1       1.756   2.240  19.858  0.00  0.00    +0.000 NA
BRANCH  22  23
ATOM     23  S   UNL     1       2.321   2.723  21.388  0.00  0.00    +0.000 S 
ATOM     24  C   UNL     1       2.343   4.505  21.214  0.00  0.00    +0.000 C 
ATOM     25  O   UNL     1       1.301   2.404  22.371  0.00  0.00    +0.000 OA
ATOM     26  O   UNL     1       3.676   2.244  21.523  0.00  0.00    +0.000 OA
ENDBRANCH  22  23
ENDBRANCH  20  22
ENDBRANCH  19  20
ENDBRANCH  17  19
ENDBRANCH   1  17
TORSDOF 6
ENDMDL
MODEL 4
REMARK VINA RESULT:      -7.4      3.105      5.121
REMARK  Name = 
REMARK  9 active torsions:
REMARK  status: ('A' for Active; 'I' for Inactive)
REMARK    1  A    between atoms: C_1  and  N_2
REMARK    2  A    between atoms: N_2  and  C_3
REMARK    3  A    between atoms: N_2  and  S_22
REMARK    4  A    between atoms: C_3  and  C_4
REMARK    5  A    between atoms: C_4  and  N_5
REMARK    6  A    between atoms: N_5  and  C_6
REMARK    7  A    between atoms: C_8  and  C_9
REMARK    8  A    between atoms: N_20  and  C_21
REMARK    9  A    between atoms: S_22  and  C_23
REMARK                            x       y       z     vdW  Elec       q    Type
REMARK                         _______ _______ _______ _____ _____    ______ ____
ROOT
ATOM      1  C   UNL     1       3.386   4.530  17.286  0.00  0.00    +0.000 A 
ATOM      2  N   UNL     1       2.645   5.513  17.843  0.00  0.00    +0.000 NA
ATOM      3  C   UNL     1       3.212   6.714  18.115  0.00  0.00    +0.000 A 
ATOM      4  N   UNL     1       4.502   7.046  17.923  0.00  0.00    +0.000 NA
ATOM      5  C   UNL     1       5.209   6.042  17.390  0.00  0.00    +0.000 A 
ATOM      6  C   UNL     1       4.738   4.793  17.039  0.00  0.00    +0.000 A 
ATOM      7  C   UNL     1       5.872   4.136  16.513  0.00  0.00    +0.000 A 
ATOM      8  N   UNL     1       6.978   4.884  16.559  0.00  0.00    +0.000 NA
ATOM      9  N   UNL     1       6.540   6.048  17.081  0.00  0.00    +0.000 N 
ATOM     10  C   UNL     1       7.452   7.148  17.263  0.00  0.00    +0.000 C 
ENDROOT
BRANCH   3  11
ATOM     11  C   UNL     1       2.341   7.760  18.669  0.00  0.00    +0.000 A 
ATOM     12  C   UNL     1       1.928   7.772  20.011  0.00  0.00    +0.000 A 
ATOM     13  C   UNL     1       1.093   8.780  20.487  0.00  0.00    +0.000 A 
ATOM     14  C   UNL     1       0.683   9.764  19.604  0.00  0.00    +0.000 A 
ATOM     15  N   UNL     1       1.050   9.804  18.308  0.00  0.00    +0.000 NA
ATOM     16  C   UNL     1       1.864   8.807  17.878  0.00  0.00    +0.000 A 
ENDBRANCH   3  11
BRANCH   1  17
ATOM     17  N   UNL     1       2.713   3.338  17.032  0.00  0.00    +0.000 N 
ATOM     18  H   UNL     1       1.723   3.512  17.191  0.00  0.00    +0.000 HD
BRANCH  17  19
ATOM     19  C   UNL     1       3.256   2.113  17.609  0.00  0.00    +0.000 C 
BRANCH  19  20
ATOM     20  C   UNL     1       2.637   1.824  18.981  0.00  0.00    +0.000 C 
BRANCH  20  22
ATOM     21  C   UNL     1       4.388   2.109  20.749  0.00  0.00    +0.000 C 
ATOM     22  N   UNL     1       3.186   2.669  20.086  0.00  0.00    +0.000 NA
BRANCH  22  23
ATOM     23  S   UNL     1       2.034   3.360  21.129  0.00  0.00    +0.000 S 
ATOM     24  C   UNL     1       0.598   3.454  20.062  0.00  0.00    +0.000 C 
ATOM     25  O   UNL     1       1.727   2.396  22.170  0.00  0.00    +0.000 OA
ATOM     26  O   UNL     1       2.478   4.697  21.444  0.00  0.00    +0.000 OA
ENDBRANCH  22  23
ENDBRANCH  20  22
ENDBRANCH  19  20
ENDBRANCH  17  19
ENDBRANCH   1  17
TORSDOF 6
ENDMDL
MODEL 5
REMARK VINA RESULT:      -7.4      0.731      1.156
REMARK  Name = 
REMARK  9 active torsions:
REMARK  status: ('A' for Active; 'I' for Inactive)
REMARK    1  A    between atoms: C_1  and  N_2
REMARK    2  A    between atoms: N_2  and  C_3
REMARK    3  A    between atoms: N_2  and  S_22
REMARK    4  A    between atoms: C_3  and  C_4
REMARK    5  A    between atoms: C_4  and  N_5
REMARK    6  A    between atoms: N_5  and  C_6
REMARK    7  A    between atoms: C_8  and  C_9
REMARK    8  A    between atoms: N_20  and  C_21
REMARK    9  A    between atoms: S_22  and  C_23
REMARK                            x       y       z     vdW  Elec       q    Type
REMARK                         _______ _______ _______ _____ _____    ______ ____
ROOT
ATOM      1  C   UNL     1       4.879   4.767  19.358  0.00  0.00    +0.000 A 
ATOM      2  N   UNL     1       4.286   5.975  19.240  0.00  0.00    +0.000 NA
ATOM      3  C   UNL     1       2.941   6.055  19.093  0.00  0.00    +0.000 A 
ATOM      4  N   UNL     1       2.086   5.019  19.006  0.00  0.00    +0.000 NA
ATOM      5  C   UNL     1       2.711   3.839  19.107  0.00  0.00    +0.000 A 
ATOM      6  C   UNL     1       4.063   3.631  19.293  0.00  0.00    +0.000 A 
ATOM      7  C   UNL     1       4.188   2.226  19.349  0.00  0.00    +0.000 A 
ATOM      8  N   UNL     1       3.025   1.590  19.176  0.00  0.00    +0.000 NA
ATOM      9  N   UNL     1       2.139   2.599  19.050  0.00  0.00    +0.000 N 
ATOM     10  C   UNL     1       0.739   2.315  18.876  0.00  0.00    +0.000 C 
ENDROOT
BRANCH   3  11
ATOM     11  C   UNL     1       2.349   7.399  19.024  0.00  0.00    +0.000 A 
ATOM     12  C   UNL     1       2.404   8.194  17.868  0.00  0.00    +0.000 A 
ATOM     13  C   UNL     1       1.837   9.467  17.856  0.00  0.00    +0.000 A 
ATOM     14  C   UNL     1       1.224   9.924  19.010  0.00  0.00    +0.000 A 
ATOM     15  N   UNL     1       1.140   9.204  20.146  0.00  0.00    +0.000 NA
ATOM     16  C   UNL     1       1.702   7.968  20.123  0.00  0.00    +0.000 A 
ENDBRANCH   3  11
BRANCH   1  17
ATOM     17  N   UNL     1       6.261   4.786  19.517  0.00  0.00    +0.000 N 
ATOM     18  H   UNL     1       6.449   5.041  20.485  0.00  0.00    +0.000 HD
BRANCH  17  19
ATOM     19  C   UNL     1       7.054   5.470  18.502  0.00  0.00    +0.000 C 
BRANCH  19  20
ATOM     20  C   UNL     1       7.353   4.546  17.316  0.00  0.00    +0.000 C 
BRANCH  20  22
ATOM     21  C   UNL     1       5.672   3.081  16.174  0.00  0.00    +0.000 C 
ATOM     22  N   UNL     1       6.234   4.444  16.329  0.00  0.00    +0.000 NA
BRANCH  22  23
ATOM     23  S   UNL     1       6.445   5.314  14.882  0.00  0.00    +0.000 S 
ATOM     24  C   UNL     1       5.933   4.106  13.662  0.00  0.00    +0.000 C 
ATOM     25  O   UNL     1       5.471   6.389  14.851  0.00  0.00    +0.000 OA
ATOM     26  O   UNL     1       7.858   5.569  14.730  0.00  0.00    +0.000 OA
ENDBRANCH  22  23
ENDBRANCH  20  22
ENDBRANCH  19  20
ENDBRANCH  17  19
ENDBRANCH   1  17
TORSDOF 6
ENDMDL
MODEL 6
REMARK VINA RESULT:      -7.4      3.185      5.101
REMARK  Name = 
REMARK  9 active torsions:
REMARK  status: ('A' for Active; 'I' for Inactive)
REMARK    1  A    between atoms: C_1  and  N_2
REMARK    2  A    between atoms: N_2  and  C_3
REMARK    3  A    between atoms: N_2  and  S_22
REMARK    4  A    between atoms: C_3  and  C_4
REMARK    5  A    between atoms: C_4  and  N_5
REMARK    6  A    between atoms: N_5  and  C_6
REMARK    7  A    between atoms: C_8  and  C_9
REMARK    8  A    between atoms: N_20  and  C_21
REMARK    9  A    between atoms: S_22  and  C_23
REMARK                            x       y       z     vdW  Elec       q    Type
REMARK                         _______ _______ _______ _____ _____    ______ ____
ROOT
ATOM      1  C   UNL     1       3.685   4.691  17.250  0.00  0.00    +0.000 A 
ATOM      2  N   UNL     1       2.863   5.638  17.755  0.00  0.00    +0.000 NA
ATOM      3  C   UNL     1       3.347   6.872  18.035  0.00  0.00    +0.000 A 
ATOM      4  N   UNL     1       4.624   7.276  17.901  0.00  0.00    +0.000 NA
ATOM      5  C   UNL     1       5.412   6.307  17.419  0.00  0.00    +0.000 A 
ATOM      6  C   UNL     1       5.031   5.029  17.065  0.00  0.00    +0.000 A 
ATOM      7  C   UNL     1       6.225   4.431  16.606  0.00  0.00    +0.000 A 
ATOM      8  N   UNL     1       7.284   5.242  16.693  0.00  0.00    +0.000 NA
ATOM      9  N   UNL     1       6.755   6.386  17.174  0.00  0.00    +0.000 N 
ATOM     10  C   UNL     1       7.592   7.539  17.383  0.00  0.00    +0.000 C 
ENDROOT
BRANCH   3  11
ATOM     11  C   UNL     1       2.392   7.874  18.529  0.00  0.00    +0.000 A 
ATOM     12  C   UNL     1       1.838   8.866  17.705  0.00  0.00    +0.000 A 
ATOM     13  C   UNL     1       0.944   9.801  18.223  0.00  0.00    +0.000 A 
ATOM     14  C   UNL     1       0.622   9.727  19.567  0.00  0.00    +0.000 A 
ATOM     15  N   UNL     1       1.121   8.796  20.403  0.00  0.00    +0.000 NA
ATOM     16  C   UNL     1       1.988   7.900  19.866  0.00  0.00    +0.000 A 
ENDBRANCH   3  11
BRANCH   1  17
ATOM     17  N   UNL     1       3.095   3.459  16.983  0.00  0.00    +0.000 N 
ATOM     18  H   UNL     1       2.097   3.560  17.158  0.00  0.00    +0.000 HD
BRANCH  17  19
ATOM     19  C   UNL     1       3.731   2.267  17.530  0.00  0.00    +0.000 C 
BRANCH  19  20
ATOM     20  C   UNL     1       2.968   1.741  18.751  0.00  0.00    +0.000 C 
BRANCH  20  22
ATOM     21  C   UNL     1       4.330   2.040  20.832  0.00  0.00    +0.000 C 
ATOM     22  N   UNL     1       3.204   2.528  20.001  0.00  0.00    +0.000 NA
BRANCH  22  23
ATOM     23  S   UNL     1       1.809   2.985  20.859  0.00  0.00    +0.000 S 
ATOM     24  C   UNL     1       2.130   4.721  21.165  0.00  0.00    +0.000 C 
ATOM     25  O   UNL     1       0.675   2.915  19.956  0.00  0.00    +0.000 OA
ATOM     26  O   UNL     1       1.819   2.274  22.116  0.00  0.00    +0.000 OA
ENDBRANCH  22  23
ENDBRANCH  20  22
ENDBRANCH  19  20
ENDBRANCH  17  19
ENDBRANCH   1  17
TORSDOF 6
ENDMDL
MODEL 7
REMARK VINA RESULT:      -7.2      2.874      5.182
REMARK  Name = 
REMARK  9 active torsions:
REMARK  status: ('A' for Active; 'I' for Inactive)
REMARK    1  A    between atoms: C_1  and  N_2
REMARK    2  A    between atoms: N_2  and  C_3
REMARK    3  A    between atoms: N_2  and  S_22
REMARK    4  A    between atoms: C_3  and  C_4
REMARK    5  A    between atoms: C_4  and  N_5
REMARK    6  A    between atoms: N_5  and  C_6
REMARK    7  A    between atoms: C_8  and  C_9
REMARK    8  A    between atoms: N_20  and  C_21
REMARK    9  A    between atoms: S_22  and  C_23
REMARK                            x       y       z     vdW  Elec       q    Type
REMARK                         _______ _______ _______ _____ _____    ______ ____
ROOT
ATOM      1  C   UNL     1       3.949   4.639  17.159  0.00  0.00    +0.000 A 
ATOM      2  N   UNL     1       3.093   5.541  17.690  0.00  0.00    +0.000 NA
ATOM      3  C   UNL     1       3.536   6.780  18.015  0.00  0.00    +0.000 A 
ATOM      4  N   UNL     1       4.800   7.229  17.904  0.00  0.00    +0.000 NA
ATOM      5  C   UNL     1       5.622   6.302  17.395  0.00  0.00    +0.000 A 
ATOM      6  C   UNL     1       5.284   5.025  16.995  0.00  0.00    +0.000 A 
ATOM      7  C   UNL     1       6.499   4.482  16.524  0.00  0.00    +0.000 A 
ATOM      8  N   UNL     1       7.531   5.323  16.647  0.00  0.00    +0.000 NA
ATOM      9  N   UNL     1       6.963   6.432  17.163  0.00  0.00    +0.000 N 
ATOM     10  C   UNL     1       7.761   7.603  17.417  0.00  0.00    +0.000 C 
ENDROOT
BRANCH   3  11
ATOM     11  C   UNL     1       2.546   7.733  18.537  0.00  0.00    +0.000 A 
ATOM     12  C   UNL     1       2.057   7.676  19.851  0.00  0.00    +0.000 A 
ATOM     13  C   UNL     1       1.110   8.597  20.296  0.00  0.00    +0.000 A 
ATOM     14  C   UNL     1       0.667   9.563  19.410  0.00  0.00    +0.000 A 
ATOM     15  N   UNL     1       1.104   9.667  18.139  0.00  0.00    +0.000 NA
ATOM     16  C   UNL     1       2.026   8.754  17.739  0.00  0.00    +0.000 A 
ENDBRANCH   3  11
BRANCH   1  17
ATOM     17  N   UNL     1       3.400   3.399  16.847  0.00  0.00    +0.000 N 
ATOM     18  H   UNL     1       3.544   3.248  15.850  0.00  0.00    +0.000 HD
BRANCH  17  19
ATOM     19  C   UNL     1       2.070   3.093  17.361  0.00  0.00    +0.000 C 
BRANCH  19  20
ATOM     20  C   UNL     1       2.136   2.060  18.492  0.00  0.00    +0.000 C 
BRANCH  20  22
ATOM     21  C   UNL     1       0.573   3.535  19.780  0.00  0.00    +0.000 C 
ATOM     22  N   UNL     1       1.717   2.593  19.825  0.00  0.00    +0.000 NA
BRANCH  22  23
ATOM     23  S   UNL     1       2.981   3.032  20.874  0.00  0.00    +0.000 S 
ATOM     24  C   UNL     1       4.389   2.263  20.078  0.00  0.00    +0.000 C 
ATOM     25  O   UNL     1       3.172   4.468  20.780  0.00  0.00    +0.000 OA
ATOM     26  O   UNL     1       2.741   2.383  22.141  0.00  0.00    +0.000 OA
ENDBRANCH  22  23
ENDBRANCH  20  22
ENDBRANCH  19  20
ENDBRANCH  17  19
ENDBRANCH   1  17
TORSDOF 6
ENDMDL
MODEL 8
REMARK VINA RESULT:      -7.1      3.709      6.402
REMARK  Name = 
REMARK  9 active torsions:
REMARK  status: ('A' for Active; 'I' for Inactive)
REMARK    1  A    between atoms: C_1  and  N_2
REMARK    2  A    between atoms: N_2  and  C_3
REMARK    3  A    between atoms: N_2  and  S_22
REMARK    4  A    between atoms: C_3  and  C_4
REMARK    5  A    between atoms: C_4  and  N_5
REMARK    6  A    between atoms: N_5  and  C_6
REMARK    7  A    between atoms: C_8  and  C_9
REMARK    8  A    between atoms: N_20  and  C_21
REMARK    9  A    between atoms: S_22  and  C_23
REMARK                            x       y       z     vdW  Elec       q    Type
REMARK                         _______ _______ _______ _____ _____    ______ ____
ROOT
ATOM      1  C   UNL     1       2.764   6.628  18.857  0.00  0.00    +0.000 A 
ATOM      2  N   UNL     1       3.676   6.470  17.871  0.00  0.00    +0.000 NA
ATOM      3  C   UNL     1       4.344   5.298  17.752  0.00  0.00    +0.000 A 
ATOM      4  N   UNL     1       4.231   4.231  18.565  0.00  0.00    +0.000 NA
ATOM      5  C   UNL     1       3.336   4.431  19.541  0.00  0.00    +0.000 A 
ATOM      6  C   UNL     1       2.572   5.562  19.743  0.00  0.00    +0.000 A 
ATOM      7  C   UNL     1       1.792   5.249  20.878  0.00  0.00    +0.000 A 
ATOM      8  N   UNL     1       2.061   4.040  21.380  0.00  0.00    +0.000 NA
ATOM      9  N   UNL     1       2.992   3.556  20.533  0.00  0.00    +0.000 N 
ATOM     10  C   UNL     1       3.525   2.232  20.723  0.00  0.00    +0.000 C 
ENDROOT
BRANCH   3  11
ATOM     11  C   UNL     1       5.282   5.167  16.628  0.00  0.00    +0.000 A 
ATOM     12  C   UNL     1       5.046   4.314  15.539  0.00  0.00    +0.000 A 
ATOM     13  C   UNL     1       5.971   4.217  14.501  0.00  0.00    +0.000 A 
ATOM     14  C   UNL     1       7.123   4.980  14.575  0.00  0.00    +0.000 A 
ATOM     15  N   UNL     1       7.400   5.817  15.595  0.00  0.00    +0.000 NA
ATOM     16  C   UNL     1       6.477   5.888  16.588  0.00  0.00    +0.000 A 
ENDBRANCH   3  11
BRANCH   1  17
ATOM     17  N   UNL     1       2.120   7.862  18.891  0.00  0.00    +0.000 N 
ATOM     18  H   UNL     1       1.164   7.694  19.197  0.00  0.00    +0.000 HD
BRANCH  17  19
ATOM     19  C   UNL     1       2.288   8.750  17.747  0.00  0.00    +0.000 C 
BRANCH  19  20
ATOM     20  C   UNL     1       1.860  10.182  18.088  0.00  0.00    +0.000 C 
BRANCH  20  22
ATOM     21  C   UNL     1      -0.637  10.284  18.264  0.00  0.00    +0.000 C 
ATOM     22  N   UNL     1       0.661  10.261  18.979  0.00  0.00    +0.000 NA
BRANCH  22  23
ATOM     23  S   UNL     1       0.789  11.334  20.293  0.00  0.00    +0.000 S 
ATOM     24  C   UNL     1      -0.915  11.849  20.500  0.00  0.00    +0.000 C 
ATOM     25  O   UNL     1       1.147  10.568  21.473  0.00  0.00    +0.000 OA
ATOM     26  O   UNL     1       1.575  12.464  19.858  0.00  0.00    +0.000 OA
ENDBRANCH  22  23
ENDBRANCH  20  22
ENDBRANCH  19  20
ENDBRANCH  17  19
ENDBRANCH   1  17
TORSDOF 6
ENDMDL
MODEL 9
REMARK VINA RESULT:      -7.1      3.725      6.477
REMARK  Name = 
REMARK  9 active torsions:
REMARK  status: ('A' for Active; 'I' for Inactive)
REMARK    1  A    between atoms: C_1  and  N_2
REMARK    2  A    between atoms: N_2  and  C_3
REMARK    3  A    between atoms: N_2  and  S_22
REMARK    4  A    between atoms: C_3  and  C_4
REMARK    5  A    between atoms: C_4  and  N_5
REMARK    6  A    between atoms: N_5  and  C_6
REMARK    7  A    between atoms: C_8  and  C_9
REMARK    8  A    between atoms: N_20  and  C_21
REMARK    9  A    between atoms: S_22  and  C_23
REMARK                            x       y       z     vdW  Elec       q    Type
REMARK                         _______ _______ _______ _____ _____    ______ ____
ROOT
ATOM      1  C   UNL     1       2.713   6.611  18.800  0.00  0.00    +0.000 A 
ATOM      2  N   UNL     1       3.701   6.452  17.891  0.00  0.00    +0.000 NA
ATOM      3  C   UNL     1       4.101   5.206  17.541  0.00  0.00    +0.000 A 
ATOM      4  N   UNL     1       3.635   4.048  18.046  0.00  0.00    +0.000 NA
ATOM      5  C   UNL     1       2.673   4.245  18.957  0.00  0.00    +0.000 A 
ATOM      6  C   UNL     1       2.159   5.458  19.369  0.00  0.00    +0.000 A 
ATOM      7  C   UNL     1       1.171   5.107  20.314  0.00  0.00    +0.000 A 
ATOM      8  N   UNL     1       1.086   3.789  20.517  0.00  0.00    +0.000 NA
ATOM      9  N   UNL     1       2.000   3.287  19.662  0.00  0.00    +0.000 N 
ATOM     10  C   UNL     1       2.191   1.864  19.559  0.00  0.00    +0.000 C 
ENDROOT
BRANCH   3  11
ATOM     11  C   UNL     1       5.142   5.097  16.509  0.00  0.00    +0.000 A 
ATOM     12  C   UNL     1       5.050   4.203  15.431  0.00  0.00    +0.000 A 
ATOM     13  C   UNL     1       6.068   4.129  14.482  0.00  0.00    +0.000 A 
ATOM     14  C   UNL     1       7.167   4.956  14.633  0.00  0.00    +0.000 A 
ATOM     15  N   UNL     1       7.307   5.834  15.646  0.00  0.00    +0.000 NA
ATOM     16  C   UNL     1       6.297   5.881  16.552  0.00  0.00    +0.000 A 
ENDBRANCH   3  11
BRANCH   1  17
ATOM     17  N   UNL     1       2.363   7.927  19.086  0.00  0.00    +0.000 N 
ATOM     18  H   UNL     1       1.850   7.918  19.965  0.00  0.00    +0.000 HD
BRANCH  17  19
ATOM     19  C   UNL     1       1.790   8.729  18.011  0.00  0.00    +0.000 C 
BRANCH  19  20
ATOM     20  C   UNL     1       1.333  10.100  18.525  0.00  0.00    +0.000 C 
BRANCH  20  22
ATOM     21  C   UNL     1      -1.116  10.611  18.383  0.00  0.00    +0.000 C 
ATOM     22  N   UNL     1      -0.000  10.080  19.203  0.00  0.00    +0.000 NA
BRANCH  22  23
ATOM     23  S   UNL     1      -0.004  10.558  20.835  0.00  0.00    +0.000 S 
ATOM     24  C   UNL     1      -0.154   8.980  21.669  0.00  0.00    +0.000 C 
ATOM     25  O   UNL     1       1.309  11.086  21.158  0.00  0.00    +0.000 OA
ATOM     26  O   UNL     1      -1.204  11.328  21.061  0.00  0.00    +0.000 OA
ENDBRANCH  22  23
ENDBRANCH  20  22
ENDBRANCH  19  20
ENDBRANCH  17  19
ENDBRANCH   1  17
TORSDOF 6
ENDMDL
